#------------------------------------------------------------------------------
#$Date: 2019-11-26 13:02:16 +0200 (Tue, 26 Nov 2019) $
#$Revision: 243402 $
#$URL: file:///home/coder/svn-repositories/cod/cif/4/13/36/4133665.cif $
#------------------------------------------------------------------------------
#
# This file is available in the Crystallography Open Database (COD),
# http://www.crystallography.net/
#
# All data on this site have been placed in the public domain by the
# contributors.
#
data_4133665
loop_
_publ_author_name
'Mayer, David C.'
'Manzi, Aurora'
'Medishetty, Raghavender'
'Winkler, Benedikt'
'Schneider, Christian'
'Kieslich, Gregor'
'P\"othig, Alexander'
'Feldmann, Jochen'
'Fischer, Roland A.'
_publ_section_title
;
 Controlling Multiphoton Absorption Efficiency by Chromophore Packing in
 Metal-Organic Frameworks.
;
_journal_issue                   29
_journal_name_full               'Journal of the American Chemical Society'
_journal_page_first              11594
_journal_page_last               11602
_journal_paper_doi               10.1021/jacs.9b04213
_journal_volume                  141
_journal_year                    2019
_chemical_compound_source        'see text'
_chemical_formula_moiety         'C61 H44 Cd2 N3 O11'
_chemical_formula_sum            'C61 H44 Cd2 N3 O11'
_chemical_formula_weight         1129.71
_space_group_IT_number           2
_space_group_name_Hall           '-P 1'
_space_group_name_H-M_alt        'P -1'
_symmetry_cell_setting           triclinic
_symmetry_Int_Tables_number      2
_symmetry_space_group_name_Hall  '-P 1'
_symmetry_space_group_name_H-M   'P -1'
_atom_sites_solution_hydrogens   geom
_cell_angle_alpha                91.12(4)
_cell_angle_beta                 92.52(7)
_cell_angle_gamma                93.32(4)
_cell_formula_units_Z            2
_cell_length_a                   11.072(10)
_cell_length_b                   11.414(12)
_cell_length_c                   22.31(2)
_cell_measurement_reflns_used    9794
_cell_measurement_temperature    293
_cell_measurement_theta_max      23.4302
_cell_measurement_theta_min      2.5063
_cell_volume                     2811(5)
_computing_cell_refinement       'SAINT (Bruker, 2014)'
_computing_data_collection       'APEX III Control Software (Bruker, 2015)'
_computing_data_reduction        'SAINT (Bruker, 2014)'
_computing_molecular_graphics    'PLATON (Spek, 2011)'
_computing_publication_material  'PLATON (Spek, 2011), enCIFer (Allen, 2014)'
_computing_structure_refinement
'SHELXL2014 (Sheldrick, 2014), SHELXLE (Huebschle, 2011)'
_computing_structure_solution    'SHELXT (Sheldrick, 2015)'
_diffrn_ambient_temperature      293
_diffrn_detector                 ' CMOS plate '
_diffrn_detector_area_resol_mean 16
_diffrn_measured_fraction_theta_full 0.900
_diffrn_measured_fraction_theta_max 0.900
_diffrn_measurement_device       ' \k-geometry diffractometer '
_diffrn_measurement_device_type  ' Bruker Photon CMOS '
_diffrn_measurement_method       ' phi- and omega-rotation '
_diffrn_radiation_monochromator  'Helios optic'
_diffrn_radiation_probe          x-ray
_diffrn_radiation_source         'TXS rotating anode'
_diffrn_radiation_type           MoK\a
_diffrn_radiation_wavelength     0.71073
_diffrn_reflns_av_R_equivalents  0.1408
_diffrn_reflns_av_unetI/netI     0.1975
_diffrn_reflns_limit_h_max       11
_diffrn_reflns_limit_h_min       -11
_diffrn_reflns_limit_k_max       12
_diffrn_reflns_limit_k_min       -12
_diffrn_reflns_limit_l_max       24
_diffrn_reflns_limit_l_min       -24
_diffrn_reflns_number            15082
_diffrn_reflns_reduction_process
;
;
_diffrn_reflns_theta_full        23.26
_diffrn_reflns_theta_max         23.26
_diffrn_reflns_theta_min         1.83
_exptl_absorpt_coefficient_mu    0.810
_exptl_absorpt_correction_T_max  0.7454
_exptl_absorpt_correction_T_min  0.4778
_exptl_absorpt_correction_type   multi-scan
_exptl_absorpt_process_details   'SADABS 2016/2, Bruker, 2016'
_exptl_crystal_colour            'clear green'
_exptl_crystal_density_diffrn    1.335
_exptl_crystal_density_method    'Not Measured'
_exptl_crystal_description       plate
_exptl_crystal_F_000             1132
_exptl_crystal_size_max          0.159
_exptl_crystal_size_mid          0.096
_exptl_crystal_size_min          0.062
_refine_diff_density_max         2.096
_refine_diff_density_min         -0.785
_refine_diff_density_rms         0.123
_refine_ls_extinction_method     none
_refine_ls_goodness_of_fit_ref   0.971
_refine_ls_hydrogen_treatment    constr
_refine_ls_matrix_type           full
_refine_ls_number_parameters     786
_refine_ls_number_reflns         7266
_refine_ls_number_restraints     349
_refine_ls_restrained_S_all      0.946
_refine_ls_R_factor_all          0.2000
_refine_ls_R_factor_gt           0.0955
_refine_ls_shift/su_max          0.005
_refine_ls_shift/su_mean         0.000
_refine_ls_structure_factor_coef Fsqd
_refine_ls_weighting_details
'W=1/[\S^2^(FO^2^)+(0.2000P)^2^] WHERE P=(FO^2^+2FC^2^)/3'
_refine_ls_weighting_scheme      calc
_refine_ls_wR_factor_gt          0.2664
_refine_ls_wR_factor_ref         0.3305
_reflns_number_gt                3342
_reflns_number_total             7266
_reflns_threshold_expression     I>2\s(I)
_cod_data_source_file            ja9b04213_si_003.cif
_cod_data_source_block           tPPD-Cd
_cod_database_code               4133665
_shelx_res_file
;
 
TITL AnnMa38_2_0m_a.res in P-1
    annma38_2_0m_sq.res
    created by SHELXL-2017/1 at 14:30:01 on 20-Jun-2019
CELL 0.71073 11.0725 11.4139 22.3081 91.123 92.518 93.317
ZERR 2.00 0.0101 0.0123 0.0238 0.041 0.071 0.039
LATT 1
SFAC C H N O Cd
UNIT 122 88 6 22 4
LIST 4 ! automatically inserted. Change 6 to 4 for CHECKCIF!!
ACTA
TEMP 20.000
L.S. 500
FMAP 2
PLAN 80
OMIT -3 1 1 !Beamstop
BOND $H
SIMU 0.001 C2 > C7
SIMU 0.001 C17 > C22
SIMU 0.001 C14 > C16
SHEL 99 0.9
ABIN
WGHT    0.200000
FVAR       0.33573   0.39404   0.73310
CD1   5    0.936428    1.121174    0.949850    11.00000    0.06693    0.10423 =
         0.04137   -0.00835   -0.00752    0.01479
CD2   5    0.553306    0.609154    0.055127    11.00000    0.20610    0.13156 =
         0.03044    0.01689   -0.01624   -0.08576
O7    4    0.728945    0.097444    0.904528    11.00000    0.09384    0.14727 =
         0.03025    0.00743   -0.00404    0.00014
O8    4    0.884088    0.151980    0.850615    11.00000    0.06634    0.16814 =
         0.06874    0.03814    0.00634   -0.00332
O9    4    1.144739    1.160821    0.956261    11.00000    0.12110    0.21328 =
         0.06182    0.03348    0.00723   -0.08043
N1    3    1.294147    0.638109    0.507588    11.00000    0.04652    0.06302 =
         0.02921    0.00552   -0.00450    0.03381
N2    3    0.229515    0.120242    0.485455    11.00000    0.03988    0.03574 =
         0.02856    0.00356    0.01499   -0.00853
O1    4    0.977014    0.933359    0.931369    11.00000    0.09824    0.09121 =
         0.07627   -0.03801    0.03790   -0.00945
O2    4    1.145610    0.854294    0.963185    11.00000    0.12442    0.18594 =
         0.03243   -0.02521    0.00551    0.04011
C1    1    1.074675    0.890473    0.920636    11.00000    0.13158    0.07014 =
         0.05325   -0.00343    0.02121    0.00342
C2    1    1.119225    0.869304    0.858338    11.00000    0.06623    0.09112 =
         0.03769   -0.01466    0.00171    0.02551
C3    1    1.048263    0.898107    0.810302    11.00000    0.06613    0.09088 =
         0.03749   -0.01470    0.00208    0.02573
AFIX  43
H3    2    0.977775    0.936244    0.816597    11.00000   -1.20000
AFIX   0
C4    1    1.078907    0.871594    0.751239    11.00000    0.06613    0.09083 =
         0.03743   -0.01470    0.00199    0.02583
AFIX  43
H4    2    1.027170    0.892090    0.719685    11.00000   -1.20000
AFIX   0
C5    1    1.183420    0.815969    0.738056    11.00000    0.06611    0.09110 =
         0.03756   -0.01461    0.00178    0.02580
C6    1    1.258785    0.792171    0.786258    11.00000    0.06629    0.09160 =
         0.03805   -0.01462    0.00142    0.02560
AFIX  43
H6    2    1.331554    0.758564    0.779296    11.00000   -1.20000
AFIX   0
C7    1    1.229200    0.817369    0.847157    11.00000    0.06642    0.09164 =
         0.03810   -0.01450    0.00144    0.02547
AFIX  43
H7    2    1.281899    0.799673    0.878875    11.00000   -1.20000
AFIX   0
C8    1    1.210389    0.777296    0.677861    11.00000    0.04771    0.05970 =
         0.04069   -0.00059    0.01373    0.02735
C9    1    1.123308    0.720446    0.639317    11.00000    0.07043    0.04488 =
         0.02981    0.01710    0.00789    0.01592
AFIX  43
H9    2    1.044140    0.712355    0.651611    11.00000   -1.20000
AFIX   0
C10   1    1.148502    0.674507    0.582725    11.00000    0.04701    0.05312 =
         0.02872    0.01147   -0.00154    0.00688
AFIX  43
H10   2    1.087420    0.636727    0.558301    11.00000   -1.20000
AFIX   0
C11   1    1.266053    0.686477    0.563916    11.00000    0.04660    0.03193 =
         0.02381    0.00569    0.00748    0.02546
C12   1    1.355177    0.746188    0.600623    11.00000    0.04236    0.07006 =
         0.05702   -0.01744   -0.00352    0.01091
AFIX  43
H12   2    1.433651    0.756845    0.587642    11.00000   -1.20000
AFIX   0
C13   1    1.327208    0.790016    0.656722    11.00000    0.06733    0.06401 =
         0.04994   -0.02336   -0.01565    0.01185
AFIX  43
H13   2    1.388111    0.828901    0.680820    11.00000   -1.20000
AFIX   0
C14   1    1.466562    0.569406    0.451897    11.00000    0.04738    0.03135 =
         0.02926   -0.00176    0.00540    0.00291
AFIX  43
H14   2    1.444110    0.613748    0.419144    11.00000   -1.20000
AFIX   0
C15   1    1.396277    0.567626    0.504166    11.00000    0.04736    0.03146 =
         0.02920   -0.00188    0.00561    0.00266
C16   1    1.429940    0.496540    0.549575    11.00000    0.04732    0.03157 =
         0.02901   -0.00200    0.00598    0.00267
AFIX  43
H16   2    1.382568    0.491365    0.582935    11.00000   -1.20000
AFIX   0
C17   1    1.213627    0.645820    0.457869    11.00000    0.04122    0.03436 =
         0.04792   -0.00297    0.01012    0.00553
C18   1    1.159839    0.751655    0.445913    11.00000    0.04093    0.03399 =
         0.04752   -0.00324    0.01048    0.00569
AFIX  43
H18   2    1.181649    0.817559    0.470012    11.00000   -1.20000
AFIX   0
C19   1    1.075348    0.760015    0.399201    11.00000    0.04084    0.03400 =
         0.04751   -0.00312    0.01038    0.00571
AFIX  43
H19   2    1.040839    0.831550    0.393469    11.00000   -1.20000
AFIX   0
C20   1    1.038855    0.666063    0.359909    11.00000    0.04108    0.03442 =
         0.04782   -0.00295    0.00994    0.00529
C21   1    1.092729    0.561468    0.372542    11.00000    0.04150    0.03460 =
         0.04818   -0.00297    0.00955    0.00529
AFIX  43
H21   2    1.068404    0.495099    0.349256    11.00000   -1.20000
AFIX   0
C22   1    1.178952    0.551335    0.417102    11.00000    0.04156    0.03466 =
         0.04843   -0.00285    0.00959    0.00537
AFIX  43
H22   2    1.216231    0.480765    0.421023    11.00000   -1.20000
AFIX   0
PART 1 21.00
SAME O3A > C29A
EADP C23 C24 C25 C26
SIMU 0.0001 O3A > C29A
SIMU 0.0001 O3 > C29
FLAT 0.001 C23 > C26
O3    4    0.599703    0.621374    0.152297    21.00000    0.04636    0.04775 =
         0.04174   -0.00467   -0.00047   -0.00233
O4    4    0.687584    0.791340    0.129130    21.00000    0.04636    0.04775 =
         0.04174   -0.00466   -0.00046   -0.00233
C23   1    0.949383    0.674856    0.309093    21.00000    0.04635    0.04775 =
         0.04173   -0.00467   -0.00046   -0.00233
C24   1    0.940209    0.776035    0.275746    21.00000    0.04635    0.04775 =
         0.04173   -0.00467   -0.00046   -0.00233
AFIX  43
H24   2    0.992346    0.841062    0.285546    21.00000   -1.20000
AFIX   0
C25   1    0.856928    0.782753    0.229041    21.00000    0.04635    0.04775 =
         0.04173   -0.00467   -0.00046   -0.00233
AFIX  43
H25   2    0.855331    0.852816    0.208509    21.00000   -1.20000
AFIX   0
C26   1    0.775626    0.692789    0.210547    21.00000    0.04635    0.04775 =
         0.04173   -0.00467   -0.00046   -0.00233
C27   1    0.785813    0.583495    0.239743    21.00000    0.04635    0.04775 =
         0.04173   -0.00467   -0.00046   -0.00233
AFIX  43
H27   2    0.738608    0.516987    0.226814    21.00000   -1.20000
AFIX   0
C28   1    0.868924    0.579855    0.288293    21.00000    0.04635    0.04775 =
         0.04173   -0.00467   -0.00046   -0.00233
AFIX  43
H28   2    0.871965    0.509721    0.308683    21.00000   -1.20000
AFIX   0
C29   1    0.682022    0.695083    0.158379    21.00000    0.04636    0.04775 =
         0.04174   -0.00467   -0.00046   -0.00233
PART 2 -21.00
SAME O3 > C29
O3A   4    0.634460    0.570249    0.145218   -21.00000    0.07116    0.05154 =
         0.05377   -0.00372   -0.00272   -0.01104
O4A   4    0.704491    0.742061    0.118184   -21.00000    0.07116    0.05154 =
         0.05377   -0.00371   -0.00271   -0.01104
C23A  1    0.950616    0.674287    0.311820   -21.00000    0.07115    0.05153 =
         0.05376   -0.00371   -0.00271   -0.01104
C24A  1    0.938110    0.770936    0.275435   -21.00000    0.07115    0.05153 =
         0.05376   -0.00371   -0.00271   -0.01104
AFIX  43
H24A  2    0.984062    0.840088    0.285016   -21.00000   -1.20000
AFIX   0
C25A  1    0.860096    0.767220    0.225914   -21.00000    0.07115    0.05154 =
         0.05376   -0.00371   -0.00271   -0.01104
AFIX  43
H25A  2    0.863244    0.830407    0.200222   -21.00000   -1.20000
AFIX   0
C26A  1    0.777714    0.675327    0.212261   -21.00000    0.07115    0.05154 =
         0.05377   -0.00371   -0.00271   -0.01104
C27A  1    0.770837    0.582976    0.254459   -21.00000    0.07115    0.05153 =
         0.05376   -0.00371   -0.00271   -0.01104
AFIX  43
H27A  2    0.707308    0.525864    0.251972   -21.00000   -1.20000
AFIX   0
C28A  1    0.861988    0.580809    0.299481   -21.00000    0.07115    0.05153 =
         0.05376   -0.00371   -0.00271   -0.01104
AFIX  43
H28A  2    0.865001    0.514317    0.322814   -21.00000   -1.20000
AFIX   0
C29A  1    0.697334    0.657795    0.155196   -21.00000    0.07116    0.05154 =
         0.05377   -0.00371   -0.00271   -0.01104
PART 3 31.00
SAME O5A > C36A
SIMU 0.0001 O5A > C36A
SIMU 0.0001 O5 > C36
FLAT 0.004 C30A > C36A
FLAT 0.004 C30 > C36
O5    4    0.501288    0.407223    0.048690    31.00000    0.10936    0.06597 =
         0.04272    0.00613    0.01088   -0.02479
O6    4    0.338836    0.288384    0.019243    31.00000    0.10936    0.06597 =
         0.04271    0.00612    0.01088   -0.02478
C30   1    0.397431    0.342281    0.061234    31.00000    0.10936    0.06597 =
         0.04272    0.00612    0.01088   -0.02479
C31   1    0.379197    0.308302    0.124154    31.00000    0.10936    0.06596 =
         0.04271    0.00613    0.01088   -0.02479
C32   1    0.426507    0.376972    0.172403    31.00000    0.10936    0.06596 =
         0.04271    0.00613    0.01088   -0.02480
AFIX  43
H32   2    0.470922    0.446308    0.164755    31.00000   -1.20000
AFIX   0
C33   1    0.410265    0.346287    0.233138    31.00000    0.10936    0.06596 =
         0.04271    0.00613    0.01088   -0.02480
AFIX  43
H33   2    0.443806    0.395255    0.264074    31.00000   -1.20000
AFIX   0
C34   1    0.345692    0.245332    0.246163    31.00000    0.10936    0.06596 =
         0.04271    0.00613    0.01088   -0.02480
C35   1    0.298306    0.176791    0.194598    31.00000    0.10936    0.06596 =
         0.04271    0.00613    0.01088   -0.02480
AFIX  43
H35   2    0.253612    0.107110    0.201238    31.00000   -1.20000
AFIX   0
C36   1    0.315106    0.208110    0.135782    31.00000    0.10936    0.06596 =
         0.04271    0.00613    0.01088   -0.02479
AFIX  43
H36   2    0.282180    0.160029    0.104355    31.00000   -1.20000
AFIX   0
PART 4 -31.00
SAME O5 > C36
O5A   4    0.410177    0.450109    0.050101   -31.00000    0.06151    0.07484 =
         0.04682    0.01730    0.01581    0.04716
O6A   4    0.414705    0.257497    0.021691   -31.00000    0.06151    0.07485 =
         0.04682    0.01730    0.01581    0.04716
C30A  1    0.420811    0.333420    0.062703   -31.00000    0.06151    0.07484 =
         0.04682    0.01730    0.01581    0.04716
C31A  1    0.394578    0.303723    0.125574   -31.00000    0.06151    0.07484 =
         0.04682    0.01730    0.01581    0.04716
C32A  1    0.472766    0.345802    0.172688   -31.00000    0.06151    0.07484 =
         0.04681    0.01730    0.01581    0.04717
AFIX  43
H32A  2    0.541537    0.392588    0.164746   -31.00000   -1.20000
AFIX   0
C33A  1    0.447896    0.317461    0.233260   -31.00000    0.06151    0.07484 =
         0.04681    0.01730    0.01581    0.04717
AFIX  43
H33A  2    0.501127    0.346332    0.264188   -31.00000   -1.20000
AFIX   0
C34A  1    0.348067    0.249156    0.246777   -31.00000    0.06151    0.07484 =
         0.04681    0.01730    0.01581    0.04717
C35A  1    0.270604    0.208198    0.196337   -31.00000    0.06151    0.07484 =
         0.04682    0.01730    0.01581    0.04717
AFIX  43
H35A  2    0.201301    0.161274    0.203177   -31.00000   -1.20000
AFIX   0
C36A  1    0.295917    0.236437    0.137736   -31.00000    0.06151    0.07484 =
         0.04682    0.01730    0.01581    0.04717
AFIX  43
H36A  2    0.243426    0.208119    0.106391   -31.00000   -1.20000
AFIX   0
PART 0
C37   1    0.318485    0.217761    0.309586    11.00000    0.04436    0.04254 =
         0.02037   -0.00695    0.00360   -0.00771
C38   1    0.339157    0.294192    0.356201    11.00000    0.04110    0.01200 =
         0.04808    0.01306    0.00399   -0.00764
AFIX  43
H38   2    0.370558    0.369857    0.349387    11.00000   -1.20000
AFIX   0
C39   1    0.314353    0.261823    0.414183    11.00000    0.03238    0.02169 =
         0.04950    0.00356    0.00512   -0.00637
AFIX  43
H39   2    0.333215    0.315056    0.445769    11.00000   -1.20000
AFIX   0
C40   1    0.262715    0.153256    0.426000    11.00000    0.01282    0.03470 =
         0.03936   -0.00351    0.01512   -0.00113
C41   1    0.241242    0.070681    0.378151    11.00000    0.03403    0.03753 =
         0.04540    0.00227    0.00517   -0.01293
AFIX  43
H41   2    0.207858   -0.004370    0.384710    11.00000   -1.20000
AFIX   0
C42   1    0.271499    0.104917    0.320927    11.00000    0.06157    0.05937 =
         0.01251   -0.01714    0.00235   -0.01662
AFIX  43
H42   2    0.259977    0.050706    0.289231    11.00000   -1.20000
AFIX   0
C43   1    0.112469    0.059729    0.493833    11.00000    0.01995    0.02801 =
         0.02789   -0.00969    0.00258   -0.00498
C44   1    0.098741   -0.020700    0.539254    11.00000    0.03626    0.03178 =
         0.01872    0.00797    0.00229   -0.00100
AFIX  43
H44   2    0.163927   -0.036148    0.565030    11.00000   -1.20000
AFIX   0
C45   1   -0.011175   -0.076211    0.545351    11.00000    0.03774    0.02876 =
         0.02314    0.00148    0.00301    0.01382
AFIX  43
H45   2   -0.020628   -0.127705    0.576825    11.00000   -1.20000
AFIX   0
C46   1    0.310959    0.147247    0.536104    11.00000    0.04253    0.03851 =
         0.02627   -0.00127   -0.00087   -0.00317
C47   1    0.430676    0.123185    0.534055    11.00000    0.03528    0.03678 =
         0.03471    0.00125    0.00184    0.00523
AFIX  43
H47   2    0.461882    0.100734    0.497827    11.00000   -1.20000
AFIX   0
C48   1    0.505976    0.132176    0.585994    11.00000    0.02600    0.05055 =
         0.03551   -0.00397    0.00818    0.00315
AFIX  43
H48   2    0.586705    0.114563    0.584124    11.00000   -1.20000
AFIX   0
C49   1    0.461434    0.167378    0.640842    11.00000    0.03700    0.05707 =
         0.04469   -0.01494    0.00974   -0.01251
C50   1    0.340780    0.195810    0.641412    11.00000    0.05046    0.08208 =
         0.02563   -0.01386    0.00931    0.02181
AFIX  43
H50   2    0.309803    0.222077    0.677017    11.00000   -1.20000
AFIX   0
C51   1    0.265883    0.185574    0.589635    11.00000    0.03739    0.04854 =
         0.04296   -0.02465    0.00577   -0.00215
AFIX  43
H51   2    0.185439    0.204463    0.590914    11.00000   -1.20000
AFIX   0
C52   1    0.540487    0.165030    0.696953    11.00000    0.02855    0.07652 =
         0.03458    0.00048   -0.00374    0.00223
C53   1    0.656874    0.208133    0.700077    11.00000    0.06079    0.07122 =
         0.02582    0.01209    0.00037    0.00104
AFIX  43
H53   2    0.687258    0.244633    0.666531    11.00000   -1.20000
AFIX   0
C54   1    0.736132    0.200698    0.752276    11.00000    0.01920    0.08701 =
         0.06408   -0.00480    0.00330   -0.00430
AFIX  43
H54   2    0.816683    0.228822    0.752542    11.00000   -1.20000
AFIX   0
C55   1    0.687218    0.149696    0.802301    11.00000    0.05386    0.08007 =
         0.02714    0.00680    0.00890    0.00205
C56   1    0.569689    0.104369    0.801312    11.00000    0.06089    0.13058 =
         0.02451    0.01250    0.00254   -0.01699
AFIX  43
H56   2    0.539240    0.066763    0.834536    11.00000   -1.20000
AFIX   0
C57   1    0.494912    0.116180    0.748061    11.00000    0.05132    0.12946 =
         0.02686   -0.00081   -0.00679   -0.02748
AFIX  43
H57   2    0.413678    0.090347    0.747854    11.00000   -1.20000
AFIX   0
C58   1    0.775256    0.130755    0.856498    11.00000    0.06989    0.07651 =
         0.05051    0.00561    0.00432   -0.01101
HKLF 4 1 1 0 0 0 1 0 0 0 1
 
 
 
 
REM  AnnMa38_2_0m_a.res in P-1
REM R1 =  0.0955 for    3342 Fo > 4sig(Fo)  and  0.2000 for all    7266 data
REM    786 parameters refined using    349 restraints
 
END
 
WGHT      0.1558      0.0000
 
REM Highest difference peak  2.096,  deepest hole -0.785,  1-sigma level  0.123
Q1    1   0.4846  0.7174  0.0670  11.00000  0.05    2.10
Q2    1   0.8973  1.0218  0.9615  11.00000  0.05    0.79
Q3    1   0.6326  0.4909  0.0435  11.00000  0.05    0.60
Q4    1   1.1520  0.8180  0.7395  11.00000  0.05    0.51
Q5    1   0.7672  0.6763  0.1098  11.00000  0.05    0.50
Q6    1   1.0004  0.9858  0.9410  11.00000  0.05    0.50
Q7    1   1.1372  0.5818  0.3476  11.00000  0.05    0.50
Q8    1   0.3537  0.5280  0.0725  11.00000  0.05    0.49
Q9    1   0.9132  1.1943  0.9664  11.00000  0.05    0.49
Q10   1   0.6947  0.5252  0.1294  11.00000  0.05    0.48
Q11   1   1.2470  0.9048  0.8422  11.00000  0.05    0.45
Q12   1   0.7941  0.6193  0.2030  11.00000  0.05    0.45
Q13   1   0.5649  0.2712  0.7335  11.00000  0.05    0.44
Q14   1   0.6516  0.6285  0.1176  11.00000  0.05    0.43
Q15   1   1.2278  0.7591  0.8118  11.00000  0.05    0.43
Q16   1   0.5335  0.6550  0.1797  11.00000  0.05    0.42
Q17   1   0.3617  0.4556  0.1863  11.00000  0.05    0.42
Q18   1   0.4194  0.1646  0.1497  11.00000  0.05    0.40
Q19   1   1.0112  1.0246  0.8348  11.00000  0.05    0.40
Q20   1   1.1000  1.2263  0.9452  11.00000  0.05    0.39
Q21   1   1.1604  0.6699  0.6097  11.00000  0.05    0.39
Q22   1   0.3442  0.3751  0.2139  11.00000  0.05    0.38
Q23   1   1.1924  0.7558  0.4415  11.00000  0.05    0.38
Q24   1   1.1716  1.1661  1.0081  11.00000  0.05    0.38
Q25   1   0.7050  0.2021  0.7193  11.00000  0.05    0.38
Q26   1   0.3636  0.4295  0.2469  11.00000  0.05    0.37
Q27   1   1.2305  0.9410  0.7221  11.00000  0.05    0.37
Q28   1   0.8459  0.2235  0.8741  11.00000  0.05    0.37
Q29   1   1.2223  0.7220  0.8487  11.00000  0.05    0.36
Q30   1   1.2943  0.8627  0.7756  11.00000  0.05    0.36
Q31   1   0.2966  0.2843  0.3110  11.00000  0.05    0.36
Q32   1   0.2796  0.2468  0.6031  11.00000  0.05    0.36
Q33   1   0.2708  0.0979  0.4024  11.00000  0.05    0.36
Q34   1   0.9443  0.4775  0.2716  11.00000  0.05    0.36
Q35   1   0.5904  0.5540  0.1698  11.00000  0.05    0.35
Q36   1   0.6672  0.2006  0.9170  11.00000  0.05    0.35
Q37   1   1.0294  1.0363  0.9070  11.00000  0.05    0.34
Q38   1   1.0460  0.9435  0.7020  11.00000  0.05    0.33
Q39   1   0.8458  0.5201  0.3587  11.00000  0.05    0.33
Q40   1   0.4780  0.1472  0.6210  11.00000  0.05    0.33
Q41   1   0.8435  0.6008  0.3099  11.00000  0.05    0.32
Q42   1   1.4187  0.9898  0.9561  11.00000  0.05    0.32
Q43   1   1.0205  0.9017  0.7966  11.00000  0.05    0.32
Q44   1   0.9488  0.8968  0.6992  11.00000  0.05    0.32
Q45   1   1.0276  0.6522  0.2676  11.00000  0.05    0.32
Q46   1   1.3660  0.8244  0.6688  11.00000  0.05    0.32
Q47   1   0.9471  0.5898  0.2865  11.00000  0.05    0.32
Q48   1   0.8111  0.6939  0.2111  11.00000  0.05    0.32
Q49   1   1.0963  0.5183  0.3124  11.00000  0.05    0.32
Q50   1   0.1832  0.1008  0.4905  11.00000  0.05    0.31
Q51   1   1.4732  0.4756  0.5692  11.00000  0.05    0.31
Q52   1   0.7757  0.0733  0.8917  11.00000  0.05    0.31
Q53   1   0.1441  0.3149  0.6184  11.00000  0.05    0.31
Q54   1   0.2913  0.2808  0.6612  11.00000  0.05    0.31
Q55   1   1.2381  0.5849  0.3973  11.00000  0.05    0.31
Q56   1   1.0489  0.7299  0.3856  11.00000  0.05    0.30
Q57   1   0.6307  0.3132  0.2793  11.00000  0.05    0.30
Q58   1   1.2576  1.1424  0.9933  11.00000  0.05    0.30
Q59   1   1.4194  0.5551  0.4780  11.00000  0.05    0.30
Q60   1   0.4151  0.5879  0.2499  11.00000  0.05    0.30
Q61   1   0.3487  0.2409  0.3686  11.00000  0.05    0.30
Q62   1   0.2977  0.0122  0.7756  11.00000  0.05    0.30
Q63   1   0.4953  0.4070  0.0104  11.00000  0.05    0.30
Q64   1   1.1580  0.7708  0.5041  11.00000  0.05    0.30
Q65   1   0.8295  0.7770  0.1206  11.00000  0.05    0.30
Q66   1   1.3691  0.7304  0.6521  11.00000  0.05    0.30
Q67   1   0.9507  0.7926  0.8228  11.00000  0.05    0.29
Q68   1   0.4185  0.2218  0.7405  11.00000  0.05    0.29
Q69   1   1.1057  0.8578  0.9259  11.00000  0.05    0.29
Q70   1   0.5954 -0.0368  0.8521  11.00000  0.05    0.29
Q71   1   1.2148  0.6592  0.4399  11.00000  0.05    0.29
Q72   1   0.2280  0.3002  0.2137  11.00000  0.05    0.29
Q73   1   1.1855  0.7052  0.7785  11.00000  0.05    0.29
Q74   1   0.2049  0.1547  0.4810  11.00000  0.05    0.29
Q75   1   0.7472  0.1757  0.8795  11.00000  0.05    0.29
Q76   1   0.5074  0.3359  0.1632  11.00000  0.05    0.28
Q77   1   1.2900  0.7111  0.8941  11.00000  0.05    0.28
Q78   1   0.8742  0.2732  0.7402  11.00000  0.05    0.28
Q79   1   0.5450  0.1820 -0.0123  11.00000  0.05    0.28
Q80   1   1.0406  0.8779  0.2319  11.00000  0.05    0.28
;
_shelx_res_checksum              55092
_shelx_hkl_file
;
  -2   0   0  245.88   15.50
   2   0   0  239.98   15.70
  -3   0   0  113.89   13.90
   3   0   0  112.49   12.60
  -4   0   0   28.30   10.60
   4   0   0   23.90   11.30
  -5   0   0  783.52   41.70
   5   0   0  725.33   42.40
  -6   0   0  209.48   25.70
   6   0   0  245.48   27.70
  -7   0   0   50.49   18.50
  -8   0   0  202.88   26.60
   8   0   0  171.78   27.80
  -9   0   0   11.40   20.80
   9   0   0   41.00   25.00
 -10   0   0    9.70   27.20
  10   0   0   60.09   27.60
 -11   0   0   13.10   31.30
  11   0   0   20.80   34.10
  11  -1   0  -40.80   32.00
 -11   1   0  -17.00   27.60
  10  -1   0   19.40   25.60
 -10   1   0   22.10   23.70
   9  -1   0    2.30   22.60
  -9   1   0  -28.20   18.90
   8  -1   0   10.90   19.10
  -8   1   0   21.10   17.00
   7  -1   0   16.10   18.40
  -7   1   0   54.89   20.00
   6  -1   0  439.46   31.60
  -6   1   0  397.36   30.10
   5  -1   0  720.93   39.60
  -5   1   0  722.03   38.50
   4  -1   0    2.10    9.00
  -4   1   0    1.40    8.30
   3  -1   0   14.10    7.00
  -3   1   0   14.50    6.90
   2  -1   0 4602.44  192.28
  -2   1   0 4845.92  192.28
   1  -1   0 1760.82   72.29
  -1   1   0 1788.22   72.39
  -1  -1   0 2800.62  110.29
   1   1   0 2519.05  111.59
  -2  -1   0 3429.96  143.59
   2   1   0 3471.95  143.89
  -3  -1   0  524.85   29.70
   3   1   0  530.35   30.60
  -4  -1   0  771.82   40.80
   4   1   0  722.33   41.00
  -5  -1   0  139.99   19.20
   5   1   0  164.68   21.70
  -6  -1   0   25.80   16.30
   6   1   0   20.10   17.20
  -7  -1   0   87.29   21.70
   7   1   0   57.19   24.30
  -8  -1   0   -0.30   19.60
   8   1   0   31.60   22.00
  -9  -1   0   47.90   24.10
   9   1   0    7.80   26.00
 -10  -1   0   78.99   32.20
  10   1   0   85.69   32.80
 -11  -1   0  -20.10   30.40
  11   1   0    0.50   35.50
  11  -2   0   -8.80   31.90
 -11   2   0   37.80   27.00
  10  -2   0   90.49   28.20
 -10   2   0   91.49   24.70
   9  -2   0   52.49   22.70
  -9   2   0   20.80   19.10
   8  -2   0  116.99   22.50
  -8   2   0  122.79   19.50
   7  -2   0   10.80   15.00
   6  -2   0  537.35   33.60
  -6   2   0  522.85   31.70
   5  -2   0   31.70   11.20
  -5   2   0   50.09   11.20
   4  -2   0   25.70    8.20
  -4   2   0   24.00    7.70
   3  -2   0 5467.05  228.98
  -3   2   0 5775.92  229.08
   2  -2   0 1357.16   56.09
  -2   2   0 1337.27   56.39
   1  -2   0   44.30    5.70
  -1   2   0   34.60    4.70
  -1  -2   0  968.60   44.30
   1   2   0  980.30   44.90
  -2  -2   0 2008.00   88.49
   2   2   0 2074.49   89.29
  -3  -2   0 1122.99   54.49
   3   2   0 1138.29   55.39
  -4  -2   0   22.00   13.90
   4   2   0   29.80   14.30
  -5  -2   0 1333.87   65.69
   5   2   0 1249.97   66.29
  -6  -2   0   60.39   20.30
   6   2   0   66.59   20.10
  -7  -2   0   41.50   21.10
   7   2   0   40.60   23.70
  -8  -2   0   -1.60   21.50
   8   2   0  -57.29   22.90
  -9  -2   0   33.40   27.50
   9   2   0  -23.60   29.10
 -10  -2   0  -56.99   28.40
  10   2   0    2.20   34.90
 -11  -2   0  -56.69   32.70
  11   2   0   21.80   42.80
  11  -3   0   15.30   30.10
 -11   3   0   31.50   24.70
  10  -3   0   98.99   28.20
 -10   3   0   80.09   23.40
   9  -3   0  109.69   23.50
  -9   3   0  127.89   21.40
   8  -3   0   63.79   18.80
  -8   3   0   55.39   15.70
   7  -3   0   -2.00   13.50
  -7   3   0  -13.60   11.40
   6  -3   0   13.00   11.50
  -6   3   0   24.30   10.60
   5  -3   0   96.29   12.80
  -5   3   0   98.89   12.00
   4  -3   0 1550.54   67.39
  -4   3   0 1602.04   67.49
   3  -3   0   82.99    8.70
  -3   3   0  100.69   10.00
  -2   3   0   20.20    4.80
  -2   3   0   25.20    5.80
   1  -3   0  718.23   32.10
  -1   3   0  709.43   32.50
   0   3   0 1815.52   80.29
  -1  -3   0  289.37   20.50
   1   3   0  278.97   20.30
  -2  -3   0  979.00   47.30
   2   3   0  906.31   47.30
  -3  -3   0   75.99   15.50
   3   3   0   63.19   15.60
  -4  -3   0 1486.85   71.29
   4   3   0 1416.86   71.89
  -5  -3   0   93.89   21.50
   5   3   0  109.79   22.90
  -6  -3   0   99.09   22.50
   6   3   0  109.79   24.20
  -7  -3   0  117.49   26.70
   7   3   0  158.98   29.20
  -8  -3   0   17.00   25.50
   8   3   0  -20.40   26.00
  -9  -3   0  -27.70   27.50
   9   3   0   12.90   30.50
 -10  -3   0  -51.89   30.60
  10   3   0  -13.40   34.00
 -11  -3   0   59.49   39.20
  11   3   0   44.80   45.30
  11  -4   0   12.10   29.70
 -11   4   0   21.40   21.20
  10  -4   0   31.10   23.50
 -10   4   0    8.30   18.60
   9  -4   0   -2.80   19.20
  -9   4   0   48.00   16.50
   8  -4   0   -9.80   14.90
  -8   4   0   -5.00   12.50
   7  -4   0   57.59   14.50
  -7   4   0   47.30   12.20
   6  -4   0  443.46   26.80
  -6   4   0  477.25   26.30
   5  -4   0   33.70    8.10
  -5   4   0   26.90    8.30
  -4   4   0  542.05   27.00
  -3   4   0   42.40    8.00
  -3   4   0   52.99    6.90
  -2   4   0 1129.79   49.40
   1  -4   0   28.80    7.40
  -1   4   0   23.80    8.20
   0   4   0 3478.05  146.29
  -1  -4   0    7.60    9.60
   1   4   0    2.10   11.10
  -2  -4   0 1127.99   56.09
   2   4   0 1129.99   57.29
  -3  -4   0  387.66   31.60
   3   4   0  385.26   33.50
  -4  -4   0  453.85   37.00
   4   4   0  497.55   38.10
  -5  -4   0   24.00   19.50
   5   4   0   10.60   19.90
  -6  -4   0   89.99   25.80
   6   4   0  135.89   27.30
  -7  -4   0   26.70   24.90
   7   4   0   25.50   27.20
  -8  -4   0  109.89   31.10
   8   4   0   86.99   35.30
  -9  -4   0    7.70   30.50
   9   4   0   18.20   35.10
 -10  -4   0   -1.60   34.40
  10   4   0   15.20   40.70
 -11  -4   0   -0.40   43.30
  11   4   0  -35.50   48.70
  11  -5   0   16.40   24.40
 -11   5   0    7.40   18.00
  10  -5   0   36.10   19.80
 -10   5   0   32.10   16.30
   9  -5   0    6.30   15.90
  -9   5   0   46.80   14.20
   8  -5   0   -1.60   12.30
  -8   5   0   23.70   11.40
   7  -5   0   75.39   11.40
  -7   5   0   51.69   10.50
  -6   5   0  187.68   15.50
  -5   5   0   13.10    8.00
  -5   5   0   29.70    6.20
  -4   5   0  237.68   15.10
  -4   5   0  233.38   17.70
  -3   5   0   39.30    8.30
  -3   5   0   24.20    9.10
   2  -5   0   16.80    8.30
  -2   5   0   19.10    9.10
   1  -5   0  526.55   28.90
  -1   5   0  550.64   31.10
   0  -5   0   -7.20    8.30
   0   5   0   32.30   11.70
  -1  -5   0 1378.06   65.59
   1   5   0 1388.66   67.29
  -2  -5   0  404.06   31.70
   2   5   0  413.96   34.20
  -3  -5   0  255.57   30.60
   3   5   0  283.57   30.60
  -4  -5   0  521.65   41.70
   4   5   0  583.14   44.50
  -5  -5   0   14.30   20.70
   5   5   0   -7.30   20.80
  -6  -5   0    5.80   22.80
   6   5   0   16.60   24.70
  -7  -5   0   55.79   27.40
   7   5   0   33.10   30.30
  -8  -5   0   11.70   29.60
   8   5   0   21.60   35.40
  -9  -5   0   72.09   34.80
   9   5   0   -0.10   39.10
 -10  -5   0  -20.00   38.70
  10   5   0   -9.80   44.60
 -11  -5   0  -31.90   43.30
  11   5   0 -116.69   49.99
  -6   6   0    5.70    6.10
  -6   6   0    2.90    8.00
  -5   6   0   89.29   12.10
  -5   6   0  104.09   11.80
  -4   6   0  135.09   14.80
  -4   6   0  152.88   17.80
  -3   6   0  593.34   31.00
  -3   6   0  574.64   32.60
  -3   6   0  565.74   23.20
   2  -6   0   67.09   11.80
  -2   6   0   48.40   12.40
   1  -6   0   67.89   13.20
  -1   6   0   58.19   14.70
   0  -6   0  114.99   15.80
   0   6   0   88.49   17.50
  -1  -6   0    0.60   12.70
   1   6   0   21.50   16.30
  -2  -6   0  290.67   30.10
   2   6   0  316.07   33.30
  -3  -6   0  795.42   48.90
   3   6   0  725.63   49.80
  -4  -6   0    2.20   19.70
   4   6   0   20.30   22.40
  -5  -6   0  154.78   29.10
   5   6   0  258.67   35.70
  -6  -6   0  -14.70   24.20
   6   6   0   31.40   28.20
  -7  -6   0  -29.90   26.40
   7   6   0    3.60   33.50
  -8  -6   0  -10.00   29.40
   8   6   0  -42.10   36.10
  -9  -6   0  -74.79   34.60
   9   6   0  -73.49   43.40
 -10  -6   0    9.40   41.60
  10   6   0  -71.39   49.70
 -11  -6   0 -102.49   48.00
  11   6   0  -72.79   60.39
  -6   7   0    4.40    8.00
  -5   7   0   -1.30    9.00
  -5   7   0   17.40   11.50
  -4   7   0   47.60   13.80
  -4   7   0   68.09   13.00
  -3   7   0    8.20    1.50
  -3   7   0   11.50   12.30
   2  -7   0  211.38   20.70
  -2   7   0  209.68   24.10
   1  -7   0  -13.70   11.70
  -1   7   0   18.80   14.70
   0  -7   0   69.09   15.40
   0   7   0   50.49   17.20
  -1  -7   0   17.50   13.90
  -2  -7   0   29.50   17.90
   2   7   0   57.39   22.90
  -3  -7   0   82.09   23.70
   3   7   0   10.40   22.30
  -4  -7   0  403.36   43.10
   4   7   0  486.65   49.60
  -5  -7   0   29.80   26.90
   5   7   0   22.50   28.90
  -6  -7   0  105.89   32.80
   6   7   0  171.18   39.60
  -7  -7   0   24.20   34.10
   7   7   0    8.40   44.20
  -8  -7   0  -24.50   33.10
   8   7   0  -45.50   40.80
  -9  -7   0   -1.60   40.70
   9   7   0  -77.59   49.70
 -10  -7   0  -12.90   48.50
  10   7   0   29.70   59.69
 -11  -7   0  -10.90   73.59
  11   7   0 -148.39   78.89
  -6   8   0    2.10    9.50
  -6   8   0    7.80   10.00
  -5   8   0   20.40   15.00
  -5   8   0   13.40   12.40
  -4   8   0   20.00   14.00
  -4   8   0  -18.30   14.70
  -3   8   0   13.50   16.10
  -3   8   0    5.50    1.40
  -3   8   0   32.20   15.90
   2  -8   0   45.30   15.30
  -2   8   0   41.50   17.10
   1  -8   0   38.70   15.30
  -1   8   0   65.69   19.90
   0  -8   0   55.29   17.80
   0   8   0  104.49   23.60
  -1  -8   0   19.70   17.40
   1   8   0    7.00   20.40
  -2  -8   0  154.48   27.20
   2   8   0  212.98   32.20
  -3  -8   0  -15.30   22.10
   3   8   0   73.19   28.90
  -4  -8   0   -6.50   24.10
   4   8   0   26.20   30.00
  -5  -8   0   60.29   32.10
   5   8   0   68.99   34.40
  -6  -8   0   14.90   32.40
   6   8   0  -39.20   33.50
  -7  -8   0    5.60   37.00
  -8  -8   0   94.09   43.50
   8   8   0  110.09   50.89
  -9  -8   0  -36.00   45.20
   9   8   0   13.80   58.49
 -10  -8   0   72.49   54.99
  10   8   0 -126.19   65.09
  -6   9   0   48.90   13.50
  -6   9   0   45.40   13.60
  -5   9   0    8.90   17.40
  -5   9   0   30.90   16.30
  -4   9   0   30.30   18.30
  -4   9   0   34.40    2.10
  -4   9   0   59.59   20.00
  -3   9   0  -15.50   18.90
  -3   9   0    7.10    1.60
  -3   9   0   13.00   19.40
   2  -9   0   31.30   17.80
  -2   9   0   37.80   21.20
   1  -9   0    4.10   17.40
  -1   9   0   39.70   22.90
   0  -9   0   80.29   21.80
   0   9   0  107.59   26.70
   1   9   0  339.07   41.80
  -2  -9   0   50.39   26.40
   2   9   0   -0.20   26.70
  -3  -9   0   71.09   29.30
   3   9   0   40.10   33.50
  -4  -9   0   24.10   28.70
   4   9   0  -24.40   35.10
  -5  -9   0    8.70   32.70
   5   9   0  -65.49   36.20
  -6  -9   0    2.50   36.20
   6   9   0   20.60   41.30
   7   9   0  145.79   73.99
  -8  -9   0   31.00   45.90
   8   9   0  -35.70   56.89
  -9  -9   0   10.90   54.99
   9   9   0   70.09   68.29
  -6  10   0    3.10   16.30
  -6  10   0   28.50   17.00
  -5  10   0   25.60   21.40
  -5  10   0   -1.70   30.30
  -4  10   0    1.70   22.10
  -4  10   0    6.10    1.80
  -4  10   0   18.40   22.10
  -3  10   0   31.10    2.30
  -3  10   0   -6.20   23.20
  -3  10   0   74.29   25.30
   2 -10   0  -22.30   18.70
  -2  10   0   31.90   25.50
   1 -10   0   37.10   21.40
  -1  10   0   41.80   28.80
   0 -10   0  -30.70   22.50
   0  10   0  -26.70   27.00
  -2 -10   0  -40.20   26.20
   2  10   0   30.00   35.60
  -3 -10   0   28.70   30.70
   3  10   0  -26.90   36.30
  -4 -10   0   21.20   34.70
   4  10   0    3.90   39.00
  -5 -10   0   -5.50   37.60
   5  10   0    0.50   42.40
  -6 -10   0   -2.90   40.00
   6  10   0   -8.90   48.80
  -7 -10   0  -57.69   78.99
   7  10   0   13.80   52.49
  -6  11   0   -2.30   19.60
  -6  11   0   34.70   20.00
  -5  11   0  -11.00   25.60
  -5  11   0   27.00   24.90
  -4  11   0    2.20   27.40
  -4  11   0   28.80    2.60
  -4  11   0   48.00   27.60
  -3  11   0   -0.90    2.20
  -3  11   0  -19.50   28.10
  -3  11   0   47.90   29.80
  -2  11   0   50.09   31.90
   1 -11   0   13.30   24.00
  -1  11   0    3.30   32.00
   0 -11   0   79.09   26.90
   0  11   0   15.90   34.50
  -1 -11   0  -79.59   35.10
   1  11   0   22.40   36.40
  -2 -11   0    7.50   28.80
   2  11   0  -21.40   38.50
  -3 -11   0  -11.90   34.30
   3  11   0  -15.70   42.10
  -4 -11   0   75.39   41.00
   4  11   0   20.10   46.60
  -6  12   0    6.60   24.40
  -5  12   0   -9.80   28.70
  -4  12   0   79.69   55.09
  -3  12   0   21.80    2.70
  -3  12   0   17.70   34.50
  -2  12   0   20.70   35.80
   1 -12   0   19.10   31.20
  -1  12   0   26.20   36.10
   0 -12   0   -4.40   33.10
  -4  13   0   10.10    2.30
  -3  13   0   -4.60    2.40
  -3  13  -1    1.40    2.30
   0 -12   1   13.90   31.10
  -1  12  -1  -11.50   34.00
   1 -12   1  -44.90   27.70
  -2  12  -1  -25.80   32.90
  -3  12  -1   -6.50   32.50
  -3  12  -1   -4.40    2.20
  -4  12  -1    7.50   31.20
  -5  12  -1    9.20   28.00
   4  11  -1  -29.60   47.80
  -4 -11   1    3.30   38.80
   3  11  -1   19.20   42.90
  -3 -11   1  -34.30   33.60
   2  11  -1   28.90   39.60
  -2 -11   1  -41.30   29.10
   1  11  -1   -1.00   34.30
  -1 -11   1   32.40   28.50
   0  11  -1   19.70   36.60
   0 -11   1  -26.70   25.00
  -1  11  -1    4.00   31.60
   1 -11   1   66.19   26.70
  -2  11  -1    6.70   30.40
   2 -11   1  -26.80   22.60
  -3  11  -1   34.40   29.70
  -3  11  -1    9.00    2.00
  -3  11  -1   24.40   27.90
  -4  11  -1  -11.00   25.10
  -4  11  -1  -41.90   26.40
  -5  11  -1   -2.90   22.40
  -5  11  -1   10.60   22.90
  -7 -10   1   31.10   59.79
   6  10  -1  -28.40   49.90
  -6 -10   1  -21.00   41.90
   5  10  -1   27.80   46.30
  -5 -10   1   14.50   35.90
   4  10  -1   -8.50   39.10
  -4 -10   1  -23.50   32.20
   3  10  -1   -5.60   37.90
  -3 -10   1   -0.20   31.20
   2  10  -1  -10.20   33.60
  -2 -10   1    5.00   27.60
   1  10  -1   53.99   30.10
   0  10  -1  -50.29   27.30
   0 -10   1    9.30   22.00
  -1  10  -1  -19.20   26.10
   1 -10   1   44.00   21.50
  -2  10  -1  -25.50   24.10
   2 -10   1   10.90   19.70
  -3  10  -1   27.80   24.60
  -3  10  -1   12.10   23.20
  -4  10  -1   39.70   22.30
  -4  10  -1   10.50   20.90
  -5  10  -1   37.90   19.60
  -5  10  -1   16.50   19.00
   9   9  -1  -93.09   62.19
  -9  -9   1  -69.39   50.39
   8   9  -1   50.39   57.89
  -8  -9   1  -42.50   45.30
   7   9  -1   15.90   75.19
  -7  -9   1   89.79   43.60
   6   9  -1   -1.00   44.60
  -6  -9   1  -68.99   33.50
   5   9  -1  -14.50   39.50
  -5  -9   1   59.89   33.70
   4   9  -1   -5.10   35.60
  -4  -9   1  -25.40   28.10
   3   9  -1  118.89   35.90
  -3  -9   1   87.99   29.60
   2   9  -1   49.80   31.20
  -2  -9   1   52.59   25.00
   0   9  -1    7.60   23.50
   0  -9   1   44.30   20.70
  -1   9  -1   13.00   22.30
   1  -9   1    3.90   17.50
  -2   9  -1    2.30   20.10
   2  -9   1  -16.90   14.70
  -3   9  -1    7.50   18.90
  -4   9  -1   12.40   17.60
  -4   9  -1   -6.50   16.40
  -5   9  -1   47.60   15.90
  10   8  -1  -40.30   67.09
 -10  -8   1  -60.89   53.69
   9   8  -1  -24.70   57.69
  -9  -8   1  -65.19   45.60
   8   8  -1  -34.90   49.10
  -8  -8   1  -19.80   39.50
   7   8  -1   26.60   44.10
  -7  -8   1   -5.50   35.70
   6   8  -1   24.40   36.40
  -6  -8   1  -75.79   28.90
   5   8  -1   98.39   36.70
  -5  -8   1   83.59   32.60
   4   8  -1   12.50   29.90
  -4  -8   1   10.30   25.70
   3   8  -1   91.19   30.50
  -3  -8   1   71.29   26.20
   2   8  -1  159.38   30.00
  -2  -8   1  129.19   25.40
   1   8  -1  171.88   28.20
   0   8  -1   35.30   20.50
   0  -8   1   80.29   19.30
  -1   8  -1   72.59   20.50
   1  -8   1   41.00   16.50
  -2   8  -1    8.10   16.30
   2  -8   1   48.00   13.90
  -3   8  -1  113.89   18.70
  -4   8  -1   29.60   14.90
  -4   8  -1   25.30   14.40
  -5   8  -1   10.20   11.40
  -5   8  -1    2.90   10.80
  11   7  -1  -65.49   71.99
 -11  -7   1  -85.99   55.49
  10   7  -1  -25.60   56.89
 -10  -7   1  -13.30   48.30
   9   7  -1  -45.50   49.80
  -9  -7   1    1.30   42.40
   8   7  -1  -26.40   42.70
  -8  -7   1   71.09   38.10
   7   7  -1    2.50   36.30
  -7  -7   1   42.70   33.90
   6   7  -1  168.38   41.20
  -6  -7   1   99.69   33.70
   5   7  -1   -2.90   28.80
  -5  -7   1    6.40   26.00
   4   7  -1  202.98   34.00
  -4  -7   1  231.58   32.50
   3   7  -1   38.20   23.30
  -3  -7   1  -15.50   19.50
   2   7  -1   40.50   21.40
  -2  -7   1    8.70   18.00
   1   7  -1   13.50   17.80
   0   7  -1   69.59   20.30
   0  -7   1   62.59   16.40
  -1   7  -1  113.69   19.20
   1  -7   1  104.89   16.00
  -2   7  -1  154.28   19.10
   2  -7   1  176.48   19.10
  -3   7  -1   -1.60    1.40
  -3   7  -1    9.90   11.90
  -4   7  -1   25.90   11.60
  -4   7  -1   19.90   10.40
  -5   7  -1   44.00    9.20
  -5   7  -1   40.90    8.50
  11   6  -1   -5.00   64.09
 -11  -6   1  -43.30   49.10
  10   6  -1   22.70   52.19
 -10  -6   1   77.49   43.50
   9   6  -1   -4.80   45.10
  -9  -6   1   15.20   38.30
   8   6  -1  -19.40   40.80
  -8  -6   1   54.79   34.60
   7   6  -1  110.39   37.20
  -7  -6   1  137.29   34.90
   6   6  -1   38.80   30.50
  -6  -6   1   53.49   28.30
   5   6  -1  217.48   34.30
  -5  -6   1  246.48   33.70
   4   6  -1   99.59   26.80
  -4  -6   1  130.69   26.80
   3   6  -1   91.69   23.90
  -3  -6   1  106.49   23.00
   2   6  -1  119.29   22.80
  -2  -6   1  100.59   20.30
   1   6  -1   50.29   21.30
  -1  -6   1   55.29   14.80
   0   6  -1   14.10   13.90
   0  -6   1   23.90   11.70
  -1   6  -1  556.74   34.50
   1  -6   1  538.95   31.20
  -2   6  -1   -6.60   10.00
   2  -6   1    7.50    8.90
  -3   6  -1   15.80    9.50
  -3   6  -1   11.60    9.80
  -4   6  -1  100.29   11.70
  -4   6  -1  105.69   12.70
  11   5  -1  -96.19   54.09
 -11  -5   1  -32.90   47.20
  10   5  -1   55.29   47.80
 -10  -5   1   25.60   39.60
   9   5  -1  125.39   43.60
  -9  -5   1  105.89   37.70
   8   5  -1   30.90   37.20
  -8  -5   1    3.40   30.30
   7   5  -1    2.30   30.50
  -7  -5   1   43.80   29.60
   6   5  -1   33.80   25.60
  -6  -5   1   15.00   24.60
   5   5  -1   49.99   23.80
  -5  -5   1   -1.20   21.90
   4   5  -1  101.89   23.60
  -4  -5   1   88.59   22.70
   3   5  -1  486.15   40.30
  -3  -5   1  477.35   36.90
   2   5  -1   16.20   16.40
  -2  -5   1   11.30   15.00
   1   5  -1 2397.36  123.09
  -1  -5   1 2487.45  107.89
   0   5  -1  125.69   16.80
   0  -5   1  128.19   16.30
  -1   5  -1   48.30   11.50
   1  -5   1   40.00   10.10
  -2   5  -1  126.89   15.60
   2  -5   1  154.48   13.30
  -3   5  -1  146.09   13.60
  -3   5  -1  139.29   13.20
  -4   5  -1  238.38   14.10
  -4   5  -1  220.78   13.10
  -7   5  -1   60.09    7.70
  -8   5  -1    7.60    7.80
   8  -5   1   16.30    9.40
  -9   5  -1   22.50   10.80
   9  -5   1   26.70   13.30
 -10   5  -1   -5.60   12.90
  10  -5   1   14.60   16.30
 -11   5  -1   33.90   16.10
  11  -5   1   65.69   23.00
  11   4  -1   14.30   51.69
 -11  -4   1  -26.10   40.70
  10   4  -1   16.00   41.10
 -10  -4   1   12.10   36.70
   9   4  -1   15.70   35.10
  -9  -4   1   11.00   30.80
   8   4  -1  109.09   35.50
  -8  -4   1   82.19   31.30
   7   4  -1  100.09   31.40
  -7  -4   1   97.89   28.40
   6   4  -1   41.20   24.70
  -6  -4   1   23.20   23.20
   5   4  -1   47.30   22.00
  -5  -4   1   45.90   20.40
   4   4  -1   55.39   19.70
  -4  -4   1   78.39   20.30
   3   4  -1  441.96   35.30
  -3  -4   1  469.15   33.90
   2   4  -1  934.41   49.50
  -2  -4   1  914.21   48.20
   1   4  -1  336.77   25.50
  -1  -4   1  336.97   23.90
  -1   4  -1  159.28   15.00
   1  -4   1  156.28   13.20
  -2   4  -1  254.47   16.10
   2  -4   1  272.87   14.70
  -3   4  -1  242.48   13.40
  -3   4  -1  265.67   14.50
  -4   4  -1  177.48    9.00
  -4   4  -1  168.38    9.70
  -5   4  -1   63.59    7.90
   5  -4   1   72.49    7.80
  -6   4  -1   99.89   11.50
   6  -4   1   92.29   10.70
  -7   4  -1  116.59   14.80
   7  -4   1  111.99   14.50
  -8   4  -1  209.08   20.80
   8  -4   1  221.38   25.50
  -9   4  -1   59.79   15.20
   9  -4   1  108.99   21.20
 -10   4  -1   22.30   17.50
  10  -4   1  -23.70   21.20
 -11   4  -1  -24.10   19.10
  11  -4   1   39.60   28.20
  11   3  -1   -2.90   45.70
 -11  -3   1  -19.00   38.40
  10   3  -1  -11.70   36.60
 -10  -3   1    3.70   32.90
   9   3  -1   -2.10   31.90
  -9  -3   1   32.90   29.00
   8   3  -1   56.99   29.50
  -8  -3   1   41.20   25.50
   7   3  -1   48.50   27.20
  -7  -3   1   63.99   24.70
   6   3  -1  160.68   27.80
  -6  -3   1  217.98   28.60
   5   3  -1   21.80   18.90
  -5  -3   1   16.50   18.40
   4   3  -1 1374.76   70.39
  -4  -3   1 1381.16   68.99
   3   3  -1    0.20   13.40
  -3  -3   1   -0.60   12.20
   2   3  -1 1854.31   84.69
  -2  -3   1 1892.41   83.79
   1   3  -1  269.67   21.50
  -1  -3   1  265.57   20.00
  -1   3  -1 2628.94  107.69
   1  -3   1 2559.34  106.99
  -2   3  -1  157.08    9.90
  -2   3  -1  183.88   10.10
  -3   3  -1   14.50    2.60
  -3   3  -1    9.30    3.20
  -4   3  -1   35.50    5.60
   4  -3   1   36.60    6.40
  -5   3  -1  118.09   12.40
   5  -3   1  112.39   13.80
  -6   3  -1   36.20    9.60
   6  -3   1   45.70   11.70
  -7   3  -1   89.79   13.80
   7  -3   1   87.99   16.10
  -8   3  -1   25.10   13.80
   8  -3   1   31.40   16.60
  -9   3  -1   -2.40   15.30
   9  -3   1   -9.90   19.20
 -10   3  -1   -9.10   19.10
  10  -3   1  -27.80   22.90
 -11   3  -1   60.49   24.00
  11  -3   1   37.40   29.70
  11   2  -1   35.90   39.40
 -11  -2   1   -3.70   34.70
  10   2  -1   38.40   35.20
 -10  -2   1   39.40   32.40
   9   2  -1  -22.90   29.00
  -9  -2   1   10.20   26.30
   8   2  -1  -26.10   22.60
  -8  -2   1    4.60   23.10
   7   2  -1    0.10   20.90
  -7  -2   1    0.00   20.40
   6   2  -1   26.20   19.80
  -6  -2   1   15.50   17.60
   5   2  -1 2354.46  107.69
  -5  -2   1 2293.47  106.39
   4   2  -1   84.29   18.60
  -4  -2   1   73.29   16.60
   3   2  -1 1659.53   75.89
  -3  -2   1 1624.64   74.99
   2   2  -1   31.80   11.60
  -2  -2   1   63.19   12.20
   1   2  -1 9065.59  368.26
  -1  -2   1 9002.70  367.96
   0   2  -1  548.85   26.50
  -1   2  -1 2257.87   90.69
   1  -2   1 2168.08   90.29
  -3   2  -1  173.38   10.50
   3  -2   1  187.78   11.20
  -4   2  -1   88.19   10.60
   4  -2   1   68.59    9.50
  -5   2  -1 1060.19   48.20
   5  -2   1 1031.80   49.40
  -6   2  -1   13.40   10.40
   6  -2   1   12.10   11.40
  -7   2  -1    0.80   14.10
   7  -2   1   -7.90   14.50
  -8   2  -1   -4.20   14.20
   8  -2   1   21.30   17.90
  -9   2  -1   14.30   17.40
   9  -2   1   -5.50   19.30
 -10   2  -1    7.90   20.40
  10  -2   1   19.20   37.60
  11  -2   1   13.10   29.90
  11   1  -1    8.50   36.70
 -11  -1   1   38.10   47.00
  10   1  -1   30.90   31.00
 -10  -1   1  -11.80   27.60
   9   1  -1   -0.30   25.10
  -9  -1   1   23.30   24.40
   8   1  -1   10.30   23.50
  -8  -1   1   31.90   22.00
   7   1  -1   85.09   22.90
  -7  -1   1   38.00   19.40
   6   1  -1   39.40   18.20
  -6  -1   1   12.70   16.20
   5   1  -1  627.54   42.10
  -5  -1   1  695.93   41.60
   4   1  -1  168.28   20.60
  -4  -1   1  141.19   18.10
   3   1  -1   37.00   12.30
  -3  -1   1   18.30   10.90
   2   1  -1  133.89   15.00
  -2  -1   1  115.59   13.20
   1   1  -1 2383.56  101.09
  -1  -1   1 2447.06  100.79
  -2   1  -1 1470.05   60.09
   2  -1   1 1437.06   60.39
  -3   1  -1  765.92   34.50
   3  -1   1  764.52   35.20
  -4   1  -1 1682.93   72.09
   4  -1   1 1637.74   72.79
  -5   1  -1  420.86   26.70
   5  -1   1  437.66   28.30
  -6   1  -1   77.49   14.50
   6  -1   1   65.79   15.90
   7  -1   1    4.80   16.10
  -8   1  -1    6.50   16.90
   8  -1   1   28.10   18.40
  -9   1  -1  -38.30   17.60
   9  -1   1   36.40   21.70
 -10   1  -1   -4.30   22.30
  10  -1   1   35.70   25.60
 -11   1  -1    4.40   27.30
  11  -1   1   24.80   34.10
  11   0  -1   44.30   35.90
 -11   0   1   42.10   33.10
  10   0  -1   57.59   30.00
 -10   0   1   18.80   27.80
   9   0  -1   30.80   25.10
  -9   0   1   80.59   26.20
   8   0  -1  110.79   25.30
  -8   0   1  120.49   24.30
   7   0  -1   63.49   36.40
  -7   0   1   29.40   17.50
   6   0  -1  146.99   21.30
  -6   0   1  129.79   21.00
   5   0  -1   28.40   14.70
  -5   0   1   25.80   13.40
   4   0  -1  157.78   19.90
  -4   0   1  152.38   18.50
   3   0  -1   25.30    9.80
  -3   0   1   23.90    9.40
   2   0  -1  893.61   41.10
  -1   0   1    5.50    3.50
  -1   0  -1   -2.50    2.30
  -2   0  -1 6154.08  246.28
   2   0   1 5946.80  246.28
  -3   0  -1   24.40    7.60
   3   0   1   19.00    8.00
  -4   0  -1  545.15   30.30
   4   0   1  558.04   31.30
  -5   0  -1  121.29   15.90
   5   0   1   88.89   15.50
  -6   0  -1  159.88   21.30
   6   0   1  172.48   21.60
  -7   0  -1   92.49   20.90
  -8   0  -1   77.79   21.10
   8   0   1   96.19   23.60
  -9   0  -1   75.29   24.10
   9   0   1   35.70   22.50
 -10   0  -1  -19.80   24.20
  10   0   1   22.10   26.30
 -11   0  -1    8.10   30.10
  11   0   1   26.00   32.60
  11  -1  -1  -12.60   33.50
 -11   1   1   -0.10   29.60
  10  -1  -1    2.30   25.70
 -10   1   1   -1.20   26.00
   9  -1  -1   36.00   24.10
  -9   1   1  101.29   23.30
   8  -1  -1   91.99   24.40
  -8   1   1   67.99   21.10
   7  -1  -1   68.09   29.80
  -7   1   1   57.99   20.80
   6  -1  -1  356.66   29.80
  -6   1   1  321.17   27.90
   5  -1  -1  307.97   25.30
  -5   1   1  273.67   24.00
   4  -1  -1  745.13   38.50
  -4   1   1  754.32   38.10
   3  -1  -1  223.08   17.00
  -3   1   1  244.28   17.20
   2  -1  -1   86.19   10.10
  -2   1   1   60.39    8.00
   1  -1  -1 3057.19  125.89
  -1   1   1 3097.69  125.99
  -1  -1  -1  827.12   36.40
   1   1   1  821.42   36.50
  -2  -1  -1 2696.43  111.49
   2   1   1 2618.04  111.69
  -3  -1  -1   17.70    9.50
   3   1   1    8.20    9.50
  -4  -1  -1  639.94   35.80
   4   1   1  626.34   35.80
  -5  -1  -1   72.99   17.20
   5   1   1   73.79   16.50
  -6  -1  -1    1.20   14.90
   6   1   1   -3.10   14.90
  -7  -1  -1   61.59   19.60
  -8  -1  -1  177.38   27.90
   8   1   1  210.98   31.10
  -9  -1  -1  179.88   30.70
   9   1   1  192.38   33.70
 -10  -1  -1   27.30   28.10
  10   1   1   17.20   29.80
 -11  -1  -1   -5.40   31.80
  11   1   1   31.90   37.70
  11  -2  -1   -9.60   30.50
 -11   2   1   10.20   27.00
  10  -2  -1    4.70   26.50
 -10   2   1   11.80   22.00
   9  -2  -1   23.70   21.80
  -9   2   1   12.40   19.40
   8  -2  -1   10.90   19.00
  -8   2   1   16.60   16.60
   7  -2  -1   19.40   16.20
  -7   2   1   -4.90   22.10
   6  -2  -1  119.99   18.00
  -6   2   1  118.29   17.10
   5  -2  -1 1670.13   76.79
  -5   2   1 1727.33   76.19
   4  -2  -1   84.49   11.60
  -4   2   1   95.69   11.80
   3  -2  -1  926.31   43.00
  -3   2   1  969.30   43.20
   2  -2  -1 1119.39   48.30
  -2   2   1 1111.09   48.80
  -1   2   1 5308.17  213.38
  -1   2   1 5513.05  214.38
  -1   2   1 4960.40  211.48
   0   2   1  116.79   10.70
  -1  -2  -1 1373.06   59.49
   1   2   1 1350.56   59.89
  -2  -2  -1   55.89   11.10
   2   2   1   47.50   11.00
  -3  -2  -1 2261.87   97.39
   3   2   1 2183.08   97.69
  -4  -2  -1   30.20   13.30
   4   2   1    5.50   13.30
  -5  -2  -1  531.75   35.90
   5   2   1  480.25   37.20
  -6  -2  -1    9.20   17.50
   6   2   1  -23.50   16.40
  -7  -2  -1   -6.90   18.30
  -8  -2  -1   21.60   22.20
   8   2   1   18.10   24.40
  -9  -2  -1   51.29   26.60
   9   2   1   22.80   29.50
 -10  -2  -1  -22.10   26.40
  10   2   1   16.40   33.20
 -11  -2  -1  -19.20   33.90
  11   2   1   -7.20   39.90
  11  -3  -1   73.79   32.80
 -11   3   1  -23.20   24.50
  10  -3  -1   32.10   25.80
 -10   3   1   22.30   22.70
   9  -3  -1   47.20   21.90
  -9   3   1   45.70   19.40
   8  -3  -1    9.20   18.10
  -8   3   1   -8.90   15.40
   7  -3  -1   -3.70   14.50
  -7   3   1   31.20   14.00
   6  -3  -1   31.40   13.00
  -6   3   1   32.90   12.20
   5  -3  -1   10.60   10.50
  -5   3   1   24.10   10.40
   4  -3  -1  820.02   39.10
  -4   3   1  810.12   39.30
   3  -3  -1   21.70    6.60
  -3   3   1   47.40    8.80
  -2   3   1  980.40   41.60
  -2   3   1  852.11   39.50
   1  -3  -1 9981.80  404.56
  -1   3   1 9999.00  404.86
   0   3   1  380.76   21.60
  -1  -3  -1 2647.54  112.09
   1   3   1 2631.44  112.39
  -2  -3  -1 1754.22   78.89
   2   3   1 1789.92   79.89
  -3  -3  -1  221.58   22.00
   3   3   1  228.28   23.10
  -4  -3  -1 1818.32   83.79
   4   3   1 1727.43   84.19
  -5  -3  -1  306.97   31.30
   5   3   1  353.46   32.70
  -6  -3  -1   48.60   21.70
   6   3   1   82.99   22.80
  -7  -3  -1  -13.10   20.90
   7   3   1   32.30   31.70
  -8  -3  -1   -1.90   23.70
   8   3   1   17.60   28.00
  -9  -3  -1   31.80   28.70
   9   3   1   41.40   33.50
 -10  -3  -1   48.30   32.90
  10   3   1    4.10   37.50
 -11  -3  -1   29.80   37.10
  11   3   1  -81.19   43.30
  11  -4  -1  -17.90   29.00
 -11   4   1   10.10   23.00
  10  -4  -1   90.59   26.50
 -10   4   1   58.39   21.70
   9  -4  -1   11.50   20.40
  -9   4   1   24.30   17.60
   8  -4  -1   66.49   19.20
  -8   4   1   47.50   16.50
   7  -4  -1   47.20   15.50
  -7   4   1   40.30   13.70
   6  -4  -1   22.90   11.70
  -6   4   1   24.50   11.80
   5  -4  -1   29.30    9.50
  -5   4   1    6.00    9.40
   4  -4  -1  587.34   28.80
  -4   4   1  545.85   30.10
  -3   4   1   65.09    8.10
  -3   4   1   56.09   10.00
  -2   4   1  886.11   39.70
  -2   4   1  843.12   40.90
  -2   4   1  874.51   35.00
   1  -4  -1  304.87   18.00
  -1   4   1  255.37   18.60
  -1  -4  -1   25.50   10.70
   1   4   1   39.50   12.20
  -2  -4  -1 1058.39   52.89
   2   4   1 1039.70   53.89
  -3  -4  -1  402.86   32.10
   3   4   1  474.85   34.10
  -4  -4  -1  213.28   27.20
   4   4   1  265.07   29.00
  -5  -4  -1  362.36   34.80
   5   4   1  274.47   33.40
  -6  -4  -1  117.79   25.80
   6   4   1   92.39   25.40
  -7  -4  -1  -39.70   21.50
   7   4   1    3.40   31.10
  -8  -4  -1   64.59   27.90
   8   4   1   82.89   33.20
  -9  -4  -1   24.20   28.40
   9   4   1  -17.80   34.10
 -10  -4  -1   45.10   36.40
  10   4   1   24.30   41.30
 -11  -4  -1   58.19   42.40
  11   4   1   50.59   49.10
  11  -5  -1   19.10   26.20
 -11   5   1   -9.00   20.50
  10  -5  -1  -24.80   20.70
 -10   5   1  -18.80   18.30
   9  -5  -1  -19.80   16.60
  -9   5   1   23.60   16.20
   8  -5  -1   31.50   15.50
  -8   5   1   58.09   15.10
   7  -5  -1  176.08    7.50
   7  -5  -1  208.28   20.70
  -7   5   1  179.38   20.50
   6  -5  -1   24.20   10.10
  -5   5   1   89.19   13.40
  -4   5   1  116.29   12.50
  -4   5   1   83.49   13.80
  -3   5   1   22.40    8.60
  -3   5   1   30.10   10.80
  -2   5   1   51.39   11.70
  -2   5   1   36.70   10.10
   1  -5  -1  381.06   23.90
  -1   5   1  390.96   25.40
  -1  -5  -1  532.45   33.30
   1   5   1  542.95   35.50
  -2  -5  -1  177.08   21.40
   2   5   1  186.38   23.30
  -3  -5  -1  612.14   41.30
   3   5   1  660.53   44.00
  -4  -5  -1  315.97   33.50
   4   5   1  292.97   36.80
  -5  -5  -1   79.49   23.00
   5   5   1   95.19   24.40
  -6  -5  -1   42.00   23.80
   6   5   1   60.39   25.10
  -7  -5  -1  242.88   34.80
  -8  -5  -1   33.90   29.70
   8   5   1  -24.60   31.60
  -9  -5  -1  -29.20   32.00
   9   5   1   57.59   38.50
 -10  -5  -1   15.90   40.30
  10   5   1  -69.29   42.90
  11   5   1   49.90   56.39
  11  -6  -1    5.80   21.20
 -11   6   1    1.80   16.00
  10  -6  -1   -2.30   15.90
 -10   6   1   16.20   15.10
   9  -6  -1    4.70   13.30
  -9   6   1   10.00   13.30
  -8   6   1   27.10   12.80
  -7   6   1   56.49   12.50
  -7   6   1   39.80    9.70
  -6   6   1   49.70    9.50
  -6   6   1   45.80   12.30
  -5   6   1  255.87   17.90
  -4   6   1   42.40   10.00
  -4   6   1   24.50   12.10
  -3   6   1  270.97   23.30
  -3   6   1  254.27   10.70
  -3   6   1  257.27   20.30
  -2   6   1  -10.50   10.40
   1  -6  -1  351.36   25.50
  -1   6   1  385.26   27.90
   0   6   1  119.19   18.10
  -1  -6  -1   25.00   14.50
   1   6   1   24.90   16.10
  -2  -6  -1    9.20   15.80
   2   6   1   32.00   18.70
  -3  -6  -1  364.66   34.00
   3   6   1  294.67   34.70
  -4  -6  -1  128.49   25.70
   4   6   1  193.48   29.80
  -5  -6  -1  261.67   33.10
   5   6   1  204.88   34.20
  -6  -6  -1  -18.50   23.90
   6   6   1   10.50   28.40
  -7  -6  -1    3.80   29.40
  -8  -6  -1    7.70   31.30
   8   6   1   44.30   36.00
  -9  -6  -1   38.60   38.20
   9   6   1   -3.60   44.00
 -10  -6  -1    9.80   41.90
  10   6   1  -63.59   49.20
 -11  -6  -1  -76.29   46.60
  11   6   1   34.70   63.29
  -7   7   1  -20.40   10.80
  -7   7   1   17.40   11.30
  -6   7   1   58.19   11.20
  -6   7   1   50.69   13.80
  -5   7   1   33.00   14.30
  -5   7   1   26.10   10.80
  -4   7   1   63.19   15.40
  -4   7   1   71.19   13.10
  -3   7   1   99.19   20.30
  -3   7   1  106.19    4.50
  -3   7   1   88.99   15.50
  -2   7   1   89.99   16.50
   1  -7  -1  211.58   22.40
  -1   7   1  181.78   22.20
   0  -7  -1   18.50   13.90
   0   7   1    0.90   15.10
  -1  -7  -1   81.49   18.20
   1   7   1   78.89   21.50
  -2  -7  -1  185.78   25.60
   2   7   1  207.38   29.00
  -3  -7  -1   86.09   23.50
   3   7   1  100.99   26.60
  -4  -7  -1  214.48   32.40
   4   7   1  217.58   34.40
  -5  -7  -1    0.30   24.20
   5   7   1   30.10   27.80
  -6  -7  -1   58.89   30.70
   6   7   1   81.59   34.50
  -7  -7  -1   -1.50   42.90
   7   7   1   68.29   66.09
  -8  -7  -1   13.70   33.90
   8   7   1  -47.00   38.80
  -9  -7  -1   -4.80   39.10
   9   7   1  -42.30   47.00
 -10  -7  -1  -24.70   46.10
  10   7   1  -92.29   56.19
  -7   8   1    2.00   10.50
  -7   8   1   -2.30    9.30
  -6   8   1    9.40   13.40
  -6   8   1   -6.30   14.70
  -5   8   1   16.60   16.20
  -5   8   1   17.40   13.70
  -4   8   1    1.10   14.40
  -4   8   1   22.10   16.40
  -3   8   1   33.20   17.40
  -3   8   1   -3.30   15.20
  -3   8   1    4.20    1.50
  -2   8   1   66.39   19.00
   1  -8  -1    1.60   13.80
  -1   8   1    2.40   18.10
   0  -8  -1  123.39   19.50
   0   8   1  121.59   23.80
  -1  -8  -1    3.70   16.70
   1   8   1   -9.70   21.90
  -2  -8  -1   80.19   23.30
   2   8   1   21.10   25.30
  -3  -8  -1   53.29   25.40
   3   8   1   62.79   27.10
  -4  -8  -1   10.60   26.00
   4   8   1   -6.10   29.00
  -5  -8  -1   80.89   30.90
   5   8   1    6.80   31.60
  -6  -8  -1   63.79   33.50
   6   8   1   16.60   37.00
   7   8   1  -73.29   38.40
  -8  -8  -1  -82.99   36.50
   8   8   1   77.29   48.10
  -9  -8  -1   33.30   48.80
   9   8   1  -14.30   56.19
 -10  -8  -1 -102.89   54.29
  10   8   1   -7.40   66.19
  -7   9   1    5.30   11.20
  -6   9   1   41.90   18.20
  -6   9   1   11.00   15.10
  -5   9   1   30.40   19.50
  -5   9   1   23.50   17.10
  -4   9   1  -34.90   19.20
  -4   9   1   -8.10   17.30
  -3   9   1   15.10   20.90
  -3   9   1   18.70    2.00
  -3   9   1   23.10   19.00
  -2   9   1   24.90   20.90
   1  -9  -1   34.50   18.60
  -1   9   1   88.79   24.30
   0  -9  -1   -1.10   18.50
   0   9   1  -62.49   21.40
  -1  -9  -1  112.49   22.60
   1   9   1  119.79   36.20
  -2  -9  -1    7.70   24.40
   2   9   1   26.80   29.10
  -3  -9  -1   43.80   27.20
   3   9   1   47.50   34.40
  -4  -9  -1   -0.30   30.10
   4   9   1  -32.00   31.80
  -5  -9  -1    8.20   33.80
   5   9   1  -15.10   35.70
  -6  -9  -1   -1.00   36.00
   6   9   1    6.00   43.20
  -7  -9  -1   39.80   44.80
   7   9   1   19.50   47.90
  -8  -9  -1  -60.49   43.40
   8   9   1   -0.80   53.19
  -9  -9  -1 -102.79   54.59
   9   9   1  -35.60   61.79
  -6  10   1  -14.70   19.80
  -6  10   1   -1.60   19.10
  -5  10   1  -14.90   21.00
  -5  10   1   -8.00   22.80
  -4  10   1  -50.09   21.80
  -4  10   1    1.60    1.70
  -4  10   1    2.50   24.40
  -3  10   1   39.70    2.70
  -3  10   1    9.90   24.40
  -3  10   1   36.00   24.80
  -2  10   1  -16.20   24.80
   1 -10  -1   11.10   21.50
  -1  10   1   27.50   26.10
   0 -10  -1  149.59   27.90
   0  10   1  147.89   33.90
   1  10   1   44.20   31.30
  -2 -10  -1  -38.20   24.10
   2  10   1  107.99   39.20
  -3 -10  -1  -17.80   30.10
   3  10   1  -31.90   34.10
  -4 -10  -1  -24.20   33.60
   4  10   1   -0.40   39.70
  -5 -10  -1  106.09   39.20
   5  10   1    9.70   45.50
  -6 -10  -1   -7.20   39.80
   6  10   1   34.70   50.19
  -7 -10  -1   -1.20   46.30
   7  10   1   15.60   51.19
  -6  11   1   45.40   23.50
  -6  11   1  -19.70   22.40
  -5  11   1   28.50   27.40
  -5  11   1  -19.00   25.10
  -4  11   1   30.80   27.20
  -4  11   1    2.40    2.10
  -4  11   1  -19.00   29.10
  -3  11   1   73.99   30.40
  -3  11   1   12.50   31.10
  -3  11   1   14.80    2.50
  -2  11   1   56.69   31.40
   1 -11  -1   11.80   25.10
  -1  11   1   -1.80   32.60
   0 -11  -1    8.50   26.70
   0  11   1  -32.90   33.50
  -2 -11  -1  -29.80   28.90
   2  11   1    1.50   39.90
  -3 -11  -1  -15.50   34.00
   3  11   1  -14.50   42.10
  -4 -11  -1   35.00   40.00
   4  11   1   32.90   46.70
  -6  12   1   -4.80   27.10
  -5  12   1  -22.00   30.50
  -4  12   1   16.10   37.90
  -4  12   1    1.20    2.30
  -3  12   1    3.40    2.70
  -3  12   1   30.20   32.50
  -2  12   1   36.00   33.90
   1 -12  -1   -4.90   30.20
  -1  12   1  -43.80   42.10
   0 -12  -1   33.10   34.70
  -4  13   1    3.70    3.00
  -3  13   1   -1.50    2.60
  -5  13  -2    3.70   30.80
   0 -12   2  -30.60   32.30
  -1  12  -2  -58.29   35.30
   1 -12   2   22.90   30.20
  -2  12  -2  -37.70   34.80
   2 -12   2    0.60   28.20
  -3  12  -2  -21.50   32.80
  -4  12  -2    3.40   29.90
  -5  12  -2   11.50   26.50
   4  11  -2  -37.20   50.59
  -4 -11   2   15.70   41.20
   3  11  -2   36.30   44.00
  -3 -11   2  -75.99   33.30
  -2 -11   2  -14.40   28.20
   1  11  -2    4.10   36.20
  -1 -11   2   19.50   29.60
   0  11  -2   77.99   36.90
   0 -11   2   69.79   29.00
  -1  11  -2   -8.40   31.40
   1 -11   2    5.90   24.80
  -2  11  -2   35.10   30.70
   2 -11   2  101.79   24.30
  -3  11  -2  -22.40   27.30
  -4  11  -2   34.10   41.80
  -4  11  -2   11.30   24.20
  -5  11  -2   26.50   21.50
  -5  11  -2   29.80   20.50
   7  10  -2  -77.69   78.79
  -7 -10   2   43.00   54.19
   6  10  -2  -17.60   51.29
  -6 -10   2  -15.60   42.10
   5  10  -2   49.20   46.40
  -5 -10   2   84.49   40.30
   4  10  -2  -18.00   41.20
  -4 -10   2   37.50   34.50
   3  10  -2   -9.30   37.40
  -3 -10   2   31.80   32.50
   2  10  -2  237.78   44.10
  -2 -10   2  238.98   34.90
   1  10  -2   18.40   31.80
  -1 -10   2  -10.50   22.10
   0  10  -2    0.30   28.80
   0 -10   2   -7.70   21.90
  -1  10  -2  163.08   31.60
   1 -10   2   62.49   22.70
  -2  10  -2   13.90   24.60
   2 -10   2  -14.20   18.40
  -3  10  -2   56.99   25.30
  -4  10  -2   37.10   20.20
  -4  10  -2   -7.20   20.10
  -5  10  -2   13.90   16.90
  -5  10  -2   18.90   16.00
   9   9  -2  -95.39   61.69
  -9  -9   2   66.29   54.99
   8   9  -2  -38.00   57.39
  -8  -9   2   26.00   44.70
   7   9  -2   23.00   51.79
  -7  -9   2  101.99   42.40
   6   9  -2   38.40   44.50
  -6  -9   2   31.40   39.70
   5   9  -2  122.49   43.10
  -5  -9   2   69.59   33.90
   4   9  -2   11.70   34.10
  -4  -9   2    7.30   29.30
   3   9  -2   49.30   33.20
  -3  -9   2   44.70   28.40
   2   9  -2   20.90   28.20
  -2  -9   2    3.40   22.80
   1   9  -2   -6.80   22.70
   0   9  -2  -13.50   23.90
   0  -9   2    4.40   19.20
  -1   9  -2    7.10   22.50
   1  -9   2    0.50   17.40
  -2   9  -2  -17.90   20.70
   2  -9   2    5.30   15.30
  -3   9  -2   42.30   19.10
  -4   9  -2   13.70   15.70
  -4   9  -2    1.10   16.30
  -5   9  -2   14.20   12.80
  -5   9  -2   -0.70   11.70
  10   8  -2   60.89   66.39
 -10  -8   2   91.99   56.39
   9   8  -2  -90.49   56.49
  -9  -8   2  -39.00   47.20
   8   8  -2   35.30   55.69
  -8  -8   2  -10.40   39.80
   7   8  -2    8.20   46.30
  -7  -8   2   62.29   37.80
   6   8  -2   32.20   40.00
  -6  -8   2   58.69   35.70
   5   8  -2  -44.10   31.00
  -5  -8   2   19.00   31.20
   4   8  -2  120.89   33.10
  -4  -8   2   80.89   28.70
   3   8  -2   47.90   29.60
  -3  -8   2   -5.50   23.60
   2   8  -2   20.40   24.80
  -2  -8   2   20.60   20.80
   0   8  -2   35.80   21.40
   0  -8   2   41.60   17.30
  -1   8  -2   56.49   20.60
   1  -8   2   27.80   15.20
  -2   8  -2   39.80   17.80
   2  -8   2   36.60   14.20
  -3   8  -2    9.50   15.00
  -4   8  -2   12.30   13.00
  -4   8  -2    9.70   12.80
  11   7  -2  -96.29   70.49
 -11  -7   2  -26.00   55.29
  10   7  -2   -2.80   56.69
 -10  -7   2  -75.09   48.70
   9   7  -2  121.09   52.79
  -9  -7   2   -0.70   41.50
   8   7  -2  165.78   49.60
  -8  -7   2   83.79   40.00
   7   7  -2  -59.19   36.40
  -7  -7   2   27.00   35.20
   6   7  -2  100.59   38.10
  -6  -7   2   97.29   36.10
   5   7  -2   78.59   33.40
  -5  -7   2   32.20   27.90
   4   7  -2   44.80   28.10
  -4  -7   2   54.19   25.00
   3   7  -2   54.99   25.70
  -3  -7   2   63.49   23.50
   2   7  -2   27.60   21.70
  -2  -7   2   35.90   20.10
   1   7  -2   81.09   21.40
   0   7  -2  663.83   45.00
   0  -7   2  688.73   40.70
  -1   7  -2   35.70   16.50
   1  -7   2   34.40   13.40
  -2   7  -2   62.99   15.80
   2  -7   2   56.89   12.30
  -3   7  -2   46.30   13.50
  -4   7  -2   20.20   17.80
  -4   7  -2   37.20   10.40
  11   6  -2  -33.30   63.19
 -11  -6   2   84.99   52.89
  10   6  -2  -28.90   50.39
 -10  -6   2   -1.90   42.50
   9   6  -2   16.00   45.30
  -9  -6   2   21.10   40.00
   8   6  -2   68.39   40.40
  -8  -6   2  -20.70   34.30
   7   6  -2   44.60   36.20
  -7  -6   2   43.30   32.40
   6   6  -2   32.00   30.20
  -6  -6   2   31.20   29.80
   5   6  -2  133.89   32.60
  -5  -6   2   96.69   27.50
   4   6  -2   -9.00   22.40
  -4  -6   2   22.60   21.30
   3   6  -2   73.79   23.50
  -3  -6   2   98.59   23.60
   2   6  -2  937.91   54.09
  -2  -6   2  858.51   51.69
   1   6  -2  558.64   39.70
   0   6  -2   22.70   15.30
   0  -6   2   15.20   12.50
  -1   6  -2   76.49   15.60
   1  -6   2   80.89   13.50
  -2   6  -2   69.99   13.00
   2  -6   2   59.49   10.60
  -3   6  -2  159.88   16.60
  -4   6  -2   11.60    6.40
  -4   6  -2   10.70    6.40
  11   5  -2  -38.40   56.49
 -11  -5   2  -30.50   46.30
  10   5  -2  -47.40   44.70
 -10  -5   2   24.70   40.60
   9   5  -2    7.40   41.10
  -9  -5   2   -0.70   35.00
   8   5  -2  -14.40   34.40
  -8  -5   2   23.40   31.70
   7   5  -2   38.60   32.40
  -7  -5   2  -34.10   28.20
   6   5  -2   92.19   31.20
  -6  -5   2  172.68   31.30
   5   5  -2  212.68   32.70
  -5  -5   2  231.18   33.50
   4   5  -2   17.20   20.30
  -4  -5   2   -5.80   18.90
   3   5  -2 1503.65   75.39
  -3  -5   2 1367.46   72.59
   2   5  -2  146.89   24.00
  -2  -5   2  154.28   21.90
   1   5  -2   32.90   15.20
  -1  -5   2   25.70   22.20
   0   5  -2   97.89   16.40
   0  -5   2   84.19   14.10
  -1   5  -2    9.70   10.90
   1  -5   2   23.60    9.40
  -2   5  -2  364.26   22.70
   2  -5   2  349.57   20.20
  -3   5  -2   38.30    7.30
  -9   5  -2   17.60    7.00
   9  -5   2   29.00    8.10
 -10   5  -2   -5.70    9.80
  10  -5   2  -12.80   12.80
 -11   5  -2    5.60   12.20
  11  -5   2   -9.00   17.30
  11   4  -2  -97.89   48.20
 -11  -4   2   16.10   42.60
  10   4  -2   13.40   43.50
 -10  -4   2  -49.50   35.00
   9   4  -2   15.30   36.60
  -9  -4   2   37.30   31.70
   8   4  -2   21.60   33.00
  -8  -4   2    0.10   28.20
   7   4  -2    1.50   26.70
  -7  -4   2   10.00   25.30
   6   4  -2    7.80   24.70
  -6  -4   2  -38.10   20.50
   5   4  -2  597.84   48.20
  -5  -4   2  567.24   43.60
   4   4  -2 1122.09   63.99
  -4  -4   2 1125.19   60.79
   3   4  -2   18.60   17.60
  -3  -4   2    6.00   15.30
   2   4  -2   78.39   17.90
  -2  -4   2   84.29   16.20
  -1  -4   2   19.30   11.30
   0   4  -2 3072.59  128.99
   0  -4   2 2981.10  127.69
  -1   4  -2  196.58   16.80
   1  -4   2  206.08   15.00
  -2   4  -2  252.37   16.00
   2  -4   2  265.17   14.40
  -6   4  -2   84.79    7.30
   6  -4   2   73.49    7.50
  -7   4  -2  110.69   11.80
   7  -4   2   99.69   13.00
  -8   4  -2   17.20   10.00
   8  -4   2    7.70   13.40
  -9   4  -2  -11.80   12.30
   9  -4   2   36.40   17.30
 -10   4  -2    7.40   15.50
  10  -4   2   11.10   20.70
 -11   4  -2  -31.00   18.10
  11  -4   2   51.49   26.90
  11   3  -2   24.70   43.60
 -11  -3   2  -34.70   40.00
  10   3  -2  -39.30   36.30
 -10  -3   2  -20.00   32.50
   9   3  -2   91.49   36.40
  -9  -3   2   55.99   31.10
   8   3  -2   41.40   31.70
  -8  -3   2   60.19   27.40
   7   3  -2   52.79   26.00
  -7  -3   2  -25.40   21.40
   6   3  -2  720.13   51.79
  -6  -3   2  696.83   49.80
   5   3  -2  449.26   40.30
  -5  -3   2  440.06   37.00
   4   3  -2   41.80   18.70
  -4  -3   2   68.99   18.70
   3   3  -2  332.97   28.90
  -3  -3   2  336.37   28.60
   2   3  -2  241.28   23.70
  -2  -3   2  237.48   22.70
   1   3  -2  133.09   15.90
  -1  -3   2  136.59   14.90
   0   3  -2   60.09   10.10
   0  -3   2   16.80    6.80
  -1   3  -2  197.58   13.70
   1  -3   2  179.78   12.60
  -2   3  -2  986.20   42.40
   2  -3   2 1033.30   41.70
  -5   3  -2    7.50    5.50
   5  -3   2    1.60    7.10
  -6   3  -2  363.06   20.50
   6  -3   2  328.17   23.20
  -7   3  -2  189.78   18.00
   7  -3   2  203.18   23.10
  -8   3  -2   26.30   12.60
   8  -3   2   13.60   15.80
  -9   3  -2   54.59   16.20
   9  -3   2   53.19   21.00
 -10   3  -2  188.78   24.10
  10  -3   2  140.89   28.30
 -11   3  -2   -6.20   21.10
  11  -3   2   -3.60   27.30
  11   2  -2   35.80   42.80
 -11  -2   2   52.69   37.80
  10   2  -2  -17.80   30.80
 -10  -2   2   56.19   33.00
   9   2  -2  -55.89   28.30
  -9  -2   2   -2.60   27.10
   8   2  -2  -14.70   26.00
  -8  -2   2   -6.00   22.10
   7   2  -2  242.58   33.00
  -7  -2   2  259.87   32.80
   6   2  -2   66.79   21.30
  -6  -2   2   49.10   19.80
   5   2  -2  110.29   22.40
  -5  -2   2  114.59   22.30
   4   2  -2  278.07   29.60
  -4  -2   2  278.47   27.10
   3   2  -2  576.34   35.40
  -3  -2   2  560.24   34.00
   2   2  -2  542.95   32.40
  -2  -2   2  534.55   31.20
   1   2  -2 6230.58  258.07
  -1  -2   2 6324.27  257.77
   0   2  -2 1485.15   63.99
  -1   2  -2   10.20    4.40
   1  -2   2   15.90    4.40
  -3   2  -2  581.94   24.80
   3  -2   2  585.34   25.60
  -4   2  -2  386.46   19.10
   4  -2   2  366.86   20.40
  -5   2  -2   70.59   10.10
   5  -2   2   68.69   11.30
  -6   2  -2   34.00   10.50
   6  -2   2   26.00   12.00
  -7   2  -2  -21.60   10.80
   7  -2   2  -18.20   12.60
  -8   2  -2    6.80   13.40
   8  -2   2   11.40   16.70
  -9   2  -2   90.99   20.60
   9  -2   2  134.49   25.00
 -10   2  -2   25.30   20.40
  10  -2   2   35.80   25.50
 -11   2  -2   94.09   26.10
  11  -2   2    7.00   29.10
  11   1  -2    9.30   37.60
 -11  -1   2   24.50   35.80
  10   1  -2   73.19   33.60
 -10  -1   2   65.09   33.10
   9   1  -2   60.49   28.90
  -9  -1   2   30.30   26.30
   8   1  -2   16.30   23.20
  -8  -1   2   -5.50   21.30
   7   1  -2  -10.10   20.00
  -7  -1   2    7.40   19.80
   6   1  -2   42.60   20.00
  -6  -1   2   85.69   20.40
   5   1  -2  200.48   25.40
  -5  -1   2  219.88   24.70
   4   1  -2  390.16   29.90
  -4  -1   2  377.56   28.20
   3   1  -2  460.75   30.00
  -3  -1   2  509.95   29.60
   2   1  -2 1117.39   52.99
  -2  -1   2 1152.98   52.59
   1   1  -2 5041.80  211.08
  -1  -1   2 5241.28  211.08
  -1   1  -2 1347.37   55.89
  -1   1  -2 1385.56   54.39
   1  -1   2 1324.97   55.99
  -2   1  -2   12.60    3.50
   2  -1   2   11.30    3.80
  -3   1  -2  836.32   36.60
   3  -1   2  822.32   37.20
  -4   1  -2  633.74   30.70
   4  -1   2  622.64   31.70
  -5   1  -2   45.50   11.00
   5  -1   2   69.39   13.10
  -6   1  -2  240.68   22.00
   6  -1   2  250.27   24.60
   7  -1   2  330.07   30.90
  -8   1  -2    2.70   15.50
   8  -1   2   -6.00   18.20
  -9   1  -2   -8.90   17.80
   9  -1   2   33.40   22.00
 -10   1  -2   25.30   22.70
  10  -1   2    6.70   24.50
 -11   1  -2   21.20   26.20
  11  -1   2   -3.90   30.20
  11   0  -2    6.40   37.40
 -11   0   2  -15.90   31.50
  10   0  -2   50.79   31.40
 -10   0   2   31.30   28.40
   9   0  -2   17.80   27.00
  -9   0   2   68.29   25.90
   8   0  -2   46.20   23.30
  -8   0   2   31.60   21.20
   7   0  -2   41.40   23.10
  -7   0   2   21.10   17.60
   6   0  -2   68.79   18.80
  -6   0   2   36.10   17.30
   5   0  -2    3.20   14.10
  -5   0   2    1.60   13.90
   4   0  -2  221.38   21.90
  -4   0   2  246.38   22.30
   3   0  -2   50.39   11.40
  -3   0   2   65.69   12.00
   2   0  -2 2063.59   89.69
  -2   0   2 2124.29   89.69
  -1   0   2    3.80    5.20
   0   0   2 1460.75   62.49
  -1   0  -2   49.10    5.50
   1   0   2   49.60    5.80
  -2   0  -2 1480.65   62.09
   2   0   2 1452.75   62.19
  -3   0  -2  717.63   33.90
   3   0   2  709.23   34.50
  -4   0  -2  380.56   24.00
   4   0   2  418.26   25.50
  -5   0  -2   27.70   12.00
   5   0   2   10.90   11.90
  -6   0  -2  292.77   26.10
   6   0   2  306.47   28.10
   7   0   2    0.80   17.40
  -8   0  -2   72.69   21.00
   8   0   2   70.59   23.10
  -9   0  -2   12.80   20.20
   9   0   2   38.30   23.00
 -10   0  -2   31.10   24.70
  10   0   2    6.30   25.30
 -11   0  -2   -5.00   28.40
  11   0   2   45.10   34.60
  11  -1  -2  -25.40   31.80
 -11   1   2    6.40   30.40
  10  -1  -2   36.30   26.70
 -10   1   2   11.00   25.70
   9  -1  -2   -6.20   23.60
  -9   1   2    6.60   23.20
   8  -1  -2   50.39   22.70
  -8   1   2   62.09   20.80
   7  -1  -2   23.30   23.00
  -7   1   2    9.30   20.20
   6  -1  -2  223.88   25.10
  -6   1   2  174.98   22.00
   5  -1  -2   19.80   13.40
  -5   1   2   33.20   13.30
   4  -1  -2  546.65   32.60
  -4   1   2  571.54   32.20
   3  -1  -2  152.28   16.00
  -3   1   2  138.79   15.60
   2  -1  -2 1522.15   65.79
  -2   1   2 1503.35   65.89
   1  -1  -2 2443.86  101.89
  -1   1   2 2455.55  102.09
   0   1   2  457.85   22.00
  -1  -1  -2 2183.98   89.39
   1   1   2 2110.59   89.49
  -2  -1  -2  122.69   12.30
   2   1   2  132.19   13.70
  -3  -1  -2  134.39   14.60
   3   1   2  141.79   16.20
  -4  -1  -2   44.90   12.00
   4   1   2   47.30   11.90
  -5  -1  -2  446.56   30.50
   5   1   2  410.36   31.00
  -6  -1  -2   13.10   13.80
   6   1   2   10.50   15.20
  -7  -1  -2   97.69   33.70
   7   1   2   93.89   25.40
  -8  -1  -2    0.10   18.00
   8   1   2    7.50   23.20
  -9  -1  -2   -2.50   23.10
   9   1   2  -21.40   25.10
 -10  -1  -2   -0.10   25.70
  10   1   2   34.40   28.10
 -11  -1  -2  -43.20   30.40
  11   1   2   27.00   38.80
  11  -2  -2  -34.50   31.50
 -11   2   2    0.40   29.10
  10  -2  -2   22.50   26.90
 -10   2   2  -17.60   23.30
   9  -2  -2  -13.50   22.60
  -9   2   2    9.90   21.40
   8  -2  -2   42.20   20.20
  -8   2   2    7.80   18.30
   7  -2  -2   74.59   19.90
  -7   2   2   79.29   21.80
   6  -2  -2  346.87   29.70
  -6   2   2  377.56   29.10
   5  -2  -2   58.39   13.40
  -5   2   2   61.09   13.60
   4  -2  -2   14.80   10.30
  -4   2   2   12.00   10.00
   3  -2  -2  612.94   31.70
  -3   2   2  628.34   32.20
   2  -2  -2   22.50    7.30
   2  -2  -2   22.30    1.30
  -2   2   2   17.60    7.30
   1  -2  -2 2864.71  117.39
  -1   2   2 2792.42  113.49
  -1   2   2 2808.52  117.49
   0  -2  -2 1586.34   64.19
   0   2   2 1419.66   68.79
  -1  -2  -2   78.19   10.00
   1   2   2   75.09   10.40
  -2  -2  -2    7.50    8.60
   2   2   2    6.40    9.20
  -3  -2  -2 1738.63   77.19
   3   2   2 1714.53   77.69
  -4  -2  -2   11.80   12.70
   4   2   2   -0.70   11.90
  -5  -2  -2  103.09   19.40
   5   2   2  107.79   20.30
  -6  -2  -2   76.39   19.30
   6   2   2   74.19   20.50
  -7  -2  -2   55.39   23.20
   7   2   2   40.00   26.30
  -8  -2  -2   38.90   21.60
   8   2   2   33.90   25.80
  -9  -2  -2  -32.10   22.60
   9   2   2  -24.10   28.00
 -10  -2  -2   58.99   30.40
  10   2   2   64.69   33.80
 -11  -2  -2   11.30   35.80
  11   2   2  -15.60   42.50
  11  -3  -2  -10.40   32.10
 -11   3   2   62.09   28.70
  10  -3  -2   53.29   28.70
 -10   3   2   39.10   23.70
   9  -3  -2   29.20   23.00
  -9   3   2    9.70   19.60
   8  -3  -2   18.30   18.90
  -8   3   2   72.49   18.80
   7  -3  -2   23.20   16.50
  -7   3   2   40.40   16.10
   6  -3  -2  251.37   25.40
  -6   3   2  250.17   25.00
   5  -3  -2  212.28   21.00
  -5   3   2  192.78   20.90
   4  -3  -2  135.09   16.10
  -4   3   2  119.49   14.70
   3  -3  -2  103.89   12.80
  -3   3   2   79.39   12.30
  -2   3   2   43.10    9.80
  -1   3   2  991.50   47.80
  -1   3   2 1109.49   46.80
   0  -3  -2  671.83   36.30
   0   3   2  804.82   38.20
  -1  -3  -2   24.80    9.50
   1   3   2   26.70   10.10
  -2  -3  -2   29.00   10.90
   2   3   2   24.40   12.10
  -3  -3  -2   36.30   13.00
   3   3   2   30.50   13.70
  -4  -3  -2  754.72   43.50
   4   3   2  728.43   44.60
  -5  -3  -2   72.49   18.80
   5   3   2   68.29   20.20
  -6  -3  -2    2.20   17.40
   6   3   2   -4.80   17.10
  -7  -3  -2   75.99   27.50
   7   3   2   58.89   38.90
  -8  -3  -2   12.20   23.00
   8   3   2    7.10   26.10
  -9  -3  -2   31.30   27.20
   9   3   2   -1.60   30.50
 -10  -3  -2  -19.30   30.70
  10   3   2   10.80   37.00
 -11  -3  -2  -15.00   35.90
  11   3   2  -12.90   44.90
  11  -4  -2   88.69   33.40
 -11   4   2   88.69   27.20
  10  -4  -2    0.90   25.30
 -10   4   2   49.00   23.70
   9  -4  -2   71.69   23.50
  -9   4   2  106.29   23.00
   8  -4  -2   73.49   20.00
  -8   4   2   71.29   19.00
   7  -4  -2    3.70   14.30
  -7   4   2   24.90   14.90
   6  -4  -2   31.40   15.50
  -6   4   2   13.70   13.00
   5  -4  -2  229.68   20.50
  -5   4   2  238.28   22.20
   4  -4  -2  330.77   22.20
  -4   4   2  333.37   24.10
  -3   4   2   -3.50    8.70
  -2   4   2  451.25   24.30
  -2   4   2  498.15   27.10
  -2   4   2  431.36   18.30
   1  -4  -2  346.47   20.00
  -1   4   2  331.87   21.20
   0   4   2  162.28   17.50
  -1  -4  -2   80.19   13.10
   1   4   2   70.69   13.70
  -2  -4  -2  167.68   19.60
   2   4   2  158.58   19.70
  -3  -4  -2  182.98   23.10
   3   4   2  202.48   23.90
  -4  -4  -2  157.68   22.30
   4   4   2  139.19   23.40
  -5  -4  -2    9.90   17.70
   5   4   2   -7.80   18.80
  -6  -4  -2   69.99   22.60
   6   4   2   87.69   24.60
  -7  -4  -2   40.20   29.50
   7   4   2   15.30   42.40
  -8  -4  -2   86.89   29.70
   8   4   2   67.79   32.80
  -9  -4  -2   12.00   30.60
   9   4   2   11.80   32.60
 -10  -4  -2   41.50   36.60
  10   4   2   43.00   42.10
 -11  -4  -2  -43.30   36.70
  11   4   2  -26.70   48.80
  10  -5  -2    9.80   23.60
 -10   5   2   78.59   23.20
   9  -5  -2   70.09   19.90
  -9   5   2   28.40   19.20
   8  -5  -2  -23.40   15.30
  -8   5   2   29.90   16.20
   7  -5  -2   55.19   14.90
  -7   5   2   36.90   15.50
   6  -5  -2   83.09   14.00
  -6   5   2   83.99   15.40
  -5   5   2   11.50   12.50
  -4   5   2  253.07   17.80
  -4   5   2  239.88   22.90
  -3   5   2  387.86   27.10
  -3   5   2  409.06   23.60
  -2   5   2  106.19    4.60
  -2   5   2  104.29   13.40
  -2   5   2  113.19   15.20
   1  -5  -2 1409.46   63.09
  -1   5   2 1391.36   64.09
   0   5   2  332.27   25.50
  -1  -5  -2  598.04   36.00
   1   5   2  597.04   37.30
  -2  -5  -2   14.20   14.30
   2   5   2  -14.90   14.90
  -3  -5  -2  103.49   20.00
   3   5   2   82.29   22.10
  -4  -5  -2  206.48   26.60
   4   5   2  271.07   34.50
  -5  -5  -2   68.59   22.50
   5   5   2   23.30   21.50
  -6  -5  -2   19.20   23.30
   6   5   2  -27.40   20.90
   7   5   2  109.79   35.90
  -8  -5  -2    4.40   28.10
   8   5   2   25.40   31.90
  -9  -5  -2   25.50   33.70
   9   5   2    1.30   37.20
 -10  -5  -2    5.80   37.60
  10   5   2   35.70   47.40
 -11  -5  -2   27.90   42.30
  11   5   2   40.40   57.79
  12  -6  -2    5.90    2.60
  10  -6  -2   39.20   20.10
 -10   6   2   -0.40   18.30
   9  -6  -2    7.80    1.60
   9  -6  -2   25.70   16.20
  -9   6   2   22.10   17.50
   8  -6  -2   -5.90   13.90
  -8   6   2   19.70   16.30
  -7   6   2   53.89   16.20
  -6   6   2   17.00   10.10
  -6   6   2    3.20   12.90
  -5   6   2  102.79   12.80
  -5   6   2  100.39   16.80
  -4   6   2    8.60    9.60
  -4   6   2   24.60   13.80
  -3   6   2   51.59   12.10
  -3   6   2   54.29   13.70
  -3   6   2   40.70    2.50
  -2   6   2   13.10   11.60
  -2   6   2    5.10   13.40
   1  -6  -2   50.19   12.40
  -1   6   2   27.40   13.30
   0   6   2  117.99   20.10
  -1  -6  -2  251.57   25.80
   1   6   2  235.48   26.10
  -2  -6  -2   10.70   15.10
   2   6   2   27.50   18.40
  -3  -6  -2  692.33   45.20
   3   6   2  659.43   46.70
  -4  -6  -2   33.40   20.00
   4   6   2    4.20   21.70
  -5  -6  -2  144.29   27.40
   5   6   2   97.99   27.60
  -6  -6  -2   47.30   25.70
   6   6   2   64.89   29.70
   7   6   2   -4.80   31.90
  -8  -6  -2   26.10   31.70
   8   6   2  -71.09   33.70
  -9  -6  -2   37.60   37.80
   9   6   2   57.99   41.80
 -10  -6  -2   49.99   44.20
  10   6   2   22.10   49.30
 -11   7   2   14.40   11.80
 -10   7   2    8.10   12.20
 -10   7   2    8.90   13.90
  -9   7   2    0.10   12.10
  -9   7   2   29.50   15.30
  -8   7   2    5.40   11.60
  -8   7   2    3.80   15.30
  -7   7   2   -1.80   11.30
  -7   7   2    3.60   15.30
  -6   7   2   26.80   11.90
  -6   7   2    9.40   15.80
  -5   7   2  -16.20   11.10
  -5   7   2   15.20   15.50
  -4   7   2   72.39   14.20
  -4   7   2   53.39   17.00
  -3   7   2  -24.20   14.00
  -3   7   2   -2.70    1.40
  -3   7   2   -1.50   12.50
  -2   7   2   60.79   16.20
  -2   7   2   63.29   22.70
   1  -7  -2   25.80   12.90
  -1   7   2    5.50   15.40
  -1  -7  -2   -7.70   16.50
   1   7   2   18.80   18.20
  -2  -7  -2  304.07   33.80
   2   7   2  335.27   37.70
  -3  -7  -2   -3.50   19.20
   3   7   2    2.70   20.60
  -4  -7  -2  300.27   38.10
   4   7   2  328.27   42.80
  -5  -7  -2   27.60   25.60
   5   7   2    2.70   27.70
  -6  -7  -2    1.80   28.50
   6   7   2   -6.90   29.80
  -7  -7  -2    2.70   34.80
   7   7   2   -2.10   35.40
  -8  -7  -2   32.10   37.20
   8   7   2    6.30   39.90
  -9  -7  -2   76.19   43.10
   9   7   2  -10.30   46.00
 -10  -7  -2  -39.40   47.80
  10   7   2  -22.10   58.19
  -8   8   2   36.10   14.90
  -8   8   2   84.19   13.00
  -7   8   2   13.30   16.50
  -7   8   2   -6.80   12.80
  -6   8   2   27.20   14.10
  -6   8   2   -5.30   17.30
  -5   8   2   17.80   14.50
  -5   8   2    1.60   17.50
  -4   8   2   17.10   18.50
  -4   8   2   13.30   15.20
  -3   8   2   39.40   18.90
  -3   8   2   14.10   16.50
  -3   8   2   40.90    2.30
  -2   8   2   26.20   17.80
   1  -8  -2   35.20   16.70
  -1   8   2   23.00   19.40
   0   8   2  224.88   27.90
  -1  -8  -2   26.80   17.50
   1   8   2   10.40   20.10
  -2  -8  -2   61.69   23.00
   2   8   2   37.90   24.20
  -3  -8  -2   14.30   23.60
   3   8   2   17.00   27.50
  -4  -8  -2   -0.30   25.60
   4   8   2  -23.10   27.60
  -5  -8  -2    2.90   28.70
   5   8   2  -16.30   30.00
  -6  -8  -2   45.20   33.40
   6   8   2   72.69   36.20
  -7  -8  -2  -15.20   35.20
   7   8   2  -31.70   38.50
  -8  -8  -2   70.09   41.30
   8   8   2   -6.00   47.30
  -9  -8  -2   88.29   50.09
   9   8   2  -55.49   53.79
 -10  -8  -2  172.18   61.39
  10   8   2  -76.59   65.79
  -7   9   2   40.30   18.30
  -7   9   2   38.60   15.90
  -6   9   2   28.40   20.30
  -5   9   2    4.30   17.40
  -5   9   2   34.80   21.40
  -4   9   2   12.00   18.80
  -4   9   2    1.80   21.40
  -3   9   2   12.70   19.30
  -3   9   2  -27.40   21.20
  -3   9   2   -4.70    1.80
  -2   9   2   31.90   21.70
   1  -9  -2   21.10   19.20
  -1   9   2   43.80   23.60
   0  -9  -2  -13.60   15.90
   0   9   2    6.30   21.20
  -1  -9  -2   76.79   22.30
   1   9   2   31.80   24.80
  -2  -9  -2   -6.70   23.50
   2   9   2    0.70   27.40
  -3  -9  -2   40.10   28.20
   3   9   2   74.79   33.10
  -4  -9  -2   -1.50   29.70
   4   9   2   22.70   34.30
  -5  -9  -2  -42.30   31.80
   5   9   2   69.69   39.00
  -6  -9  -2   44.20   37.80
   6   9   2   -1.40   42.00
  -7  -9  -2   67.79   40.80
   7   9   2  -25.00   48.40
  -8  -9  -2   85.09   46.60
   8   9   2  -84.49   50.29
  -9  -9  -2   21.10   53.89
   9   9   2   15.50   64.79
  -7  10   2  -17.70   19.20
  -7  10   2  -18.50   18.50
  -6  10   2   20.20   23.80
  -6  10   2   18.80   20.50
  -5  10   2    3.30   21.10
  -5  10   2   29.00   25.30
  -4  10   2   -1.40    1.70
  -4  10   2   14.40   22.70
  -4  10   2    5.50   25.90
  -3  10   2   27.30   27.00
  -3  10   2   13.90   22.90
  -2  10   2   10.70   25.00
  -2  10   2    5.00   26.70
   1 -10  -2   31.60   22.80
  -1  10   2   25.80   25.80
   0 -10  -2   26.90   21.50
   0  10   2   11.30   27.20
  -1 -10  -2   -3.70   20.60
  -2 -10  -2   16.80   26.00
   2  10   2   47.00   36.60
  -3 -10  -2   73.79   34.30
   3  10   2   87.99   39.10
  -4 -10  -2  -57.29   32.00
   4  10   2   59.39   40.80
  -5 -10  -2  -53.79   36.60
   5  10   2   40.80   43.00
  -6 -10  -2  -39.10   39.20
   6  10   2  -24.00   47.70
  -7 -10  -2   18.30   49.20
   7  10   2  -39.60   49.30
  -7  11   2   -0.10   22.10
  -6  11   2   35.30   24.80
  -5  11   2   25.70   28.70
  -4  11   2   10.90   28.20
  -4  11   2   20.90   32.70
  -3  11   2   14.30   31.80
  -3  11   2    1.70    2.40
  -3  11   2  -15.70   28.10
  -2  11   2   31.40   33.40
  -2  11   2    6.80   29.70
   1 -11  -2    8.60   25.90
  -1  11   2    9.70   33.20
   0 -11  -2    6.90   27.40
   0  11   2   23.80   33.80
   1  11   2  -18.20   33.80
  -2 -11  -2    6.00   29.50
   2  11   2    5.90   39.20
  -3 -11  -2    5.50   32.80
   3  11   2   15.50   41.60
  -4 -11  -2   29.20   40.50
   4  11   2   46.00   46.90
  -7  12   2   -9.80   25.30
  -6  12   2   39.10   29.90
  -5  12   2  -19.10   29.80
  -4  12   2   32.70   31.50
  -3  12   2  -24.70   32.50
  -3  12   2   10.50    2.70
  -2  12   2  -45.00   38.30
  -4  13   2   -2.90    3.00
  -3  13   2    9.30    2.90
  -2  13   2    6.30    3.30
  -5  13  -3   24.80   29.20
   0 -12   3   -2.10   32.00
  -1  12  -3   17.10   36.90
   1 -12   3   52.29   29.90
  -2  12  -3   13.70   35.20
   2 -12   3  -40.20   26.70
  -3  12  -3   24.50   33.90
  -4  12  -3   25.80   31.40
  -5  12  -3  -13.50   23.50
  -4 -11   3   10.50   42.60
   3  11  -3  -22.40   44.70
  -3 -11   3  -52.59   35.20
   2  11  -3   19.70   41.00
   1  11  -3   -7.00   36.50
  -1 -11   3   33.10   29.90
   0  11  -3  -37.10   34.20
   0 -11   3   32.30   28.40
  -1  11  -3   22.70   32.40
   1 -11   3  -18.40   24.40
  -2  11  -3    2.10   29.70
   2 -11   3   -0.20   21.90
  -3  11  -3   -7.50   26.80
  -4  11  -3  -18.30   24.40
  -4  11  -3   -2.30   22.90
  -5  11  -3   13.40   16.90
  -5  11  -3  -16.10   19.00
  -7 -10   3   28.60   69.19
   6  10  -3  -51.99   49.00
  -6 -10   3   -2.30   41.80
   5  10  -3   73.69   47.80
  -5 -10   3  -16.80   38.10
   4  10  -3   14.90   43.80
  -4 -10   3   50.79   34.60
   3  10  -3   49.50   41.50
  -3 -10   3   74.99   32.80
   2  10  -3   -4.40   46.40
  -2 -10   3   12.80   26.00
   1  10  -3   36.90   34.80
  -1 -10   3   65.39   25.30
   0  10  -3  -34.40   28.00
   0 -10   3   12.00   23.20
  -1  10  -3   -9.30   26.10
   1 -10   3   12.10   20.40
  -2  10  -3   11.10   25.90
   2 -10   3   57.99   20.30
  -3  10  -3  -12.10   22.80
  -4  10  -3   61.19   35.70
  -4  10  -3   43.00   19.40
  -5  10  -3   -4.50   12.40
  -5  10  -3    7.80   13.90
   9   9  -3   65.29   63.59
  -9  -9   3  -31.50   56.09
   8   9  -3  -37.30   57.49
  -8  -9   3   41.20   46.00
   7   9  -3   82.59   52.89
  -7  -9   3   -0.60   41.60
   6   9  -3  -19.20   46.10
  -6  -9   3  -66.09   34.90
   5   9  -3   60.39   43.10
  -5  -9   3   49.00   36.10
   4   9  -3    4.10   36.00
  -4  -9   3   49.99   31.30
   3   9  -3  288.47   43.60
  -3  -9   3  292.57   39.70
   2   9  -3   11.10   28.60
  -2  -9   3  -28.70   21.20
   1   9  -3   83.89   28.40
  -1  -9   3   10.20   19.70
   0   9  -3   84.29   27.60
   0  -9   3   30.40   20.30
  -1   9  -3   11.60   22.50
   1  -9   3  -17.50   17.00
  -2   9  -3  -11.50   20.00
   2  -9   3    6.80   15.80
  -3   9  -3   23.00   19.00
   3  -9   3   41.00   15.40
  -4   9  -3    5.30   16.20
  -4   9  -3   35.20   15.20
  10   8  -3    3.70   69.09
 -10  -8   3   46.30   55.79
   9   8  -3  167.38   61.89
  -9  -8   3  -30.00   46.90
   8   8  -3  -90.59   49.90
  -8  -8   3   38.60   42.50
   7   8  -3   30.20   46.60
  -7  -8   3  -41.20   37.70
   6   8  -3    1.50   40.30
  -6  -8   3   36.50   36.10
   5   8  -3  -25.30   33.20
  -5  -8   3   14.20   30.10
   4   8  -3   92.39   35.40
  -4  -8   3  119.49   30.40
   3   8  -3   34.80   29.80
  -3  -8   3   21.40   25.20
   2   8  -3  106.39   28.40
  -2  -8   3   61.79   22.60
   1   8  -3   36.00   21.70
   0   8  -3    4.00   19.70
   0  -8   3   -8.90   16.10
  -1   8  -3   31.20   20.10
   1  -8   3   59.89   16.60
  -2   8  -3   92.19   19.60
   2  -8   3   87.79   15.50
  -3   8  -3   39.00   15.90
   3  -8   3   21.50   12.10
  -4   8  -3   97.79   14.00
  -4   8  -3  126.79   15.60
  11   7  -3   -3.60   73.49
 -11  -7   3  -40.30   56.49
  10   7  -3  -20.70   61.49
 -10  -7   3  -49.60   49.60
   9   7  -3   -3.90   51.59
  -9  -7   3  -22.80   44.40
   8   7  -3   66.39   46.90
  -8  -7   3    9.30   39.50
   7   7  -3   24.30   40.70
  -7  -7   3   -0.70   34.70
   6   7  -3  122.49   41.60
  -6  -7   3  148.79   37.10
   5   7  -3  -25.40   30.00
  -5  -7   3   -7.40   27.70
   4   7  -3   43.30   28.70
  -4  -7   3   -5.40   23.30
   3   7  -3   31.00   25.80
  -3  -7   3   -4.60   21.50
   2   7  -3   58.69   24.00
  -2  -7   3   24.80   20.20
   0   7  -3  349.96   34.30
   0  -7   3  353.06   29.70
  -1   7  -3  -10.40   14.40
   1  -7   3   30.00   12.70
  -2   7  -3  321.07   28.10
   2  -7   3  313.57   23.50
  -3   7  -3   -2.80   11.10
   3  -7   3    8.50    8.70
  -4   7  -3   -1.50    8.10
  11   6  -3  -61.09   63.89
 -11  -6   3  -26.00   54.49
  10   6  -3   10.30   52.39
 -10  -6   3  -12.50   46.00
   9   6  -3   29.50   47.70
  -9  -6   3   29.30   39.70
   8   6  -3   19.30   40.00
  -8  -6   3   -1.40   34.40
   7   6  -3   45.60   36.60
  -7  -6   3   44.30   33.80
   6   6  -3  -26.30   30.10
  -6  -6   3   82.99   31.20
   5   6  -3   30.50   28.80
  -5  -6   3   64.39   27.50
   4   6  -3   55.59   26.50
  -4  -6   3   76.19   25.50
   3   6  -3   50.69   22.90
  -3  -6   3   38.70   21.30
   2   6  -3   14.30   19.20
  -2  -6   3   -1.40   16.80
   1   6  -3  160.68   23.60
   0   6  -3   21.00   16.00
   0  -6   3   29.00   14.50
  -1   6  -3  793.42   45.10
   1  -6   3  863.81   42.60
  -2   6  -3  978.40   48.90
   2  -6   3 1018.80   46.50
  -3   6  -3  128.69   15.60
   3  -6   3  126.09   12.10
  11   5  -3  -90.09   54.49
 -11  -5   3  -33.60   52.39
  10   5  -3    0.80   47.50
 -10  -5   3  -18.40   41.90
   9   5  -3  121.79   44.10
  -9  -5   3   73.59   38.60
   8   5  -3   15.00   36.90
  -8  -5   3   -6.40   31.80
   7   5  -3   14.00   32.20
  -7  -5   3   20.80   28.90
   6   5  -3   31.90   28.50
  -6  -5   3   64.49   27.20
   5   5  -3  263.57   36.10
  -5  -5   3  272.87   33.70
   4   5  -3   12.30   22.30
  -4  -5   3  -27.50   18.00
   3   5  -3  572.74   43.90
  -3  -5   3  602.84   42.30
   2   5  -3  837.32   50.79
  -2  -5   3  892.81   49.60
   1   5  -3  403.76   32.60
   0   5  -3  465.35   32.10
   0  -5   3  496.35   30.40
  -1   5  -3   12.50   11.10
   1  -5   3   -0.10    9.00
  -2   5  -3   14.10    9.40
   2  -5   3   16.30    7.40
  -3   5  -3  153.58   12.40
  11   4  -3  -57.29   48.40
 -11  -4   3   47.00   46.40
  10   4  -3   64.19   43.60
 -10  -4   3   80.79   42.80
   9   4  -3   14.00   37.70
  -9  -4   3   94.89   36.00
   8   4  -3   69.59   36.30
  -8  -4   3   92.89   32.40
   7   4  -3  -19.40   26.30
  -7  -4   3  -14.20   25.00
   6   4  -3  174.58   33.30
  -6  -4   3  157.48   31.20
   5   4  -3    3.40   22.10
  -5  -4   3   22.10   20.90
   4   4  -3 1460.05   76.19
  -4  -4   3 1381.56   73.59
   3   4  -3  518.35   39.00
  -3  -4   3  482.35   37.50
   2   4  -3  800.12   46.50
  -2  -4   3  774.22   44.00
   1   4  -3  310.87   25.80
  -1  -4   3  288.67   27.20
   0   4  -3  616.24   34.60
   0  -4   3  632.34   33.40
  -1   4  -3   27.60    9.60
   1  -4   3   16.20    7.80
  -2   4  -3  156.88   13.70
   2  -4   3  212.18   12.50
  -7   4  -3   25.00    7.40
   7  -4   3   39.20    9.30
  -8   4  -3    2.20    8.40
   8  -4   3   -8.50   12.10
  -9   4  -3   50.69   12.10
   9  -4   3   36.60   16.30
 -10   4  -3   -2.80   13.90
  10  -4   3  -17.40   19.60
 -11   4  -3  -22.70   16.30
  11  -4   3  -40.50   23.60
 -11  -3   3  -77.49   39.50
  10   3  -3   30.00   37.40
 -10  -3   3   24.60   36.80
   9   3  -3   50.09   35.50
  -9  -3   3   -2.30   30.60
   8   3  -3    2.70   31.00
  -8  -3   3   48.30   29.30
   7   3  -3   71.89   27.70
  -7  -3   3   75.39   26.00
   6   3  -3  263.67   34.80
  -6  -3   3  305.97   37.90
   5   3  -3   32.10   21.20
  -5  -3   3   34.90   20.80
   4   3  -3  394.66   36.10
  -4  -3   3  442.86   36.10
   3   3  -3   90.09   19.60
  -3  -3   3  122.89   20.10
   2   3  -3  548.05   34.70
  -2  -3   3  517.95   33.00
   1   3  -3    9.80   12.70
  -1  -3   3    2.80    9.90
   0   3  -3  671.53   31.80
   0  -3   3  508.55   29.40
  -1   3  -3  244.28   16.40
   1  -3   3  257.77   15.70
  -2   3  -3   32.70    5.20
   2  -3   3   30.60    4.50
  -5   3  -3  444.66   20.80
   5  -3   3  466.65   22.80
  -6   3  -3   16.30    7.00
   6  -3   3    6.20    9.30
  -7   3  -3   78.29   11.50
   7  -3   3   68.49   14.00
  -8   3  -3  210.28   20.70
   8  -3   3  183.38   21.80
  -9   3  -3   20.20   14.50
   9  -3   3    7.20   18.20
 -10   3  -3   19.50   17.40
  10  -3   3  -17.90   21.10
 -11   3  -3  -20.10   19.70
  11  -3   3   37.10   28.00
  11   2  -3  -44.10   40.00
 -11  -2   3  -26.40   37.50
  10   2  -3   13.30   34.40
 -10  -2   3  -14.10   32.80
   9   2  -3   30.10   31.10
  -9  -2   3   25.50   28.00
   8   2  -3   35.40   27.90
  -8  -2   3   34.80   26.40
   7   2  -3  530.45   47.80
  -7  -2   3  673.03   49.30
   6   2  -3  -17.20   18.60
  -6  -2   3  -22.40   18.10
   5   2  -3  359.46   35.20
  -5  -2   3  354.16   34.60
   4   2  -3  675.43   43.30
  -4  -2   3  665.23   42.00
   3   2  -3  266.47   26.30
  -3  -2   3  317.57   26.20
   2   2  -3   28.40   12.80
  -2  -2   3   25.00   12.20
   1   2  -3  692.93   36.30
  -1  -2   3  717.73   36.30
   0   2  -3  548.75   28.10
  -1   2  -3 2275.97   97.49
   1  -2   3 2427.76   97.59
   2  -2   3    6.80    3.90
   3  -2   3  412.06   18.40
   3  -2   3  386.66   18.50
  -4   2  -3   39.40    6.10
   4  -2   3   39.60    7.30
  -5   2  -3    6.70    7.00
   5  -2   3   17.10    9.30
  -6   2  -3   22.50    9.50
   6  -2   3   31.60   11.80
  -7   2  -3   97.29   14.40
   7  -2   3  102.99   17.30
  -8   2  -3   92.99   16.20
   8  -2   3   62.69   19.00
  -9   2  -3   44.00   17.20
   9  -2   3    2.40   19.20
 -10   2  -3  -11.60   19.50
  10  -2   3   -5.50   23.70
 -11   2  -3  -24.80   22.40
  11  -2   3   28.90   30.00
  11   1  -3   48.30   41.40
 -11  -1   3   -4.10   36.00
  10   1  -3  -29.00   31.70
 -10  -1   3   46.90   30.60
   9   1  -3   39.20   28.40
  -9  -1   3   35.00   25.90
   8   1  -3  105.99   28.00
  -8  -1   3  110.99   28.60
   7   1  -3   22.90   22.20
  -7  -1   3   20.20   20.90
   6   1  -3  330.27   35.10
  -6  -1   3  251.57   32.80
   5   1  -3  968.50   55.99
  -5  -1   3 1020.90   55.29
   4   1  -3  199.68   23.50
  -4  -1   3  180.08   23.20
   3   1  -3 1439.66   67.89
  -3  -1   3 1435.56   67.39
   2   1  -3  348.77   24.40
  -2  -1   3  350.56   23.70
   1   1  -3   26.10    9.50
  -1  -1   3   17.50    8.60
   0   1  -3  705.43   34.60
  -1   1  -3   21.50    1.10
  -1   1  -3   24.40    5.60
   1  -1   3   27.30    5.60
   2  -1   3  681.53   33.10
   2  -1   3  823.22   32.70
  -3   1  -3  131.59   10.40
   3  -1   3  153.38   11.50
  -4   1  -3  394.66   21.30
   4  -1   3  376.16   22.30
  -5   1  -3  195.88   17.40
   5  -1   3  200.48   19.80
  -6   1  -3   62.99   13.10
   6  -1   3   58.09   14.40
  -7   1  -3    9.70   12.80
   7  -1   3   35.40   16.50
  -8   1  -3   16.20   15.10
   8  -1   3   11.30   17.60
  -9   1  -3    9.90   16.80
   9  -1   3    5.00   20.80
 -10   1  -3   13.10   21.40
  10  -1   3    5.40   24.60
 -11   1  -3  -33.50   24.50
  11  -1   3   37.60   30.70
  11   0  -3   47.40   37.00
 -11   0   3  -34.70   33.50
  10   0  -3  216.98   37.90
 -10   0   3  126.39   34.00
   9   0  -3   85.59   30.50
  -9   0   3   96.39   28.30
   8   0  -3  119.49   26.80
  -8   0   3   89.39   25.60
   7   0  -3   88.09   31.00
  -7   0   3  109.69   23.60
   6   0  -3 1146.49   64.39
  -6   0   3 1236.68   63.69
   5   0  -3  116.59   19.90
  -5   0   3  110.19   19.50
   4   0  -3  448.56   31.40
  -4   0   3  455.45   30.50
   3   0  -3   41.70   11.90
  -3   0   3   33.60   11.50
   2   0  -3 8540.65  355.16
  -2   0   3 8830.32  355.26
   1   0  -3  179.18   15.30
  -1   0   3  187.78   15.10
   0   0  -3  312.77   18.70
   0   0  -3  342.07   13.20
   0   0   3  311.97   18.00
  -2   0  -3  356.06   18.90
   2   0   3  376.46   19.40
  -3   0  -3    7.50    6.60
   3   0   3   12.40    7.60
  -4   0  -3 1157.98   53.09
   4   0   3 1157.98   53.79
  -5   0  -3  592.44   33.40
   5   0   3  584.04   34.80
  -6   0  -3  716.13   39.50
   6   0   3  659.23   41.10
  -7   0  -3  216.58   28.20
   7   0   3  198.18   24.60
  -8   0  -3   54.19   18.70
   8   0   3   73.19   22.50
  -9   0  -3   22.10   19.20
   9   0   3   30.20   23.40
 -10   0  -3   18.00   24.10
  10   0   3   28.20   26.30
 -11   0  -3   -0.80   29.30
  11   0   3  -10.30   32.80
  11  -1  -3    0.40   35.00
 -11   1   3   27.00   33.30
  10  -1  -3   30.30   28.10
 -10   1   3    5.40   28.40
   9  -1  -3   90.69   26.30
  -9   1   3   72.69   25.30
   8  -1  -3  139.69   26.40
  -8   1   3  194.88   28.20
   7  -1  -3  210.68   30.80
   6  -1  -3   92.69   19.80
  -6   1   3  104.89   20.40
   5  -1  -3  304.67   27.70
  -5   1   3  305.17   27.90
   4  -1  -3    5.90   11.10
  -4   1   3   31.70   13.20
   3  -1  -3  135.79   15.30
  -3   1   3  108.29   14.00
   2  -1  -3  279.07   19.70
  -2   1   3  308.67   20.60
   1  -1  -3   24.80    8.00
  -1   1   3   30.10    8.50
   0  -1  -3 1011.30   45.20
   0   1   3 1011.70   45.40
   0   1   3 1006.70   40.60
  -1  -1  -3   75.19    8.90
   1   1   3   74.49    8.90
  -2  -1  -3  786.42   37.10
   2   1   3  790.82   37.20
  -3  -1  -3   43.90    9.90
   3   1   3   59.59   11.40
  -4  -1  -3  169.68   17.80
   4   1   3  151.48   17.50
  -5  -1  -3  441.76   30.10
   5   1   3  426.26   31.30
  -6  -1  -3   31.20   14.40
   6   1   3   18.90   15.10
  -7  -1  -3  147.19   25.60
   7   1   3  136.99   23.40
  -8  -1  -3  323.77   35.20
   8   1   3  314.57   38.30
  -9  -1  -3  170.88   29.00
   9   1   3  158.38   31.90
 -10  -1  -3  -23.70   24.00
  10   1   3   -6.20   27.40
 -11  -1  -3  -14.40   29.20
  11   1   3   73.29   37.70
  11  -2  -3   -6.20   32.10
 -11   2   3   57.89   31.90
  10  -2  -3   -8.00   26.30
 -10   2   3   19.80   27.80
   9  -2  -3   39.80   25.30
  -9   2   3   33.60   23.70
   8  -2  -3   38.90   21.90
  -8   2   3   43.30   20.40
   7  -2  -3  146.79   24.40
  -7   2   3  137.59   22.70
   6  -2  -3  361.86   31.20
  -6   2   3  350.66   30.60
   5  -2  -3  582.34   36.80
  -5   2   3  620.04   37.10
   4  -2  -3  112.09   15.80
  -4   2   3  104.09   15.40
   3  -2  -3  888.01   42.80
  -3   2   3  838.22   42.80
   2  -2  -3  936.71   47.60
   2  -2  -3 1182.08   41.90
  -2   2   3  959.60   48.20
   1  -2  -3  922.11   43.40
   1  -2  -3  960.60   37.80
  -1   2   3  847.42   43.50
  -1   2   3 1002.10   37.80
   0   2   3  200.98   14.50
  -1  -2  -3  917.11   42.90
   1   2   3  965.50   43.50
  -2  -2  -3  929.61   43.60
   2   2   3  902.01   44.10
  -3  -2  -3 1182.08   55.39
   3   2   3 1159.78   55.99
  -4  -2  -3   19.90   12.30
   4   2   3   10.90   12.80
  -5  -2  -3   -2.40   14.20
   5   2   3   -6.90   14.80
  -6  -2  -3   26.60   16.90
   6   2   3   35.30   18.10
  -7  -2  -3  -15.90   27.40
   7   2   3   -0.70   18.40
  -8  -2  -3   49.99   21.70
   8   2   3   33.50   22.90
  -9  -2  -3  363.56   42.40
   9   2   3  356.56   42.80
 -10  -2  -3    4.50   28.60
  10   2   3  -66.49   31.10
 -11  -2  -3   11.30   31.80
  11   2   3   17.40   39.80
  11  -3  -3   37.50   34.00
 -11   3   3   23.20   29.40
  10  -3  -3  -20.90   26.00
 -10   3   3    6.00   24.60
   9  -3  -3  -17.20   22.40
  -9   3   3   20.40   21.80
   8  -3  -3   15.30   19.50
  -8   3   3   27.60   18.60
   7  -3  -3    0.10   16.30
  -7   3   3   17.30   17.30
   6  -3  -3  320.27   29.50
  -6   3   3  325.67   29.50
   5  -3  -3  141.09   17.90
  -5   3   3  174.28   22.20
   4  -3  -3  267.67   22.00
  -4   3   3  255.07   23.30
   3  -3  -3  257.87   19.50
   3  -3  -3  255.57   10.30
  -3   3   3  245.98   21.00
   2  -3  -3  270.57   19.90
   2  -3  -3  316.87   12.00
  -2   3   3  270.87   21.10
  -1   3   3   61.29    2.60
  -1   3   3   23.30   10.00
   0  -3  -3  847.52   40.10
   0   3   3  868.91   40.40
  -1  -3  -3  662.93   33.70
   1   3   3  664.13   34.70
  -2  -3  -3 2213.98   96.49
   2   3   3 2213.88   97.09
  -3  -3  -3  362.96   27.80
   3   3   3  387.66   28.70
  -4  -3  -3  210.68   23.20
   4   3   3  170.48   22.40
  -5  -3  -3  106.69   20.10
   5   3   3  139.59   22.30
  -6  -3  -3   25.20   18.20
   6   3   3  -10.40   16.90
  -7  -3  -3   25.20   29.40
   7   3   3   12.00   23.50
  -8  -3  -3   81.09   26.10
   8   3   3   75.89   30.30
  -9  -3  -3   56.09   28.40
   9   3   3   22.40   30.10
 -10  -3  -3   21.50   33.20
  10   3   3   93.19   39.90
 -11  -3  -3   73.59   37.60
  11   3   3   82.59   45.10
  11  -4  -3    9.00   38.00
 -11   4   3   44.00   27.80
  10  -4  -3    8.30   27.80
 -10   4   3    0.20   24.50
   9  -4  -3   30.40   23.30
  -9   4   3   15.60   21.90
   8  -4  -3   42.50   20.70
  -8   4   3   -2.80   18.60
   7  -4  -3   -6.20   15.40
  -7   4   3   15.30   16.10
   6  -4  -3  145.09   22.80
  -6   4   3  127.79   22.30
   5  -4  -3  112.79   16.20
   5  -4  -3  109.89    4.80
  -5   4   3  139.79   18.30
   4  -4  -3  173.28   19.30
   4  -4  -3  191.58    8.00
  -4   4   3  237.58   22.80
   3  -4  -3   30.10   10.50
  -3   4   3   20.10   11.40
  -2   4   3 1303.97   59.29
  -2   4   3 1203.88   50.79
  -2   4   3 1290.37   56.29
  -1   4   3  154.98   18.50
  -1   4   3  193.18   16.30
   0  -4  -3  416.76   24.80
   0   4   3  402.16   26.10
  -1  -4  -3    5.20    9.90
   1   4   3    6.00   11.30
  -2  -4  -3   28.20   13.20
   2   4   3   39.50   14.90
  -3  -4  -3  312.37   27.70
   3   4   3  297.27   30.50
  -4  -4  -3  185.68   24.10
   4   4   3  227.28   26.80
  -5  -4  -3   87.39   21.10
   5   4   3   76.89   21.80
  -6  -4  -3  252.37   31.40
   6   4   3  234.88   31.40
  -7  -4  -3   45.40   28.30
   7   4   3   45.00   26.90
  -8  -4  -3  -16.30   24.40
   8   4   3   -5.10   28.10
  -9  -4  -3   77.79   32.40
   9   4   3   95.29   36.30
 -10  -4  -3    6.40   35.60
  10   4   3   23.40   40.00
 -11  -4  -3  -62.59   36.40
  11   4   3  -19.90   50.19
  10  -5  -3   -0.20   24.60
 -10   5   3    7.20   23.80
   9  -5  -3   42.90   21.10
  -9   5   3   64.99   23.00
   8  -5  -3   45.10   19.20
  -8   5   3   47.10   19.60
   7  -5  -3   60.29   17.10
  -7   5   3   63.79   18.30
   6  -5  -3   25.10   13.40
  -6   5   3   32.60   15.30
   5  -5  -3    4.00    1.00
   5  -5  -3   17.80   12.20
  -5   5   3    2.20   14.20
  -4   5   3  216.28   23.70
  -3   5   3  375.76   23.50
  -3   5   3  351.06   28.00
  -2   5   3   97.79    4.40
  -2   5   3  106.99   13.50
  -2   5   3   87.09   14.80
  -1   5   3  945.71   46.90
   0  -5  -3  148.49   18.00
  -1  -5  -3   68.59   15.00
   1   5   3   79.19   16.50
  -2  -5  -3  334.47   29.30
   2   5   3  375.96   32.80
  -3  -5  -3   21.90   16.20
   3   5   3   10.10   17.50
  -4  -5  -3   31.40   18.60
   4   5   3    4.90   18.30
  -5  -5  -3  235.08   29.90
   5   5   3  287.07   35.50
  -6  -5  -3  -12.30   20.50
   6   5   3   -2.20   22.50
  -7  -5  -3   48.70   27.80
   7   5   3   66.99   30.00
  -8  -5  -3   14.50   29.10
   8   5   3  -28.10   30.50
  -9  -5  -3    0.80   32.50
   9   5   3   28.80   37.50
 -10  -5  -3  -18.70   38.80
  10   5   3   33.20   45.40
 -11  -5  -3   34.60   73.49
  12  -6  -3   14.00    2.80
  11  -6  -3   13.00    2.20
  10  -6  -3   10.40   21.80
  10  -6  -3   10.60    1.90
 -10   6   3   25.90   23.60
   9  -6  -3   -4.40   18.50
  -9   6   3    7.20   21.20
   8  -6  -3   20.70   16.90
  -8   6   3   -4.40   18.10
   7  -6  -3   60.89   16.60
  -7   6   3   57.89   17.70
  -6   6   3  178.28   22.30
  -5   6   3  239.18   27.10
  -5   6   3  210.48   19.90
  -4   6   3   -4.80   10.30
  -4   6   3    8.30   14.10
  -3   6   3   40.00   12.10
  -3   6   3   11.40   13.60
  -3   6   3   11.10    1.50
  -2   6   3   35.80   15.70
  -2   6   3   32.40   12.90
  -2   6   3   23.00    1.80
   1  -6  -3  373.76   26.00
  -1   6   3  389.66   28.80
   0  -6  -3   60.89   16.40
   0   6   3   54.79   15.80
  -1  -6  -3  151.28   20.60
   1   6   3  162.58   22.40
  -2  -6  -3   47.50   17.60
   2   6   3   44.20   20.40
  -3  -6  -3  136.29   23.80
   3   6   3  195.18   26.60
  -4  -6  -3   11.50   19.50
   4   6   3   29.70   22.40
  -5  -6  -3   16.80   22.80
   5   6   3    9.70   23.60
  -6  -6  -3  -31.90   23.60
   6   6   3   -3.20   26.80
  -7  -6  -3   18.10   28.80
   7   6   3   16.60   31.30
  -8  -6  -3   22.50   32.30
   8   6   3    8.30   35.60
  -9  -6  -3  -26.20   36.30
   9   6   3   19.70   42.30
 -10  -6  -3  -21.30   43.20
  10   6   3   56.19   50.19
 -10   7   3    1.80   20.40
  -9   7   3    6.00   20.20
  -8   7   3    3.10   19.40
  -7   7   3   32.80   18.70
  -7   7   3   28.30   13.60
  -6   7   3   85.49   20.10
  -6   7   3  112.29   16.10
  -5   7   3   11.70   12.30
  -5   7   3    5.90   17.50
  -4   7   3    7.70   15.50
  -4   7   3   31.20   13.70
  -3   7   3    2.50   16.00
  -3   7   3   -1.20   12.80
  -3   7   3   -2.80    1.50
  -2   7   3   -2.60   14.10
  -2   7   3   -2.20    1.50
   1  -7  -3   66.09   14.80
  -1   7   3   35.70   17.20
   0   7   3  162.38   23.10
  -1  -7  -3   14.10   16.90
   1   7   3   32.00   19.20
  -2  -7  -3   38.10   19.30
   2   7   3   38.70   21.60
  -3  -7  -3   10.60   20.00
   3   7   3   29.90   21.90
  -4  -7  -3   89.99   26.20
   4   7   3  142.29   29.50
  -5  -7  -3    0.10   24.40
   5   7   3   19.10   27.60
  -6  -7  -3    2.00   29.10
   6   7   3   -2.70   30.90
  -7  -7  -3  -30.50   30.70
   7   7   3   37.90   35.80
  -8  -7  -3   18.50   35.10
   8   7   3  114.29   44.50
  -9  -7  -3  -27.40   41.20
   9   7   3  -73.29   44.60
 -10  -7  -3   37.30   48.80
  10   7   3   57.79   57.09
 -10   8   3   26.40   15.50
 -10   8   3   19.70   13.50
  -9   8   3   13.60   15.00
  -9   8   3   26.90   18.40
  -8   8   3   -7.50   19.50
  -7   8   3  -12.40   16.70
  -7   8   3   37.80   20.60
  -6   8   3   27.50   15.20
  -6   8   3    1.10   19.50
  -5   8   3   21.60   15.40
  -5   8   3   13.60   20.20
  -4   8   3  114.09   23.70
  -4   8   3   81.39   18.50
  -3   8   3    1.10    1.70
  -3   8   3   20.10   15.60
  -3   8   3  -12.00   18.50
  -2   8   3  245.58   30.50
  -2   8   3  244.18   29.30
   1  -8  -3   -4.90   14.10
  -1   8   3   -6.00   17.90
   0   8   3    1.40   23.90
  -1  -8  -3   58.89   20.30
   1   8   3   25.80   21.50
  -2  -8  -3   12.50   19.50
   2   8   3    0.30   24.40
  -3  -8  -3   42.60   24.00
   3   8   3   -6.40   25.70
  -4  -8  -3   66.19   28.30
   4   8   3  -20.10   27.50
  -5  -8  -3  -41.30   27.30
   5   8   3  -17.10   30.40
  -6  -8  -3   43.20   32.20
   6   8   3  -12.80   36.70
  -7  -8  -3  -36.00   33.60
   7   8   3    6.80   40.00
  -8  -8  -3   59.99   42.40
   8   8   3  -48.20   45.60
  -9  -8  -3   -9.70   48.50
   9   8   3  -10.40   52.39
 -10  -8  -3  -53.49   54.89
  10   8   3  -59.09   67.09
  -9   9   3   16.50   11.70
  -8   9   3   14.40   16.20
  -8   9   3   29.90   20.30
  -7   9   3   24.60   17.60
  -7   9   3   36.80   22.60
  -6   9   3   22.10   18.00
  -6   9   3   16.30   23.10
  -5   9   3    7.90   23.40
  -5   9   3   18.00   18.80
  -4   9   3    8.00   24.00
  -4   9   3  -11.90   18.30
  -3   9   3   91.09   23.40
  -3   9   3  103.69   26.10
  -3   9   3  149.49    6.20
  -2   9   3   53.99   24.60
  -2   9   3   39.80   21.30
   1  -9  -3  171.58   25.60
  -1   9   3  223.48   30.30
   0   9   3   35.30   24.20
  -1  -9  -3  116.29   26.10
   1   9   3   84.89   28.30
  -2  -9  -3   23.20   22.40
   2   9   3   -3.20   27.60
  -3  -9  -3   -7.90   25.90
   3   9   3   23.50   31.30
  -4  -9  -3   15.00   29.30
   4   9   3  -39.80   30.70
  -5  -9  -3    7.80   33.00
   5   9   3   48.20   38.40
  -6  -9  -3   26.00   37.40
   6   9   3   37.50   41.20
  -7  -9  -3    3.70   40.30
   7   9   3   14.20   49.00
  -8  -9  -3   19.40   45.60
   8   9   3  -36.70   52.09
  -9  -9  -3 -102.89   50.59
   9   9   3   62.19   62.39
  -8  10   3   -6.90   21.60
  -8  10   3    0.40   18.10
  -7  10   3  -10.90   21.00
  -7  10   3    2.80   24.40
  -6  10   3   45.10   27.20
  -6  10   3  -18.90   32.00
  -5  10   3  108.89   30.40
  -5  10   3   28.00   23.00
  -4  10   3  -15.20   22.60
  -4  10   3    2.40    2.10
  -4  10   3   -0.50   27.40
  -3  10   3   46.80   28.60
  -3  10   3    2.80   24.60
  -3  10   3   17.20    2.40
  -2  10   3   -5.30   24.60
  -2  10   3  -20.50   28.70
  -1  10   3  -12.80   27.30
   0 -10  -3   23.80   20.70
   0  10   3   27.70   28.30
  -1 -10  -3    2.80   22.40
   1  10   3   39.10   31.70
  -2 -10  -3    1.60   27.30
   2  10   3  -21.20   33.60
  -3 -10  -3    5.40   29.00
   3  10   3    1.80   36.00
  -4 -10  -3   16.60   32.20
   4  10   3   53.19   40.30
  -5 -10  -3    8.50   37.00
   5  10   3  -47.00   40.70
  -6 -10  -3  -30.20   38.40
   6  10   3   30.60   48.50
  -7 -10  -3  -30.90   47.30
   7  10   3  -75.09   46.40
  -8  11   3   -1.00   19.20
  -7  11   3    8.30   24.90
  -6  11   3    0.30   25.70
  -5  11   3   27.60   27.30
  -5  11   3   33.10   32.40
  -4  11   3    7.00    2.30
  -4  11   3   30.60   34.00
  -4  11   3   -0.40   28.30
  -3  11   3   10.40    2.50
  -3  11   3  -11.50   32.30
  -3  11   3  -42.50   27.80
  -2  11   3    8.10    2.80
  -2  11   3   -2.30   33.70
  -2  11   3  -50.09   28.30
  -1  11   3   -6.40   30.80
   0 -11  -3   13.40   25.80
   0  11   3  -24.70   32.70
  -1 -11  -3   12.70   26.60
   1  11   3  -12.60   45.70
  -2 -11  -3   10.60   31.40
   2  11   3   19.50   41.40
  -3 -11  -3   19.20   33.20
   3  11   3  -49.70   41.30
  -4 -11  -3   13.40   40.90
   4  11   3   -1.70   60.79
  -7  12   3    1.20   29.10
  -6  12   3  -49.00   32.30
  -5  12   3   21.90   52.79
  -4  12   3    3.80    2.60
  -3  12   3   34.70    3.20
  -2  12   3    9.30    3.00
  -3  13   3   13.30    3.10
  -2  13   3    4.70    3.50
  -5  13  -4  -10.40   28.40
   0 -12   4   18.10   36.80
  -1  12  -4  -64.59   35.20
   1 -12   4  -67.89   28.10
  -2  12  -4   51.59   36.20
   2 -12   4   -6.80   27.30
  -4  12  -4   26.50   29.40
  -5  12  -4   36.00   20.30
  -4 -11   4   -9.00   62.99
   3  11  -4   12.20   47.70
  -3 -11   4   84.49   38.20
   2  11  -4   30.70   49.20
   1  11  -4    7.00   40.00
  -1 -11   4  -48.80   29.20
   0  11  -4   11.80   35.10
   0 -11   4   20.10   28.30
  -1  11  -4    4.90   34.50
   1 -11   4   11.20   25.70
  -2  11  -4   -1.50   31.10
   2 -11   4   55.29   23.20
  -3  11  -4   -1.00   27.40
   3 -11   4   20.80   21.40
  -4  11  -4   34.00   24.90
  -4  11  -4    7.10   22.60
  -5  11  -4   20.80   12.80
   6  10  -4  -90.99   49.00
  -6 -10   4  -39.50   41.70
   5  10  -4  -58.99   47.50
  -5 -10   4   66.59   40.30
   4  10  -4   78.39   50.19
  -4 -10   4  108.99   39.50
   3  10  -4   79.79   43.30
  -3 -10   4   51.99   33.00
   2  10  -4   20.20   39.20
  -2 -10   4   10.90   29.20
   1  10  -4   41.00   35.20
  -1 -10   4   81.69   27.10
   0  10  -4  -45.80   28.40
   0 -10   4   -5.70   22.80
  -1  10  -4   31.10   28.80
   1 -10   4   67.49   23.30
  -2  10  -4    3.00   25.20
   2 -10   4   -0.70   17.80
  -3  10  -4   20.40   23.80
   3 -10   4   33.90   18.00
  -4  10  -4  -10.00   21.10
  -4  10  -4    3.50   18.10
  -9  -9   4   -1.30   83.59
   8   9  -4   80.89   62.89
  -8  -9   4   48.30   49.20
   7   9  -4   40.60   54.09
  -7  -9   4  -27.90   43.20
   6   9  -4   54.89   48.00
  -6  -9   4  -29.10   38.20
   5   9  -4  114.09   45.10
  -5  -9   4   12.10   37.80
   4   9  -4   23.00   38.50
  -4  -9   4  -57.79   29.30
   3   9  -4   -5.60   33.40
  -3  -9   4   19.60   28.80
   2   9  -4   -3.70   33.00
  -2  -9   4   35.60   22.40
   1   9  -4   21.30   29.20
  -1  -9   4   26.30   21.10
   0   9  -4   22.40   26.20
   0  -9   4   35.20   21.50
  -1   9  -4   35.90   23.80
   1  -9   4   37.60   18.90
  -2   9  -4   53.19   22.80
   2  -9   4   45.20   16.80
  -3   9  -4   49.30   20.50
   3  -9   4   36.50   14.40
  -4   9  -4   12.30   14.20
  -4   9  -4   70.69   17.40
  10   8  -4  -34.60   69.19
 -10  -8   4  -55.29   55.69
   9   8  -4    2.80   59.29
  -9  -8   4  -42.30   48.40
   8   8  -4  -80.59   52.49
  -8  -8   4  -76.49   41.80
   7   8  -4   -1.80   46.10
  -7  -8   4   -0.80   38.10
   6   8  -4  200.38   46.90
  -6  -8   4  115.39   39.30
   5   8  -4   -7.30   35.50
  -5  -8   4    3.00   31.00
   4   8  -4  107.99   37.40
  -4  -8   4   70.69   30.90
   3   8  -4  193.48   37.30
  -3  -8   4  264.17   37.00
   2   8  -4   53.19   27.00
  -2  -8   4   27.70   21.90
   1   8  -4   30.00   22.90
  -1  -8   4  -26.40   15.60
   0   8  -4    0.30   21.10
   0  -8   4   16.90   16.50
  -1   8  -4   78.69   22.00
   1  -8   4  100.99   18.20
  -2   8  -4   21.40   17.40
   2  -8   4   13.10   13.50
  -3   8  -4   13.60   15.30
   3  -8   4   16.20   11.20
  -4   8  -4   42.40   11.10
  -4   8  -4   31.80   12.20
  11   7  -4  -73.99   72.69
 -11  -7   4  -57.39   58.69
  10   7  -4   75.19   62.49
 -10  -7   4  -79.79   50.99
   9   7  -4  -61.89   51.19
  -9  -7   4  -23.60   45.80
   8   7  -4  122.09   52.39
  -8  -7   4  304.17   50.09
   7   7  -4  -22.60   38.50
  -7  -7   4   14.40   35.80
   6   7  -4  -11.20   35.80
  -6  -7   4   29.40   33.70
   5   7  -4   74.29   34.10
  -5  -7   4   50.69   31.70
   4   7  -4   47.80   29.60
  -4  -7   4   22.90   24.90
   3   7  -4   66.89   28.10
  -3  -7   4   56.69   24.50
   2   7  -4   40.00   24.10
  -2  -7   4   43.20   20.10
   1   7  -4  -41.40   18.50
   0   7  -4   89.49   21.90
   0  -7   4  114.19   19.80
  -1   7  -4   24.00   15.90
   1  -7   4   34.70   13.50
  -2   7  -4   66.79   16.30
   2  -7   4   46.30   12.70
  -3   7  -4    3.60   11.30
   3  -7   4    7.30    8.60
  -4   7  -4   -1.60    6.70
  -4   7  -4    0.00    9.10
  11   6  -4  -40.30   65.19
 -11  -6   4   76.59   60.49
  10   6  -4  -51.59   53.59
 -10  -6   4   75.59   47.90
   9   6  -4   35.50   49.90
  -9  -6   4   33.20   40.90
   8   6  -4   11.80   44.40
  -8  -6   4  -77.89   33.90
   7   6  -4  -27.10   34.80
  -7  -6   4   64.99   34.00
   6   6  -4  139.19   37.20
  -6  -6   4  128.19   35.20
   5   6  -4   34.10   28.10
  -5  -6   4   55.09   28.10
   4   6  -4  124.29   30.70
  -4  -6   4  131.49   26.90
   3   6  -4  161.38   30.30
  -3  -6   4  123.79   25.80
   2   6  -4  249.48   31.20
  -2  -6   4  237.48   29.10
   0   6  -4   39.30   16.80
   0  -6   4   32.20   14.30
  -1   6  -4  128.69   18.50
   1  -6   4  133.19   17.00
  -2   6  -4   43.50   12.70
   2  -6   4   45.20   10.40
  -3   6  -4  149.69   16.70
   3  -6   4  166.28   13.00
 -11  -5   4   53.09   53.99
  10   5  -4   34.90   48.50
 -10  -5   4 -121.29   40.90
   9   5  -4   24.70   40.70
  -9  -5   4   33.60   37.40
   8   5  -4    6.60   37.20
  -8  -5   4   22.20   33.10
   7   5  -4   64.79   34.60
  -7  -5   4    4.60   29.70
   6   5  -4   -8.30   27.80
  -6  -5   4   20.00   26.80
   5   5  -4  238.48   36.40
  -5  -5   4  284.07   35.30
   4   5  -4    3.30   22.40
  -4  -5   4   -2.20   20.00
   3   5  -4 1138.79   65.29
  -3  -5   4 1158.78   64.09
   2   5  -4   61.79   21.20
  -2  -5   4   64.39   19.30
   1   5  -4  133.99   20.80
   0   5  -4  485.35   33.30
   0  -5   4  493.05   31.40
  -1   5  -4  755.12   41.30
   1  -5   4  799.62   39.50
  -2   5  -4  128.19   16.10
   2  -5   4  127.49   13.90
  -3   5  -4  223.08   14.30
   3  -5   4  192.18   11.70
  11   4  -4   37.40   53.89
 -11  -4   4  137.89   49.10
  10   4  -4  -60.69   42.70
 -10  -4   4   16.10   40.30
   9   4  -4   30.70   39.80
  -9  -4   4   47.70   35.40
   8   4  -4  -12.40   32.70
  -8  -4   4  -24.80   27.70
   7   4  -4    8.40   28.80
  -7  -4   4  -53.09   24.40
   6   4  -4  216.08   35.10
  -6  -4   4  187.88   31.60
   5   4  -4   27.80   23.50
  -5  -4   4   46.00   23.50
   4   4  -4 1029.90   60.79
  -4  -4   4  982.00   58.79
   3   4  -4  -17.60   17.40
  -3  -4   4   -6.90   15.60
   2   4  -4  319.47   32.50
  -2  -4   4  365.06   30.90
   1   4  -4  180.18   21.40
   0   4  -4  436.16   29.40
   0  -4   4  464.35   28.00
  -1   4  -4   57.19   11.20
   1  -4   4   84.49   11.10
  -2   4  -4  204.28   15.50
   2  -4   4  197.68   14.00
   8  -4   4  151.48   18.70
  -9   4  -4   -2.20    9.90
   9  -4   4   15.30   15.70
 -10   4  -4   35.20   13.80
  10  -4   4   47.30   19.70
 -11   4  -4  -20.60   15.70
  11  -4   4  -19.20   23.70
  11   3  -4  -66.09   43.90
 -11  -3   4   11.00   42.80
  10   3  -4   -1.60   38.00
 -10  -3   4  -46.90   36.40
   9   3  -4   28.90   36.20
  -9  -3   4   83.39   34.00
   8   3  -4  121.09   35.10
  -8  -3   4   74.99   31.50
   7   3  -4  -16.80   25.20
  -7  -3   4   29.60   26.30
   6   3  -4  197.08   31.80
  -6  -3   4  166.58   28.80
   5   3  -4  549.74   46.10
  -5  -3   4  590.44   44.80
   4   3  -4  132.59   25.10
  -4  -3   4  168.98   25.50
   3   3  -4    3.00   16.30
  -3  -3   4   -1.80   15.10
   2   3  -4  132.49   19.60
  -2  -3   4  139.49   18.90
   1   3  -4  312.97   39.90
  -1  -3   4  391.56   25.10
   0   3  -4  613.64   31.70
   0  -3   4  528.85   30.10
  -1   3  -4  718.23   35.70
   1  -3   4  764.72   35.50
  -2   3  -4  795.42   35.00
   2  -3   4  755.02   34.50
   3  -3   4   43.40    4.00
   5  -3   4  286.87   16.20
   5  -3   4  261.97   15.40
  -6   3  -4   21.90    6.90
   6  -3   4   31.30    9.40
  -7   3  -4   75.29   10.70
   7  -3   4   81.89   13.80
  -8   3  -4   53.59   12.30
   8  -3   4   47.10   16.00
  -9   3  -4   11.80   13.70
   9  -3   4   21.20   18.40
 -10   3  -4   17.60   16.60
  10  -3   4   49.99   23.20
 -11   3  -4   -3.00   18.90
  11  -3   4    0.60   27.40
  11   2  -4  -25.70   44.80
 -11  -2   4   -7.50   38.40
  10   2  -4   36.70   37.60
 -10  -2   4   34.80   35.20
   9   2  -4  -16.80   29.80
  -9  -2   4   69.99   30.70
   8   2  -4   19.50   27.60
  -8  -2   4   37.50   26.00
   7   2  -4  535.55   49.20
  -7  -2   4  484.95   45.40
   6   2  -4  195.08   30.30
  -6  -2   4  189.18   29.50
   5   2  -4   91.69   22.50
  -5  -2   4   51.89   20.40
   4   2  -4   41.80   18.70
  -4  -2   4   30.80   17.00
   3   2  -4   21.20   14.90
  -3  -2   4   22.40   14.70
   2   2  -4 1232.18   58.89
  -2  -2   4 1169.68   57.79
   1   2  -4 3210.28  137.49
  -1  -2   4 3255.27  137.19
   0   2  -4  312.47   20.60
  -1   2  -4 1778.22   75.39
   1  -2   4 1750.22   75.19
  -2   2  -4  424.36   20.50
   2  -2   4  415.26   21.10
   3  -2   4  414.76   18.90
   3  -2   4  373.66   19.80
   4  -2   4  346.97   19.00
  -5   2  -4  252.17   16.60
   5  -2   4  251.77   18.50
  -6   2  -4   30.70    9.50
   6  -2   4   27.20   11.60
  -7   2  -4  158.98   19.30
   7  -2   4  207.88   23.90
  -8   2  -4   16.20   12.90
   8  -2   4   14.30   16.80
  -9   2  -4  115.19   19.90
   9  -2   4  107.39   22.80
 -10   2  -4   80.39   21.00
  10  -2   4   93.89   24.70
 -11   2  -4   -6.30   21.60
  11  -2   4  -29.50   28.70
  11   1  -4  -69.59   38.00
 -11  -1   4  -38.50   36.00
  10   1  -4  -25.80   32.90
 -10  -1   4   73.59   33.40
   9   1  -4   13.80   29.70
  -9  -1   4  -12.30   26.40
   8   1  -4   25.10   25.20
  -8  -1   4    2.30   24.20
   7   1  -4  137.99   27.60
  -7  -1   4  100.39   26.30
   6   1  -4  137.79   25.10
  -6  -1   4  153.48   25.50
   5   1  -4  795.62   49.50
  -5  -1   4  754.12   48.20
   4   1  -4   23.10   15.60
  -4  -1   4   37.50   16.30
   3   1  -4   13.20   13.50
  -3  -1   4   17.80   13.10
   2   1  -4  440.86   28.80
  -2  -1   4  449.56   28.10
   1   1  -4  921.71   46.00
  -1  -1   4 1002.20   46.20
   0   1  -4  499.85   26.70
  -1   1  -4   25.00    7.10
  -1   1  -4   39.00    1.70
   1  -1   4   24.00    7.10
   2  -1   4   47.80    6.20
   2  -1   4   45.80    2.10
  -3   1  -4  343.27   18.20
   3  -1   4  365.36   19.00
  -4   1  -4 1075.49   47.50
   4  -1   4 1049.89   48.40
  -5   1  -4  303.27   21.60
   5  -1   4  340.57   23.40
  -6   1  -4  150.28   18.60
   6  -1   4  177.38   21.40
  -7   1  -4  102.89   16.20
   7  -1   4  123.19   18.70
  -8   1  -4    7.50   13.80
   8  -1   4   13.80   17.70
  -9   1  -4   76.39   20.30
   9  -1   4   91.09   24.60
 -10   1  -4  303.67   37.00
  10  -1   4  287.37   36.70
 -11   1  -4  -35.70   23.30
  11  -1   4   34.40   31.60
  11   0  -4   56.39   40.80
 -11   0   4   -1.70   37.10
  10   0  -4   27.30   32.60
 -10   0   4   53.49   33.20
   9   0  -4   52.19   30.20
  -9   0   4   30.90   28.10
   8   0  -4   10.30   23.70
  -8   0   4    5.30   23.90
  -7   0   4   16.30   20.70
   6   0  -4   59.59   20.50
  -6   0   4   83.99   20.90
   5   0  -4  205.58   26.90
  -5   0   4  207.58   26.80
   4   0  -4 2210.98  100.39
   3   0  -4  281.37   24.40
  -3   0   4  248.28   22.70
   2   0  -4  242.88   21.10
  -2   0   4  269.37   21.60
   1   0  -4  107.09   13.10
  -1   0   4   84.49   12.30
   0   0  -4  179.08    6.90
   0   0  -4  148.59   14.60
   0   0   4  145.79   14.90
  -1   0  -4   57.69    8.70
   1   0   4   63.69    2.70
   2   0   4  109.89   11.00
  -3   0  -4  375.16   21.00
   3   0   4  378.46   21.80
  -4   0  -4 1715.93   73.69
   4   0   4 1628.44   74.09
  -5   0  -4   33.10   11.50
   5   0   4   20.60   12.10
  -6   0  -4  350.36   28.00
   6   0   4  411.06   30.40
  -7   0  -4   15.40   14.00
   7   0   4   12.50   16.00
  -8   0  -4   67.89   19.00
   8   0   4   61.99   21.70
  -9   0  -4  -20.70   18.80
   9   0   4  -16.90   22.90
 -10   0  -4   -9.70   21.90
  10   0   4    1.90   27.10
 -11   0  -4  -16.30   28.10
  11   0   4    4.80   32.60
  11  -1  -4  -26.40   33.90
 -11   1   4  -60.09   32.60
  10  -1  -4  -11.60   30.10
 -10   1   4   82.29   33.80
   9  -1  -4    7.80   26.30
  -9   1   4   54.59   25.70
   8  -1  -4  192.38   30.70
  -8   1   4  161.68   28.00
   7  -1  -4   32.90   21.10
   6  -1  -4   78.59   19.70
  -6   1   4   69.29   20.00
   5  -1  -4   48.60   15.90
  -5   1   4   25.30   15.70
   4  -1  -4   26.20   13.00
  -4   1   4   30.00   13.10
   3  -1  -4 2134.49   93.59
  -3   1   4 2081.39   93.59
   2  -1  -4 6718.03  282.07
  -2   1   4 6982.30  282.47
   1  -1  -4 1492.45   63.59
   1  -1  -4 1617.74   69.99
  -1   1   4 1652.13   70.59
   0  -1  -4 2365.96   97.09
   0  -1  -4 2409.16  102.39
   0   1   4 2421.66   97.09
   0   1   4 2466.65  102.79
   1   1   4  233.08   15.80
   1   1   4  230.88   17.80
  -2  -1  -4  209.78   15.90
   2   1   4  222.18   15.90
  -3  -1  -4  470.95   26.80
   3   1   4  478.75   27.40
  -4  -1  -4   15.30   10.90
   4   1   4    9.00   11.10
  -5  -1  -4  878.61   46.90
   5   1   4  917.91   48.20
  -6  -1  -4  160.58   20.60
   6   1   4  167.78   22.80
  -7  -1  -4  177.38   23.10
   7   1   4  130.69   22.90
  -8  -1  -4   17.80   20.10
   8   1   4   -2.60   20.00
  -9  -1  -4   63.99   23.40
   9   1   4   22.90   26.40
 -10  -1  -4   75.39   27.40
  10   1   4   48.50   31.30
 -11  -1  -4   36.40   31.00
  11   1   4   74.19   38.90
  11  -2  -4   24.70   36.80
 -11   2   4   50.79   34.60
  10  -2  -4   29.70   30.40
 -10   2   4  -47.50   28.70
   9  -2  -4   30.80   25.90
  -9   2   4   55.79   26.00
   8  -2  -4   16.00   22.60
  -8   2   4   40.20   22.00
   7  -2  -4  505.85   40.50
  -7   2   4  487.35   40.20
   6  -2  -4   75.99   18.00
  -6   2   4  119.79   21.20
   5  -2  -4  259.77   27.10
  -5   2   4  267.57   27.70
   4  -2  -4   17.00   12.40
  -4   2   4   38.80   13.70
   3  -2  -4  124.69   16.10
  -3   2   4  130.69   16.00
   2  -2  -4    1.50    9.30
  -2   2   4    1.10   10.00
   1  -2  -4  410.76   24.70
   1  -2  -4  438.66   17.30
  -1   2   4  401.26   25.50
  -1   2   4  438.86   17.30
   0   2   4   97.49   13.20
   0   2   4   83.09   10.40
  -1  -2  -4  719.93   34.90
   1   2   4  716.63   35.30
  -2  -2  -4   33.40   10.10
   2   2   4   37.50   10.80
  -3  -2  -4  671.23   35.50
   3   2   4  654.23   36.60
  -4  -2  -4   97.19   16.20
   4   2   4   99.79   17.90
  -5  -2  -4   21.90   14.60
   5   2   4   -8.10   13.70
  -6  -2  -4   35.80   17.40
   6   2   4   23.50   18.30
  -7  -2  -4  123.19   22.50
   7   2   4  121.29   24.70
  -8  -2  -4   37.90   21.90
   8   2   4    6.30   22.40
  -9  -2  -4   20.90   23.80
   9   2   4   72.09   29.20
 -10  -2  -4  -13.50   27.90
  10   2   4   -9.40   32.40
 -11  -2  -4  -60.79   28.70
  11   2   4   49.10   42.90
  11  -3  -4   44.00   35.50
 -11   3   4   53.49   31.50
  10  -3  -4   31.20   27.50
 -10   3   4    7.80   27.70
   9  -3  -4   25.80   24.60
  -9   3   4  -18.40   23.10
   8  -3  -4  -26.70   20.80
  -8   3   4   25.70   20.00
   7  -3  -4  124.49   23.50
  -7   3   4  112.19   21.40
   6  -3  -4  358.06   32.20
  -6   3   4  367.26   32.60
   5  -3  -4  708.03   41.50
  -5   3   4  685.73   42.10
   4  -3  -4  165.38   21.00
  -4   3   4  173.28   22.30
   3  -3  -4 1070.59   51.49
   3  -3  -4 1051.89   42.80
  -3   3   4 1070.29   52.99
   2  -3  -4  263.57   11.60
  -2   3   4  364.46   23.60
  -1   3   4  749.73   41.20
  -1   3   4  877.81   33.30
   0   3   4  527.65   28.60
  -1  -3  -4   40.60   10.50
   1   3   4   41.80   11.80
  -2  -3  -4   79.49   13.30
   2   3   4   53.29   13.20
  -3  -3  -4  574.54   34.40
   3   3   4  536.05   34.80
  -4  -3  -4   54.09   16.50
   4   3   4   54.69   17.50
  -5  -3  -4  181.58   23.70
   5   3   4  180.58   24.60
  -6  -3  -4   27.10   17.90
   6   3   4    2.10   18.70
  -7  -3  -4   38.50   22.20
   7   3   4   34.00   22.90
  -8  -3  -4   39.30   24.80
   8   3   4   55.19   28.20
  -9  -3  -4   -1.60   27.30
   9   3   4   27.80   29.80
 -10  -3  -4   -9.70   31.80
  10   3   4  -59.09   33.60
 -11  -3  -4  -64.09   34.50
  11   3   4  -62.29   44.00
  10  -4  -4   66.29   30.10
 -10   4   4   11.50   26.80
   9  -4  -4  -13.70   21.70
  -9   4   4   21.60   22.80
   8  -4  -4   19.70   21.10
  -8   4   4   32.60   21.10
   7  -4  -4   16.50   16.70
  -7   4   4   15.50   17.50
   6  -4  -4  121.29   19.10
  -6   4   4   86.79   29.90
   5  -4  -4   45.50    2.60
   5  -4  -4   64.79   15.80
  -5   4   4   84.89   18.10
   4  -4  -4  887.61   45.40
   4  -4  -4  842.42   35.20
  -4   4   4  910.51   48.00
   3  -4  -4   40.60   12.40
   3  -4  -4   81.89    3.50
  -3   4   4   94.49   17.10
  -2   4   4  765.82   36.60
  -2   4   4  733.93   40.40
  -2   4   4  712.53   29.60
  -1   4   4   49.90   11.40
  -1   4   4  111.49   15.50
  -1   4   4   79.69    3.60
   0  -4  -4  187.48   17.90
   0   4   4  184.48   19.00
  -1  -4  -4  132.99   16.80
   1   4   4  153.18   19.30
  -2  -4  -4  765.32   41.20
   2   4   4  700.63   41.40
  -3  -4  -4   16.90   14.70
   3   4   4   29.50   16.00
  -4  -4  -4  660.13   43.70
   4   4   4  744.43   46.40
  -5  -4  -4   -8.30   17.40
   5   4   4    5.30   17.70
  -6  -4  -4  336.57   38.20
   6   4   4  386.86   41.10
  -7  -4  -4   31.90   23.10
   7   4   4  -30.00   22.40
  -8  -4  -4   37.30   28.10
   8   4   4   43.80   29.70
  -9  -4  -4   74.69   32.80
   9   4   4   73.49   35.20
 -10  -4  -4    7.70   35.50
  10   4   4   -6.50   38.30
 -11  -4  -4  -32.80   64.19
  11   4   4    0.10   69.59
  10  -5  -4   23.80   27.80
 -10   5   4   -0.60   26.60
   9  -5  -4    5.90   21.60
  -9   5   4   17.00   23.30
   8  -5  -4   15.70   18.90
  -8   5   4   27.10   20.30
   7  -5  -4   12.10    1.50
   7  -5  -4   -9.00   16.00
  -7   5   4   11.50   18.00
   6  -5  -4   18.70   14.80
   6  -5  -4    8.80    1.40
  -6   5   4   11.90   16.60
   5  -5  -4  200.98    8.60
  -5   5   4  258.67   28.60
  -4   5   4   24.40   14.70
  -3   5   4  133.29   15.50
  -3   5   4  139.49   19.30
  -2   5   4  149.88   19.70
  -2   5   4  123.39   15.60
  -2   5   4  116.39    5.30
  -1   5   4  322.97   27.30
   0  -5  -4  246.78   22.70
   0   5   4  235.98   24.60
  -1  -5  -4   36.80   13.60
   1   5   4  -13.20   14.40
  -2  -5  -4  768.72   44.30
   2   5   4  767.42   46.30
  -3  -5  -4  154.38   22.30
   3   5   4  107.09   23.00
  -4  -5  -4  191.08   26.10
   4   5   4  188.28   28.10
  -5  -5  -4  320.37   37.10
   5   5   4  292.07   37.60
  -6  -5  -4    3.20   22.90
   6   5   4   13.60   23.90
  -7  -5  -4   72.19   28.60
   7   5   4  101.69   31.00
  -8  -5  -4   67.59   31.70
   8   5   4   77.69   33.70
  -9  -5  -4    8.00   33.60
   9   5   4   66.69   41.60
 -10  -5  -4   24.10   41.20
  10   5   4  135.19   47.30
  10  -6  -4   59.39   27.20
 -10   6   4    7.30   27.10
   9  -6  -4   16.00   20.60
  -9   6   4   10.70   22.80
   8  -6  -4  -24.10   17.80
   8  -6  -4    1.80    2.00
  -8   6   4  -16.30   20.90
   7  -6  -4  127.09   20.30
   7  -6  -4   89.09    4.20
  -7   6   4   83.59   22.50
  -6   6   4    2.10   17.30
  -5   6   4    4.40   11.00
  -5   6   4   34.00   17.60
  -4   6   4   41.20   12.40
  -3   6   4   97.19    4.30
  -3   6   4   88.59   19.60
  -3   6   4   83.39   15.00
  -2   6   4  151.08   21.40
  -2   6   4  106.89    4.80
  -2   6   4   84.59   15.90
  -1   6   4  532.65   34.00
   0  -6  -4   -0.60   12.30
   0   6   4   -9.60   13.90
  -1  -6  -4  341.67   29.80
   1   6   4  354.16   31.80
  -2  -6  -4   43.20   17.00
   2   6   4   24.10   18.30
  -3  -6  -4  505.05   39.40
   3   6   4  505.15   42.50
  -4  -6  -4   12.40   20.20
   4   6   4    8.00   21.90
  -5  -6  -4   -9.40   22.40
   5   6   4   12.40   24.30
  -6  -6  -4  -24.20   24.10
   6   6   4   30.80   27.70
  -7  -6  -4   19.10   29.10
   7   6   4  -24.90   31.10
  -8  -6  -4   -3.40   31.40
   8   6   4   35.60   35.10
  -9  -6  -4   68.39   39.90
   9   6   4   62.49   44.20
 -10  -6  -4  -78.29   44.70
  10   6   4   41.00   49.70
  11  -7  -4    3.00    2.20
  10  -7  -4    8.20    1.80
 -10   7   4  -37.40   28.10
  -9   7   4    8.60   24.20
  -8   7   4   16.70   21.70
  -7   7   4   11.50   20.20
  -7   7   4    6.70   14.60
  -6   7   4   21.10   20.70
  -6   7   4   29.30   14.20
  -5   7   4   28.50   20.30
  -5   7   4   43.40   15.00
  -4   7   4   84.29   21.00
  -4   7   4   91.19   16.60
  -3   7   4    3.80   18.10
  -3   7   4    6.60   13.90
  -3   7   4   15.50    1.70
  -2   7   4   -7.30   14.50
  -2   7   4    1.30   27.00
  -1   7   4   36.20   15.90
   0  -7  -4   98.59   18.10
   0   7   4   92.69   31.60
  -1  -7  -4   59.69   18.40
   1   7   4   60.59   22.20
  -2  -7  -4  226.98   29.40
   2   7   4  264.67   31.10
  -3  -7  -4   15.10   19.80
   3   7   4   24.70   23.00
  -4  -7  -4   33.50   24.40
   4   7   4   21.70   24.70
  -5  -7  -4  -11.00   24.90
   5   7   4   29.20   28.30
  -6  -7  -4   43.80   30.60
   6   7   4    0.60   30.60
  -7  -7  -4   15.70   33.40
   7   7   4   14.70   35.30
  -8  -7  -4  -43.20   36.60
   8   7   4    1.10   42.20
  -9  -7  -4  -94.49   38.70
   9   7   4  -17.30   45.80
 -10  -7  -4  -77.69   46.80
  10   7   4   33.40   55.89
 -11   8   4  -19.20   17.90
 -10   8   4  -34.70   17.60
  -9   8   4   21.30   23.80
  -9   8   4  -29.30   16.80
  -8   8   4  -10.50   16.80
  -8   8   4   16.90   22.80
  -7   8   4   10.50   17.00
  -7   8   4   21.40   22.10
  -6   8   4   36.00   23.20
  -6   8   4    0.20   16.90
  -5   8   4    4.60   16.70
  -5   8   4  -28.90   20.60
  -4   8   4   28.90   21.90
  -4   8   4   65.09   18.20
  -3   8   4   12.50    1.90
  -3   8   4    0.00   21.10
  -3   8   4  -13.40   16.20
  -2   8   4   -6.00   20.10
  -2   8   4   17.70    2.00
  -2   8   4    2.30   16.90
  -1   8   4   27.00   18.70
   0  -8  -4   70.29   20.00
   0   8   4  108.79   25.30
  -1  -8  -4   20.30   19.20
   1   8   4   58.79   23.40
  -2  -8  -4   15.00   21.10
   2   8   4   41.00   24.60
  -3  -8  -4   46.40   24.30
   3   8   4  -15.40   27.30
  -4  -8  -4   33.60   27.50
   4   8   4   26.70   29.00
  -5  -8  -4   12.40   29.90
   5   8   4   16.90   32.90
  -6  -8  -4   67.09   33.80
   6   8   4   25.30   35.60
  -7  -8  -4   -9.80   37.50
   7   8   4  -34.30   40.30
  -8  -8  -4  -29.40   40.60
   8   8   4    0.60   47.70
  -9  -8  -4    7.10   49.70
   9   8   4  -60.29   51.79
 -10  -8  -4  -81.59   54.19
  10   8   4   11.50   65.59
 -10   9   4  -17.10   16.30
  -9   9   4  -28.30   18.00
  -8   9   4   11.90   24.80
  -8   9   4  -23.00   18.20
  -7   9   4   12.80   26.10
  -6   9   4   12.50   19.00
  -6   9   4   -0.70   25.10
  -5   9   4   45.80   26.20
  -5   9   4   29.40   20.40
  -4   9   4   20.20   25.30
  -4   9   4   -3.20   20.00
  -3   9   4   89.59   23.10
  -3   9   4   79.39    4.50
  -3   9   4   90.79   27.60
  -2   9   4   19.10    2.30
  -2   9   4   27.10   25.40
  -2   9   4   -6.00   20.90
  -1   9   4   59.69   24.90
   0   9   4   17.20   22.60
  -1  -9  -4   36.70   23.10
   1   9   4    5.40   26.40
  -2  -9  -4    8.20   24.40
   2   9   4   75.99   31.10
  -3  -9  -4   17.10   25.80
   3   9   4  -28.70   30.30
  -4  -9  -4    2.60   29.10
   4   9   4  -23.20   33.10
  -5  -9  -4   43.20   34.00
   5   9   4  -30.10   36.90
  -6  -9  -4  -27.50   35.30
   6   9   4  -51.89   41.10
  -7  -9  -4  -30.20   38.40
   7   9   4   30.10   45.30
  -8  -9  -4  -53.89   44.60
   8   9   4  -45.80   51.19
  -9  -9  -4 -122.59   50.49
   9   9   4   69.29   63.99
  -9  10   4    3.00   19.20
  -8  10   4  -38.00   20.80
  -7  10   4  -28.90   21.50
  -7  10   4  -38.00   26.70
  -6  10   4   34.90   23.10
  -6  10   4   28.20   29.90
  -5  10   4   -2.50   23.40
  -5  10   4    1.40   29.60
  -4  10   4   42.50   30.40
  -4  10   4   35.90   25.20
  -3  10   4   81.79   31.00
  -3  10   4   36.90   25.00
  -3  10   4   38.50    3.00
  -2  10   4   42.30   26.60
  -2  10   4   35.30   30.00
  -2  10   4   56.19    3.50
  -1  10   4  231.68   35.60
  -1 -10  -4   -0.70   25.20
   1  10   4  -32.30   31.50
  -2 -10  -4   13.10   29.70
   2  10   4   10.40   34.50
  -3 -10  -4   31.50   30.30
   3  10   4   81.39   38.90
  -4 -10  -4   53.19   35.10
   4  10   4   -4.50   39.10
  -5 -10  -4    8.50   37.20
   5  10   4  -47.90   43.50
  -6 -10  -4    8.00   42.20
   6  10   4   17.50   49.70
  -7 -10  -4  -21.20   49.00
   7  10   4  -39.80   48.90
  -8  11   4  -20.00   24.50
  -7  11   4    7.90   26.20
  -6  11   4   33.40   28.10
  -5  11   4   -0.50   27.60
  -4  11   4   22.20   28.80
  -4  11   4   20.80    2.70
  -4  11   4   26.20   34.50
  -3  11   4   43.30   36.20
  -3  11   4   10.10   30.20
  -3  11   4    8.60    2.70
  -2  11   4  -22.50   31.00
  -2  11   4   -0.60    2.70
  -2  11   4  -22.40   35.80
  -1  11   4  -32.20   30.30
  -1  11   4   62.39   39.90
   0 -11  -4  -21.40   27.30
   0  11   4   18.80   31.80
  -1 -11  -4   65.69   30.20
   1  11   4   45.90   38.60
  -2 -11  -4   38.20   32.40
   2  11   4   -1.30   41.20
  -3 -11  -4  -53.99   33.70
   3  11   4   42.50   42.60
  -4 -11  -4  -54.79   42.30
  -3  12   4    5.50    3.00
  -2  12   4   10.20    3.20
  -3  13   4   19.10    3.20
  -2  13   4   17.10    3.60
  -4  13  -5   19.40   51.79
  -1  12  -5   41.90   42.40
   1 -12   5  -30.10   29.90
  -2  12  -5   12.80   35.60
   2 -12   5   31.60   27.30
  -3  12  -5  -12.80   33.00
   3 -12   5  -27.50   25.70
  -4  12  -5   -2.20   28.60
   3  11  -5  -52.89   46.00
  -3 -11   5  -17.90   37.10
   2  11  -5   24.40   57.19
   1  11  -5   -1.50   37.70
  -1 -11   5   63.79   31.90
   0  11  -5   13.30   34.50
   0 -11   5   19.80   28.30
  -1  11  -5   -6.70   33.60
   1 -11   5    5.20   25.30
  -2  11  -5   11.00   30.70
   2 -11   5  -38.90   21.70
  -3  11  -5  -11.40   26.70
   3 -11   5  -34.30   31.40
  -4  11  -5    7.10   22.00
  -4  11  -5   48.60   24.30
   6  10  -5   -5.10   50.09
  -6 -10   5   -1.10   46.80
   5  10  -5  -31.80   48.00
  -5 -10   5   -6.70   39.70
   4  10  -5   39.10   48.00
  -4 -10   5   41.40   36.70
   3  10  -5   90.29   44.40
  -3 -10   5   70.29   34.40
   2  10  -5  -18.30   33.60
   1  10  -5   16.30   34.80
  -1 -10   5   28.30   27.10
   0  10  -5   21.40   31.50
   0 -10   5   30.60   24.40
  -1  10  -5    2.30   27.90
   1 -10   5    8.90   22.20
  -2  10  -5    6.40   26.50
   2 -10   5   31.40   19.70
  -3  10  -5   22.80   23.70
  -4  10  -5   38.10   18.20
  -4  10  -5   28.40   20.70
   8   9  -5 -157.68   55.89
  -8  -9   5   29.50   50.19
   7   9  -5   -4.90   53.49
  -7  -9   5 -102.19   41.70
   6   9  -5    3.20   46.10
  -6  -9   5   -6.30   42.30
   5   9  -5   18.00   42.70
  -5  -9   5   14.20   36.40
   4   9  -5   37.10   38.40
  -4  -9   5  -14.70   31.30
   3   9  -5   12.80   35.50
  -3  -9   5   -1.70   30.70
   2   9  -5  164.88   61.39
   1   9  -5  -28.20   28.50
  -1  -9   5   46.40   22.30
   0   9  -5  -56.89   24.80
   0  -9   5    2.70   20.70
  -1   9  -5   32.80   23.70
   1  -9   5   40.90   19.70
  -2   9  -5    9.70   22.10
   2  -9   5   27.20   16.40
  -3   9  -5   20.80   19.20
   3  -9   5   47.30   15.20
  -4   9  -5  -12.90   13.00
  10   8  -5   73.59   73.49
 -10  -8   5  -12.40   61.09
   9   8  -5   22.60   62.79
  -9  -8   5  -33.30   51.79
   8   8  -5  -48.20   51.99
  -8  -8   5  -43.10   44.90
   7   8  -5   16.70   49.99
  -7  -8   5   88.79   41.40
   6   8  -5  133.09   44.70
  -6  -8   5   68.59   39.20
   5   8  -5   19.70   38.70
  -5  -8   5  117.39   36.70
   4   8  -5   63.69   34.50
  -4  -8   5   -3.30   29.10
   3   8  -5  -35.40   30.20
  -3  -8   5   10.70   27.20
   2   8  -5   27.60   27.00
  -2  -8   5   69.49   24.30
   1   8  -5   33.90   24.20
  -1  -8   5   42.60   19.60
   0   8  -5   13.50   21.50
   0  -8   5  -16.80   17.50
  -1   8  -5   14.20   20.30
   1  -8   5   13.30   15.40
  -2   8  -5   81.39   19.80
   2  -8   5   59.69   15.50
  -3   8  -5    6.80   15.50
   3  -8   5   10.20   11.40
  -4   8  -5   76.69   11.40
  -4   8  -5   70.09   12.60
  11   7  -5    6.60   72.39
 -11  -7   5 -155.68   60.19
  10   7  -5  -41.30   63.09
 -10  -7   5   37.00   55.29
   9   7  -5  -41.80   53.29
  -9  -7   5  -38.10   44.70
   8   7  -5   31.10   49.50
  -8  -7   5  -18.50   40.40
   7   7  -5   55.69   42.10
  -7  -7   5  -35.50   35.50
   6   7  -5   13.10   36.60
  -6  -7   5  -25.70   31.40
   5   7  -5   -3.80   30.30
  -5  -7   5   24.10   32.00
   4   7  -5   52.99   31.50
  -4  -7   5   52.69   26.20
   3   7  -5   10.70   25.70
  -3  -7   5   -5.00   22.80
   2   7  -5  264.07   34.50
  -2  -7   5  311.87   35.50
   1   7  -5    9.90   19.90
  -1  -7   5   -1.90   17.90
   0   7  -5  649.04   46.80
   0  -7   5  710.93   43.30
  -1   7  -5   61.49   18.90
   1  -7   5   56.99   15.30
  -2   7  -5   11.40   14.80
   2  -7   5    4.10   11.20
  -3   7  -5   16.10   12.30
   3  -7   5   34.80    9.80
  11   6  -5  -89.39   62.89
 -11  -6   5  -26.60   61.19
  10   6  -5   48.50   58.09
 -10  -6   5  -78.99   47.40
   9   6  -5  -52.19   46.90
  -9  -6   5   -6.40   43.90
   8   6  -5   37.30   43.30
  -8  -6   5   37.80   37.00
   7   6  -5  -40.30   36.90
  -7  -6   5   10.90   33.50
   6   6  -5  -19.30   32.60
  -6  -6   5  -47.70   25.80
   5   6  -5   35.30   29.20
  -5  -6   5   23.40   28.30
   4   6  -5   64.69   27.50
  -4  -6   5   81.49   26.40
   3   6  -5   95.39   27.40
  -3  -6   5  109.49   25.40
   2   6  -5   47.50   21.60
  -2  -6   5   29.40   19.50
   1   6  -5   41.80   21.50
   0   6  -5   62.69   18.50
   0  -6   5   81.19   17.40
  -1   6  -5  421.06   32.50
   1  -6   5  437.06   29.20
  -2   6  -5  171.08   21.10
   2  -6   5  178.78   18.10
  -3   6  -5   19.20   10.40
   3  -6   5   39.90    8.00
  11   5  -5    5.30   58.09
 -11  -5   5   -3.20   51.99
  10   5  -5  -40.00   46.50
 -10  -5   5  -30.30   45.00
   9   5  -5  -21.30   41.50
  -9  -5   5   -7.40   36.70
   8   5  -5  -75.49   36.80
  -8  -5   5  -21.40   31.90
   7   5  -5   -1.80   32.80
  -7  -5   5   43.40   31.20
   6   5  -5   54.19   30.40
  -6  -5   5   32.80   28.20
   5   5  -5  245.18   37.00
  -5  -5   5  218.78   33.00
   4   5  -5   15.00   24.90
  -4  -5   5   82.09   24.50
   3   5  -5  186.68   29.30
  -3  -5   5  165.88   28.00
   2   5  -5   45.70   20.50
  -2  -5   5   51.39   19.50
   1   5  -5   27.40   16.90
   0   5  -5   -5.30   14.00
   0  -5   5   31.40   13.30
  -1   5  -5   55.69   14.10
   1  -5   5   70.89   13.30
  -2   5  -5  296.77   22.70
   2  -5   5  312.77   20.40
  -3   5  -5  739.03   34.00
   3  -5   5  716.13   32.30
  11   4  -5   38.50   53.29
 -11  -4   5   -7.10   46.60
  10   4  -5  -27.80   42.70
 -10  -4   5   57.99   41.20
   9   4  -5   48.10   39.70
  -9  -4   5   50.09   37.40
   8   4  -5  -58.09   33.40
  -8  -4   5   -9.90   31.60
   7   4  -5   85.09   33.90
  -7  -4   5   66.59   30.20
   6   4  -5  258.37   37.20
  -6  -4   5  269.97   35.80
   5   4  -5   -2.30   23.90
  -5  -4   5  -10.40   22.70
   4   4  -5  368.46   41.90
  -4  -4   5  384.56   38.30
   3   4  -5   13.50   20.40
  -3  -4   5   32.30   19.70
   2   4  -5  331.67   33.40
  -2  -4   5  339.77   31.80
   1   4  -5   77.19   17.20
   0   4  -5  469.85   30.80
   0  -4   5  466.65   29.60
  -1   4  -5   40.00   11.60
   1  -4   5   43.20   11.00
  -2   4  -5  176.38   15.90
   2  -4   5  141.99   14.60
  -3   4  -5   55.89    6.50
   3  -4   5   38.60    6.00
   8  -4   5    5.30   10.70
   8  -4   5   17.40   16.50
   9  -4   5    6.60   14.80
   9  -4   5   34.30   12.90
  10  -4   5  -15.60   17.90
  11  -4   5    4.70   23.30
  11   3  -5  -12.90   48.80
 -11  -3   5   61.39   45.80
  10   3  -5   59.99   43.40
 -10  -3   5   67.69   40.80
   9   3  -5    3.40   35.70
  -9  -3   5   33.90   33.40
   8   3  -5   90.09   34.90
  -8  -3   5   74.29   32.40
   7   3  -5   11.30   27.60
  -7  -3   5   15.30   27.30
   6   3  -5   18.70   23.80
  -6  -3   5    7.90   23.80
   5   3  -5   86.89   24.80
  -5  -3   5  103.19   25.50
   4   3  -5  558.94   43.10
  -4  -3   5  570.64   42.80
   3   3  -5   15.70   17.20
  -3  -3   5   -3.20   15.60
   2   3  -5  201.78   26.60
  -2  -3   5  232.48   24.40
   1   3  -5  425.76   32.50
  -1  -3   5  408.06   28.60
   0  -3   5  218.08   18.60
  -1   3  -5  194.58   17.20
   1  -3   5  200.18   17.10
  -2   3  -5  574.94   28.80
   2  -3   5  588.44   28.70
   3  -3   5   13.60    6.20
   4  -3   5   57.29    6.30
   4  -3   5   57.69    7.50
   5  -3   5  843.22   36.80
   5  -3   5  785.42   37.00
   6  -3   5  312.57   19.40
   6  -3   5  273.57   20.30
   7  -3   5   22.10   11.70
  -8   3  -5   56.19   11.90
   8  -3   5   27.80   14.60
  -9   3  -5  103.99   16.00
   9  -3   5   92.69   19.90
 -10   3  -5   33.00   16.10
  10  -3   5   34.80   22.40
 -11   3  -5    6.20   18.10
  11  -3   5    6.90   26.70
  11   2  -5   36.60   46.60
 -11  -2   5   22.70   43.80
  10   2  -5    7.90   38.50
 -10  -2   5   40.10   39.00
   9   2  -5  188.78   40.70
  -9  -2   5  153.48   35.50
   8   2  -5   33.20   30.10
  -8  -2   5  -26.90   25.80
   7   2  -5  111.09   28.60
  -7  -2   5   85.99   27.90
   6   2  -5  225.38   32.00
  -6  -2   5  202.68   30.60
   5   2  -5  369.26   38.70
  -5  -2   5  353.46   35.00
   4   2  -5  269.87   31.10
  -4  -2   5  291.77   30.50
   3   2  -5  745.43   45.50
  -3  -2   5  766.82   45.00
   2   2  -5   40.60   15.00
  -2  -2   5   57.49   15.00
   1   2  -5 2385.86  106.49
  -1  -2   5 2482.05  106.19
   0   2  -5  386.56   25.10
  -1   2  -5  204.18   17.20
   1  -2   5  252.17   17.70
  -2   2  -5    0.50    6.10
   2  -2   5    2.20    6.80
   3  -2   5  452.15   16.80
   3  -2   5  412.96   20.50
   3  -2   5  358.56   22.00
   4  -2   5    1.80    7.30
   4  -2   5   17.50    6.90
   5  -2   5  332.07   21.40
  -6   2  -5   84.49   11.20
   6  -2   5   71.89   13.20
  -7   2  -5    8.70   10.20
   7  -2   5    7.50   13.70
  -8   2  -5   -1.00   12.50
   8  -2   5   -9.20   16.00
  -9   2  -5  176.68   21.00
   9  -2   5  182.88   26.40
 -10   2  -5   16.00   18.50
  10  -2   5  -35.00   23.00
 -11   2  -5   44.50   21.60
  11  -2   5   -9.30   27.80
  11   1  -5   34.30   44.70
 -11  -1   5   15.50   40.60
  10   1  -5  -14.40   33.70
 -10  -1   5  -32.50   32.60
   9   1  -5  -25.60   29.40
  -9  -1   5   13.40   29.40
   8   1  -5  108.39   30.80
  -8  -1   5   31.70   28.40
   7   1  -5  151.18   29.40
  -7  -1   5  206.88   32.40
   6   1  -5  238.18   31.00
  -6  -1   5  192.08   28.10
   5   1  -5  838.42   52.69
  -5  -1   5  853.61   51.69
   4   1  -5  157.58   22.60
  -4  -1   5  131.29   21.50
   3   1  -5 2529.85  113.49
  -3  -1   5 2532.55  112.79
   2   1  -5   -9.60   11.40
  -2  -1   5    5.50   11.90
   1   1  -5    9.00   10.60
  -1  -1   5   16.40   10.70
   0   1  -5 1201.88   55.39
  -1   1  -5  117.39   13.80
  -1   1  -5  129.29    5.30
   2  -1   5  509.65   20.60
   3  -1   5  391.36   21.80
   3  -1   5  340.47   19.80
  -4   1  -5  365.96   21.20
   4  -1   5  381.56   22.60
  -5   1  -5  462.25   27.00
   5  -1   5  497.95   28.90
  -6   1  -5   10.20   10.40
   6  -1   5   16.10   12.30
  -7   1  -5   27.10   12.30
   7  -1   5   11.10   14.20
  -8   1  -5   10.50   14.60
   8  -1   5   42.70   17.70
  -9   1  -5   20.70   18.10
   9  -1   5   21.80   21.80
 -10   1  -5   29.50   21.40
  10  -1   5   39.20   26.40
 -11   1  -5   65.69   23.70
  11  -1   5   22.80   31.40
  11   0  -5    8.20   36.60
 -11   0   5   11.90   40.60
  10   0  -5   80.99   34.90
 -10   0   5  104.49   37.00
   9   0  -5  -13.50   28.30
  -9   0   5   -9.10   28.80
   8   0  -5   15.90   25.30
  -8   0   5    1.80   24.80
  -7   0   5   40.30   24.30
   6   0  -5  489.95   41.70
  -6   0   5  532.05   42.20
   5   0  -5   24.80   17.90
  -5   0   5   17.10   17.30
   4   0  -5  865.51   49.99
  -4   0   5  909.81   50.39
   3   0  -5   99.89   16.90
  -3   0   5  117.29   17.20
   2   0  -5   19.90   11.40
  -2   0   5   15.40   11.90
   1   0  -5   90.09   14.30
  -1   0   5   82.39   13.80
   0   0  -5   12.40    1.00
   0   0  -5   20.50    9.50
   0   0   5   12.00    9.70
  -1   0  -5    6.80    8.20
   1   0   5    5.70    0.80
   2   0   5  165.28   13.40
  -3   0  -5   68.59    9.60
   3   0   5   80.89   10.50
  -4   0  -5 1065.49   50.19
   4   0   5 1092.59   51.09
  -5   0  -5   -5.80   10.20
   5   0   5    0.90   12.00
  -6   0  -5  306.57   25.80
   6   0   5  312.87   27.50
  -7   0  -5   47.30   15.70
   7   0   5   59.19   18.30
  -8   0  -5   28.50   17.80
   8   0   5    6.70   20.60
  -9   0  -5   26.90   21.40
   9   0   5   -1.60   23.60
 -10   0  -5  -16.50   23.40
  10   0   5   31.00   29.50
 -11   0  -5  -22.90   26.70
  11   0   5   59.39   34.60
  11  -1  -5   57.49   40.80
 -11   1   5   96.99   40.90
  10  -1  -5   15.30   32.00
 -10   1   5   90.69   32.10
   9  -1  -5   36.50   28.00
  -9   1   5   46.50   29.30
   8  -1  -5   81.29   26.60
  -8   1   5   90.09   26.30
   7  -1  -5    8.30   20.10
  -7   1   5    9.60   33.60
   6  -1  -5   -3.80   17.60
  -6   1   5   25.80   18.60
   5  -1  -5  305.37   30.50
  -5   1   5  343.87   32.60
   4  -1  -5   68.09   16.40
  -4   1   5   77.99   17.10
   3  -1  -5   69.89   15.20
  -3   1   5   61.99   14.80
   2  -1  -5  481.95   30.00
   1  -1  -5    4.40    0.90
   1  -1  -5    3.20   10.20
  -1   1   5    3.60   10.00
   0  -1  -5 1650.73   65.59
   0  -1  -5 1599.44   72.39
   0   1   5 1586.24   72.79
   0   1   5 1674.43   65.59
   1   1   5  288.87   20.90
   1   1   5  288.47   18.60
  -2  -1  -5  936.61   42.90
   2   1   5  923.01   43.30
  -3  -1  -5  387.86   24.60
   3   1   5  440.36   26.00
  -4  -1  -5    1.90   10.40
   4   1   5   10.20   11.80
  -5  -1  -5  581.84   35.20
   5   1   5  548.25   36.10
  -6  -1  -5  143.89   20.50
   6   1   5  128.79   20.50
  -7  -1  -5  107.59   20.50
   7   1   5  107.19   21.30
  -8  -1  -5    3.70   17.80
   8   1   5   26.40   22.40
  -9  -1  -5   61.29   24.50
   9   1   5   64.79   28.20
 -10  -1  -5   16.10   25.30
  10   1   5   -8.90   30.70
 -11  -1  -5  -22.10   30.10
  11   1   5  -38.60   42.50
  11  -2  -5  -28.70   37.60
 -11   2   5   51.19   35.60
  10  -2  -5   34.20   30.80
 -10   2   5   38.90   30.90
   9  -2  -5   42.40   27.50
  -9   2   5   56.89   29.10
   8  -2  -5   42.90   25.20
  -8   2   5   63.79   26.10
   7  -2  -5  134.49   25.20
  -7   2   5  176.88   27.30
   6  -2  -5   39.00   17.70
  -6   2   5   21.80   18.00
   5  -2  -5  191.18   22.90
  -5   2   5  181.58   23.20
   4  -2  -5    1.00   13.50
  -4   2   5   -4.60   14.00
   3  -2  -5  311.67   25.10
  -3   2   5  265.67   24.80
   2  -2  -5  571.54   32.60
   2  -2  -5  573.04   22.60
  -2   2   5  522.05   33.10
   1  -2  -5   13.50    1.10
   1  -2  -5    2.10    9.50
  -1   2   5   20.30   10.80
  -1   2   5   12.00    1.20
   0   2   5  113.49   15.10
   0   2   5  118.69    5.00
   1   2   5 1417.26   63.19
  -2  -2  -5  593.34   31.40
   2   2   5  587.74   32.00
  -3  -2  -5  607.54   33.80
   3   2   5  579.64   34.70
  -4  -2  -5    7.90   12.20
   4   2   5    8.20   12.90
  -5  -2  -5  100.79   18.30
   5   2   5   79.59   18.70
  -6  -2  -5   48.00   17.50
   6   2   5   48.90   19.50
  -7  -2  -5  146.59   24.60
   7   2   5  142.49   25.90
  -8  -2  -5  292.17   37.10
   8   2   5  203.98   32.50
  -9  -2  -5  364.56   43.60
   9   2   5  358.96   42.60
 -10  -2  -5   33.90   30.70
  10   2   5   -4.00   30.60
 -11  -2  -5   14.40   56.49
  11   2   5  -36.40   53.29
  11  -3  -5  -61.19   34.30
 -11   3   5    0.40   31.60
  10  -3  -5  -33.30   29.10
 -10   3   5  -17.80   29.70
   9  -3  -5   -0.30   25.80
  -9   3   5  -19.60   25.30
   8  -3  -5   25.30   23.60
  -8   3   5   85.89   25.30
   7  -3  -5  187.08   26.90
  -7   3   5  225.58   28.90
   6  -3  -5   62.59   30.80
  -6   3   5  107.99   22.00
   5  -3  -5  190.58   23.20
  -5   3   5  173.18   23.20
   4  -3  -5   18.90   13.10
  -4   3   5   15.80   14.90
   3  -3  -5  128.59   17.40
   3  -3  -5  143.49    5.90
  -3   3   5  135.29   19.40
   2  -3  -5  102.29    4.70
   2  -3  -5  137.99   16.50
  -2   3   5  141.29   17.90
  -1   3   5  544.35   31.90
  -1   3   5  518.45   21.30
   0   3   5  380.76   26.30
   0   3   5  373.76   23.30
  -1  -3  -5  235.38   19.70
   1   3   5  269.97   20.60
  -2  -3  -5  231.78   20.50
   2   3   5  222.38   21.90
  -3  -3  -5   52.89   15.00
   3   3   5   53.59   16.00
  -4  -3  -5   13.10   14.10
   4   3   5   -4.50   14.70
  -5  -3  -5  220.78   25.90
   5   3   5  239.78   30.50
  -6  -3  -5   52.59   19.30
   6   3   5   73.09   22.00
  -7  -3  -5    0.80   20.60
   7   3   5  -45.80   20.50
  -8  -3  -5  342.27   37.30
   8   3   5  291.37   38.40
  -9  -3  -5   29.10   28.60
   9   3   5   37.30   30.80
 -10  -3  -5   51.19   35.30
  10   3   5   62.79   38.60
  10  -4  -5   53.59   30.10
 -10   4   5   35.80   30.60
   9  -4  -5   40.70   25.30
  -9   4   5    9.80   25.20
   8  -4  -5    6.60   21.70
  -8   4   5   -1.30   22.60
   7  -4  -5   59.59   20.90
  -7   4   5   33.20   19.90
   6  -4  -5  318.07   32.20
  -6   4   5  339.27   34.10
   5  -4  -5  296.67   12.40
   5  -4  -5  336.87   28.70
  -5   4   5  306.37   31.30
   4  -4  -5  662.23   38.00
   4  -4  -5  613.84   25.10
  -4   4   5  592.34   40.20
   3  -4  -5  466.05   17.70
   3  -4  -5  396.16   29.60
  -3   4   5  401.16   32.40
  -2   4   5  501.55   19.60
  -2   4   5  441.36   32.40
  -1   4   5   11.60    1.30
  -1   4   5   23.10   13.40
   0   4   5    0.10   10.80
  -1  -4  -5   14.80   12.10
   1   4   5   24.70   13.40
  -2  -4  -5  184.08   22.60
   2   4   5  153.48   20.50
  -3  -4  -5  141.49   19.70
   3   4   5  165.78   22.20
  -4  -4  -5  126.19   21.40
   4   4   5  174.68   23.70
  -5  -4  -5   19.10   18.80
   5   4   5   11.20   19.60
  -6  -4  -5  175.78   28.20
   6   4   5  189.58   29.30
  -7  -4  -5  130.49   28.50
   7   4   5  148.39   30.40
  -8  -4  -5   53.29   27.80
   8   4   5   39.40   30.50
  -9  -4  -5    8.80   28.90
   9   4   5   -5.10   35.10
 -10  -4  -5  -26.90   34.20
  10   4   5  -12.60   41.00
  10  -5  -5   29.50   29.20
 -10   5   5   13.40   28.60
   9  -5  -5   -8.60   23.10
  -9   5   5   10.30   25.70
   8  -5  -5    9.20   20.80
  -8   5   5   32.40   23.90
   7  -5  -5  -12.50   16.90
   7  -5  -5   28.20    2.00
  -7   5   5   24.00   21.30
   6  -5  -5    8.20    1.50
   6  -5  -5   21.60   16.40
  -6   5   5    9.40   18.70
   5  -5  -5   47.30   16.20
   5  -5  -5   49.10    2.70
   4  -5  -5   35.10   14.30
  -4   5   5   45.80   18.60
  -3   5   5  937.21   52.29
  -2   5   5  839.22   43.40
  -2   5   5  732.33   47.40
  -2   5   5  920.71   34.30
  -1   5   5   30.50    2.00
  -1   5   5   35.00   15.50
  -1   5   5   31.80   13.30
   0   5   5  192.88   21.70
  -1  -5  -5  155.88   19.30
   1   5   5  142.79   20.60
  -2  -5  -5   25.90   15.00
   2   5   5   -5.20   16.60
  -3  -5  -5  269.07   28.30
   3   5   5  276.17   30.70
  -4  -5  -5   47.80   19.60
   4   5   5   12.70   19.90
  -5  -5  -5  352.16   37.40
   5   5   5  264.97   33.60
  -6  -5  -5   73.59   25.10
   6   5   5   98.69   27.30
  -7  -5  -5   29.70   28.00
   7   5   5   40.30   28.40
  -8  -5  -5   54.29   31.10
   8   5   5    4.10   31.60
  -9  -5  -5  -11.70   33.50
   9   5   5   68.09   38.50
 -10  -5  -5   60.29   42.80
  10   5   5  -50.79   42.70
  11  -6  -5    1.60    2.30
  10  -6  -5   64.19   27.50
  10  -6  -5   -0.60    2.00
 -10   6   5    9.50   27.50
   9  -6  -5   24.70   24.00
   9  -6  -5   15.40    2.00
  -9   6   5    2.60   26.20
   8  -6  -5   30.60   20.70
   8  -6  -5   33.20    2.30
  -8   6   5   45.50   24.00
   7  -6  -5   66.59   20.20
   7  -6  -5   55.59    3.30
  -7   6   5   81.69   23.40
   6  -6  -5    6.00   16.00
   6  -6  -5    3.60    1.60
  -6   6   5   -8.20   19.50
  -5   6   5   29.50   20.40
  -4   6   5   -2.30   12.00
  -4   6   5   14.80   19.00
  -3   6   5  201.78    8.70
  -3   6   5  224.88   27.00
  -3   6   5  224.18   23.40
  -2   6   5  563.24   22.70
  -2   6   5  564.34   39.90
  -2   6   5  549.25   34.70
  -1   6   5  128.19   19.30
  -1   6   5  191.18   25.00
   0  -6  -5   21.10   13.70
   0   6   5   -7.00   13.90
  -1  -6  -5  279.67   28.30
   1   6   5  322.57   30.60
  -2  -6  -5   45.00   17.20
   2   6   5   60.89   19.90
  -3  -6  -5    0.10   17.70
   3   6   5   10.80   20.90
  -4  -6  -5  280.47   33.70
   4   6   5  249.28   32.40
  -5  -6  -5   11.40   22.20
   5   6   5   20.90   24.70
  -6  -6  -5   -7.20   24.60
   6   6   5   11.50   26.90
  -7  -6  -5  214.88   38.60
   7   6   5  165.28   37.00
  -8  -6  -5  -15.40   31.60
   8   6   5   -2.60   35.00
  -9  -6  -5  -52.99   37.20
   9   6   5  -36.60   40.30
 -10  -6  -5  -23.30   44.10
  10   6   5    0.20   50.19
   9  -7  -5   96.69   24.70
  -9   7   5   44.80   28.20
  -8   7   5   21.80   25.20
  -7   7   5  -33.80   21.10
  -6   7   5   57.39   16.70
  -6   7   5   41.00   22.20
  -5   7   5   59.89   16.60
  -5   7   5   66.99   23.80
  -4   7   5   -3.50   14.50
  -4   7   5   -5.70   19.50
  -3   7   5  207.88   25.90
  -3   7   5  202.88    8.40
  -3   7   5  166.88   26.20
  -2   7   5  220.78    9.30
  -2   7   5  200.88   26.60
  -2   7   5  247.78   32.20
  -1   7   5   -6.40   17.30
  -1   7   5   -1.80   19.20
   0  -7  -5  244.28   26.70
   0   7   5  234.08   29.50
  -1  -7  -5   13.90   16.90
   1   7   5   -3.50   17.30
  -2  -7  -5  197.18   27.20
   2   7   5  141.49   26.40
  -3  -7  -5   -1.60   20.00
   3   7   5   38.30   24.70
  -4  -7  -5  -28.10   21.10
   4   7   5   33.80   25.80
  -5  -7  -5  156.28   30.90
   5   7   5   81.79   31.80
  -6  -7  -5  183.48   35.40
   6   7   5  104.69   36.30
  -7  -7  -5   62.39   33.60
   7   7   5   77.79   37.40
  -8  -7  -5  117.69   40.30
   8   7   5  -50.59   41.30
  -9  -7  -5   25.30   40.60
   9   7   5   -5.70   47.40
 -10  -7  -5   61.49   51.49
  10   7   5   71.99   59.09
 -11   8   5    9.90   21.60
 -10   8   5   15.30   20.10
  -9   8   5   23.00   19.90
  -9   8   5   -3.30   26.80
  -8   8   5  -26.90   23.00
  -8   8   5   -7.90   25.60
  -7   8   5    1.60   18.20
  -7   8   5  -21.90   24.50
  -6   8   5   93.19   26.80
  -6   8   5   91.79   20.60
  -5   8   5   21.50   23.90
  -5   8   5   52.49   18.90
  -4   8   5   11.70   22.60
  -4   8   5   -3.00   17.10
  -3   8   5   37.60   18.70
  -3   8   5   14.30    2.10
  -3   8   5   -2.50   21.90
  -2   8   5  311.67   39.80
  -2   8   5  387.06   14.90
  -2   8   5  301.97   34.10
  -1   8   5   35.60   24.30
  -1   8   5   24.50   18.30
   0  -8  -5   15.30   16.60
   0   8   5  -29.50   19.20
  -1  -8  -5  111.39   23.70
   1   8   5   91.99   25.90
  -2  -8  -5   20.40   22.90
   2   8   5   36.10   24.60
  -3  -8  -5   51.59   25.40
   3   8   5   35.90   27.50
  -4  -8  -5  258.67   36.30
   4   8   5  205.58   37.50
  -5  -8  -5    6.30   29.40
   5   8   5  -11.80   32.90
  -6  -8  -5   25.50   32.70
   6   8   5   39.50   36.40
  -7  -8  -5    3.90   35.50
   7   8   5    9.10   40.10
  -8  -8  -5  -45.00   39.70
   8   8   5   35.00   46.50
  -9  -8  -5  -16.00   47.60
   9   8   5   12.20   55.09
 -10  -8  -5   34.90   56.09
  10   8   5  -70.49   68.39
 -10   9   5   -2.40   21.70
  -9   9   5   10.80   21.70
  -8   9   5    4.40   27.30
  -8   9   5   13.40   21.10
  -7   9   5   33.40   28.40
  -7   9   5   42.10   22.00
  -6   9   5    2.60   20.70
  -6   9   5   15.70   28.30
  -5   9   5   23.10   28.20
  -5   9   5   42.80   21.60
  -4   9   5  -26.50   25.70
  -4   9   5   12.40   21.00
  -3   9   5   11.80    2.30
  -3   9   5    8.50   21.20
  -3   9   5  -20.10   26.40
  -2   9   5   74.79    4.40
  -2   9   5   82.19   25.00
  -2   9   5   75.09   29.00
  -1   9   5  105.89   27.60
  -1   9   5  153.68   33.60
   0  -9  -5   -7.20   17.70
  -1  -9  -5   17.30   22.90
   1   9   5   55.29   28.40
  -2  -9  -5  134.39   28.00
   2   9   5   41.70   30.30
  -3  -9  -5  133.39   31.10
   3   9   5  190.88   38.20
  -4  -9  -5   16.30   29.80
   4   9   5   10.30   35.00
  -5  -9  -5    5.20   32.90
   5   9   5   13.90   38.30
  -6  -9  -5  -15.50   35.00
   6   9   5   21.20   57.49
  -7  -9  -5  -26.70   40.70
   7   9   5  -21.80   45.80
  -8  -9  -5  -15.70   46.60
   8   9   5    8.70   51.49
  -9  -9  -5  107.29   58.49
   9   9   5 -101.39   59.39
  -9  10   5   33.00   23.20
  -8  10   5   -0.20   22.90
  -7  10   5  -11.00   24.20
  -6  10   5    1.90   31.60
  -6  10   5   11.70   23.50
  -5  10   5   23.10   30.80
  -5  10   5    1.30   24.10
  -4  10   5   78.89   33.20
  -4  10   5   16.10   25.20
  -3  10   5    3.10    2.50
  -3  10   5   16.60   26.60
  -3  10   5   -1.50   32.20
  -2  10   5   40.40   33.40
  -2  10   5   57.39    3.60
  -2  10   5   48.30   29.40
  -1  10   5   29.30   28.30
  -1  10   5   26.80   31.30
   0  10   5   11.10   30.20
  -1 -10  -5  115.79   29.40
   1  10   5   81.99   34.70
  -2 -10  -5   22.50   27.50
   2  10   5  -36.50   33.40
  -3 -10  -5   -0.30   32.30
   3  10   5   18.70   36.40
  -4 -10  -5  -27.30   33.70
   4  10   5  -47.10   39.00
  -5 -10  -5   63.79   38.50
   5  10   5   50.99   44.10
  -6 -10  -5   58.29   70.09
   6  10   5   72.99   88.09
  -7 -10  -5   11.60   52.89
   7  10   5   23.80   60.99
  -8  11   5    0.30   31.00
  -7  11   5   -2.20   26.30
  -6  11   5   -4.80   45.00
  -5  11   5   58.69   29.30
  -4  11   5   10.90   35.50
  -4  11   5  -11.40   29.00
  -3  11   5   40.20    3.30
  -3  11   5    0.10   29.80
  -3  11   5   22.20   38.20
  -2  11   5   38.90   33.90
  -2  11   5   59.79    3.80
  -2  11   5    0.60   38.20
  -1  11   5   17.70   32.50
  -1  11   5  -45.90   37.20
  -1 -11  -5   23.60   29.40
   1  11   5   -0.60   36.90
  -2 -11  -5  -22.70   31.50
   2  11   5   20.50   40.10
  -3 -11  -5   13.30   35.00
   3  11   5   25.60   42.00
  -3  12   5   -9.90    3.00
  -2  12   5   43.40    3.90
  -3  13   5    0.70    3.00
  -2  13   5   13.80    3.70
  -1  13   5   -3.30    4.00
  -4  13  -6  -66.99   39.60
   1 -12   6  -16.10   31.60
  -2  12  -6   -9.30   35.10
   2 -12   6   28.90   27.60
  -3  12  -6   34.30   34.70
   3 -12   6    2.40   26.00
  -4  12  -6  -32.30   28.30
   3  11  -6   83.99   83.09
  -3 -11   6  -41.20   36.90
   2  11  -6    9.70   39.70
   1  11  -6   68.99   41.00
  -1 -11   6  -15.80   29.20
   0  11  -6  -21.70   34.80
   0 -11   6    2.20   28.50
  -1  11  -6   10.30   35.30
   1 -11   6   15.80   26.80
  -2  11  -6   -2.80   30.50
   2 -11   6  -13.60   23.20
  -3  11  -6    0.10   43.80
   3 -11   6    6.00   35.00
  -4  11  -6  -14.40   23.10
  -4  11  -6  -10.20   21.30
  -6 -10   6   74.39   57.29
   5  10  -6   23.80   49.60
  -5 -10   6   15.30   43.30
   4  10  -6  -23.40   46.80
  -4 -10   6    2.80   38.30
   3  10  -6   -4.00   44.10
  -3 -10   6   17.70   33.70
   2  10  -6   26.00   57.99
   1  10  -6   48.70   37.40
  -1 -10   6   41.20   27.80
   0  10  -6  -21.00   31.90
   0 -10   6    9.30   24.40
  -1  10  -6   31.80   29.20
   1 -10   6   16.30   22.40
  -2  10  -6    5.30   26.10
   2 -10   6   -2.70   19.70
  -3  10  -6   -7.70   23.20
   3 -10   6    8.70   17.10
  -4  10  -6   30.90   19.60
   8   9  -6  -54.89   56.39
  -8  -9   6  -65.99   52.49
   7   9  -6  -44.30   54.79
  -7  -9   6   13.70   45.20
   6   9  -6  -14.40   48.70
  -6  -9   6  -20.40   40.60
   5   9  -6  120.49   49.20
  -5  -9   6   52.59   39.50
   4   9  -6  -25.00   38.10
  -4  -9   6   36.90   34.80
   3   9  -6   44.80   35.20
  -3  -9   6   91.69   33.60
   2   9  -6   -8.30   31.40
  -2  -9   6   -5.10   38.80
   1   9  -6   65.99   31.60
  -1  -9   6   11.70   25.10
   0   9  -6   11.20   27.30
   0  -9   6   20.90   21.70
  -1   9  -6  190.38   31.60
   1  -9   6  135.59   23.50
  -2   9  -6    6.40   22.00
   2  -9   6   22.70   17.30
  -3   9  -6   22.30   20.10
   3  -9   6   18.20   15.00
  -4   9  -6  -10.50   14.30
  10   8  -6 -135.99   65.79
 -10  -8   6  -11.60   63.49
   9   8  -6   75.79   64.49
  -9  -8   6  -29.10   52.49
   8   8  -6  -52.79   55.19
  -8  -8   6   15.70   47.10
   7   8  -6   28.40   49.20
  -7  -8   6  -39.00   41.50
   6   8  -6   49.80   44.70
  -6  -8   6  -29.50   37.50
   5   8  -6   12.10   37.60
  -5  -8   6   11.00   34.20
   4   8  -6   74.39   40.20
  -4  -8   6   89.99   33.80
   3   8  -6   61.39   33.50
  -3  -8   6  -31.80   26.70
   2   8  -6   91.39   36.40
  -2  -8   6   59.49   23.60
   1   8  -6  117.49   30.70
  -1  -8   6  105.19   25.30
   0   8  -6   63.49   25.80
   0  -8   6   79.09   22.50
  -1   8  -6  -15.20   19.60
   1  -8   6   16.10   16.90
  -2   8  -6  146.29   22.90
   2  -8   6  103.29   17.60
  -3   8  -6   45.10   17.00
   3  -8   6   49.90   13.20
  -4   8  -6    5.10   17.90
  11   7  -6  -37.30   75.29
 -11  -7   6  -35.10   63.59
  10   7  -6   20.10   61.99
 -10  -7   6   29.60   55.79
   9   7  -6   14.50   56.79
  -9  -7   6  -63.39   46.40
   8   7  -6  -12.00   49.30
  -8  -7   6  -28.50   43.10
   7   7  -6    0.30   43.60
  -7  -7   6   15.50   37.60
   6   7  -6  -57.39   37.30
  -6  -7   6  -54.99   30.90
   5   7  -6  -62.29   32.10
  -5  -7   6  -23.60   28.90
   4   7  -6  180.08   38.10
  -4  -7   6  206.98   35.00
   3   7  -6  -32.40   25.00
  -3  -7   6    0.70   23.30
   2   7  -6  227.48   34.30
  -2  -7   6  252.77   30.50
   1   7  -6  -20.00   20.40
  -1  -7   6  -12.60   16.00
   0   7  -6   21.90   20.30
   0  -7   6   22.40   17.80
  -1   7  -6   45.30   18.10
   1  -7   6   13.40   14.70
  -2   7  -6   84.19   17.90
   2  -7   6   45.30   13.50
  -3   7  -6   -4.40   12.50
   3  -7   6   30.80   10.00
  11   6  -6  -46.10   66.59
 -11  -6   6    4.30   63.19
  10   6  -6  -33.40   54.39
 -10  -6   6  -67.19   49.70
   9   6  -6  -50.19   49.30
  -9  -6   6   30.40   43.70
   8   6  -6  -17.20   41.70
  -8  -6   6   33.70   39.40
   7   6  -6    9.40   38.10
  -7  -6   6   35.60   36.30
   6   6  -6    6.30   35.30
  -6  -6   6    2.90   30.10
   5   6  -6   37.50   29.90
  -5  -6   6   96.19   31.00
   4   6  -6   19.00   26.70
  -4  -6   6  -13.80   24.00
   3   6  -6  326.27   39.10
  -3  -6   6  329.57   36.90
   2   6  -6   14.10   21.50
  -2  -6   6   14.40   19.00
   1   6  -6  517.55   41.40
   0   6  -6   69.09   19.20
   0  -6   6   48.00   17.10
  -1   6  -6   41.00   16.60
   1  -6   6   86.79   15.80
  -2   6  -6   98.59   16.40
   2  -6   6   90.19   13.70
  -3   6  -6   27.20   11.20
   3  -6   6   32.90    8.20
  11   5  -6   41.30   62.79
 -11  -5   6  -30.70   54.99
  10   5  -6    2.00   51.19
 -10  -5   6   27.70   45.80
   9   5  -6  -42.50   41.00
  -9  -5   6   -9.60   39.80
   8   5  -6   23.80   41.10
  -8  -5   6  -83.19   31.70
   7   5  -6   83.89   39.60
  -7  -5   6   82.79   35.80
   6   5  -6  119.09   35.80
  -6  -5   6  132.19   33.00
   5   5  -6  266.77   39.70
  -5  -5   6  260.67   35.60
   4   5  -6   64.09   26.40
  -4  -5   6   62.09   24.20
   3   5  -6  119.49   27.80
  -3  -5   6  119.19   24.80
   2   5  -6  418.86   39.50
  -2  -5   6  397.96   37.00
   1   5  -6   71.19   21.50
   0   5  -6  245.98   27.90
   0  -5   6  294.87   27.10
  -1   5  -6  196.48   23.30
   1  -5   6  179.78   21.80
  -2   5  -6   26.90   10.90
   2  -5   6   20.10   10.10
  -3   5  -6  560.04   28.80
   3  -5   6  553.04   27.30
  11   4  -6  -13.50   57.19
 -11  -4   6   42.60   49.10
  10   4  -6   52.29   48.80
 -10  -4   6  -34.10   42.90
   9   4  -6   -4.70   38.50
  -9  -4   6  -48.70   35.70
   8   4  -6   25.70   36.00
  -8  -4   6   -3.10   33.50
   7   4  -6   10.10   28.90
  -7  -4   6   -3.80   29.40
   6   4  -6  101.39   31.40
  -6  -4   6   69.39   29.60
   5   4  -6   17.50   25.80
  -5  -4   6   35.30   23.80
   4   4  -6  400.36   41.10
  -4  -4   6  420.36   40.30
   3   4  -6  173.58   28.10
  -3  -4   6  162.98   26.10
   2   4  -6    3.20   17.20
  -2  -4   6   31.80   17.50
   1   4  -6  316.67   29.30
   0   4  -6    5.80   13.50
   0  -4   6   14.00   12.60
  -1   4  -6   94.49   15.10
   1  -4   6   93.19   14.50
  -2   4  -6  443.56   26.70
   2  -4   6  441.46   26.10
  -3   4  -6    5.50    6.90
   3  -4   6   16.60    7.50
   8  -4   6   -3.80   10.60
   8  -4   6   -8.20    9.60
   9  -4   6   22.90   12.80
   9  -4   6   -7.00   13.90
  10  -4   6  -23.30   16.90
  10  -4   6  -17.60   15.70
  11  -4   6   24.40   23.50
  11  -4   6   34.90   19.70
  12  -4   6  -14.40   21.90
  11   3  -6   30.50   52.69
 -11  -3   6   82.59   48.00
  10   3  -6   -1.30   42.40
 -10  -3   6    7.10   42.00
   9   3  -6   38.60   38.40
  -9  -3   6   14.60   35.20
   8   3  -6  153.38   37.90
  -8  -3   6  -12.00   29.80
   7   3  -6   25.80   28.80
  -7  -3   6  -11.10   26.40
   6   3  -6  -10.50   24.80
  -6  -3   6  -20.30   23.60
   5   3  -6  165.98   30.40
  -5  -3   6  129.49   26.80
   4   3  -6    0.10   19.70
  -4  -3   6   32.70   19.60
   3   3  -6   75.29   21.00
  -3  -3   6   54.89   19.50
   2   3  -6  912.61   52.79
  -2  -3   6  949.60   51.69
   1   3  -6   30.60   14.70
  -1  -3   6   68.39   15.50
  -1   3  -6   35.10   10.70
   1  -3   6   44.80   10.60
  -2   3  -6    2.00    0.80
  -2   3  -6   -2.40    7.60
   2  -3   6   -3.30    8.30
  -3   3  -6   76.99    9.50
   3  -3   6   75.59   10.50
   4  -3   6  241.68   14.50
   4  -3   6  222.68   17.20
   5  -3   6  134.19   15.20
   5  -3   6  172.58   13.80
   6  -3   6  156.78   16.50
   6  -3   6  136.79   17.80
   7  -3   6   19.10   11.70
   7  -3   6    5.10   11.00
   8  -3   6  -13.50   13.40
   9  -3   6  127.49   21.00
  10  -3   6   11.20   21.40
  11  -3   6    2.20   43.70
  11   2  -6   68.29   47.80
 -11  -2   6    2.70   41.60
  10   2  -6   14.90   39.90
 -10  -2   6  -42.10   38.10
   9   2  -6   91.99   39.00
  -9  -2   6   72.99   35.60
   8   2  -6   59.79   34.30
  -8  -2   6   60.39   31.00
   7   2  -6  100.29   29.80
  -7  -2   6   75.19   29.10
   6   2  -6   43.50   25.10
  -6  -2   6   82.49   25.30
   5   2  -6  312.67   38.00
  -5  -2   6  377.66   39.10
   4   2  -6   -3.00   18.90
  -4  -2   6   21.00   18.40
   3   2  -6  233.28   28.50
  -3  -2   6  244.98   27.70
   2   2  -6  142.59   20.80
  -2  -2   6  157.28   20.90
   1   2  -6  696.93   39.30
  -1  -2   6  713.93   39.70
  -1   2  -6  788.32   40.10
   1  -2   6  818.22   40.30
  -2   2  -6  470.65   25.70
  -2   2  -6  472.15   18.90
   2  -2   6  459.95   26.70
   3  -2   6   91.39   10.80
   3  -2   6   94.19    4.00
   4  -2   6  122.79   13.30
   4  -2   6   85.59   11.90
   5  -2   6  651.13   35.40
   5  -2   6  764.72   36.60
  -7   2  -6  302.17   23.00
   7  -2   6  329.67   27.10
  -8   2  -6  121.59   16.50
   8  -2   6  117.39   20.20
  -9   2  -6   45.60   16.30
   9  -2   6   11.00   19.70
 -10   2  -6    0.20   18.10
  10  -2   6   11.00   25.00
  11   1  -6   47.80   44.10
 -11  -1   6   -5.20   42.20
  10   1  -6  -15.40   34.80
 -10  -1   6  -15.00   34.90
   9   1  -6   91.89   36.40
  -9  -1   6   92.39   34.10
   8   1  -6   20.50   27.90
  -8  -1   6  -23.40   26.90
   7   1  -6  156.28   32.20
  -7  -1   6  130.49   28.90
   6   1  -6  196.68   30.00
  -6  -1   6  112.49   27.60
   5   1  -6  532.05   43.50
  -5  -1   6  514.65   41.80
   4   1  -6  236.08   30.50
  -4  -1   6  250.47   28.00
   3   1  -6   19.90   15.20
  -3  -1   6    5.40   13.90
   2   1  -6  810.82   44.60
  -2  -1   6  810.22   45.00
   1   1  -6  411.26   29.30
  -1  -1   6  427.76   28.40
   0   1  -6  116.89   26.10
   0  -1   6  123.19   15.30
  -1   1  -6  532.35   28.30
  -1   1  -6  477.15   20.00
  -2   1  -6  564.64   30.00
   2  -1   6  574.34   30.90
   3  -1   6  641.44   32.90
   3  -1   6  608.04   30.50
   4  -1   6   27.50    9.50
   4  -1   6   11.00   10.30
  -5   1  -6  125.29   16.20
   5  -1   6  156.48   18.70
  -6   1  -6  157.98   18.60
   6  -1   6  184.58   22.70
  -7   1  -6   30.70   12.90
   7  -1   6   30.60   15.70
  -8   1  -6   90.89   17.40
   8  -1   6   91.09   21.20
  -9   1  -6  242.68   30.90
   9  -1   6  263.07   32.00
 -10   1  -6  -21.10   19.90
  10  -1   6  -19.80   24.60
  11   0  -6    1.60   43.90
 -11   0   6   36.50   42.50
  10   0  -6  -23.00   33.30
 -10   0   6  -12.10   36.20
   9   0  -6  -13.20   29.30
  -9   0   6  -15.00   28.80
   8   0  -6   57.09   27.20
  -8   0   6   34.20   27.40
   7   0  -6   -3.70   33.40
  -7   0   6  -14.30   28.10
   6   0  -6  295.87   35.80
  -6   0   6  366.16   36.90
   5   0  -6  191.18   26.60
  -5   0   6  133.19   24.50
   4   0  -6  720.83   44.70
  -4   0   6  693.03   44.40
   3   0  -6 1119.79   58.39
  -3   0   6 1145.99   58.59
   2   0  -6   16.60   13.40
  -2   0   6   62.99   15.30
   1   0  -6   97.09   15.70
  -1   0   6   87.19   15.20
   0   0  -6  754.82   38.20
   0   0  -6  720.83   29.30
   0   0   6  708.93   38.70
  -1   0  -6   24.00    1.30
  -1   0  -6   15.80   16.50
   1   0   6   19.80    1.30
   1   0   6   18.20   10.20
   2   0   6 1237.28   49.99
   2   0   6 1249.18   55.19
   3   0   6   62.99   10.50
   3   0   6   34.90   10.40
  -4   0  -6 3191.78  135.99
   4   0   6 3262.97  136.89
  -5   0  -6  162.28   19.10
   5   0   6  164.68   21.40
  -6   0  -6  179.98   21.30
   6   0   6  138.19   19.40
  -7   0  -6   13.20   14.50
   7   0   6   23.60   16.70
  -8   0  -6    5.50   16.60
   8   0   6    2.50   19.00
  -9   0  -6  428.56   38.50
   9   0   6  350.76   42.40
 -10   0  -6   73.79   25.30
  10   0   6   -7.20   28.00
  11  -1  -6  -13.00   39.90
 -11   1   6   22.90   41.70
  10  -1  -6   70.99   34.40
 -10   1   6   38.70   34.50
   9  -1  -6   12.40   27.10
  -9   1   6   32.90   28.00
   8  -1  -6  107.49   29.10
  -8   1   6   62.09   28.20
   7  -1  -6   57.29   22.80
  -7   1   6    8.50   23.30
   6  -1  -6    9.20   19.50
  -6   1   6    7.40   19.30
   5  -1  -6  340.47   34.10
  -5   1   6  362.26   33.90
   4  -1  -6  202.08   26.50
  -4   1   6  222.08   28.20
   3  -1  -6    6.10   13.00
  -3   1   6   20.70   13.80
   2  -1  -6  579.94   36.00
  -2   1   6  621.94   36.70
   1  -1  -6   33.30    1.90
   1  -1  -6   13.70   11.40
  -1   1   6   24.10   12.60
   0  -1  -6  546.15   33.30
   0  -1  -6  622.44   24.50
   0   1   6  577.74   34.70
   0   1   6  639.44   24.50
   1   1   6  135.19   15.90
   1   1   6  125.99    5.30
   2   1   6  127.49   14.10
   2   1   6  126.79   16.40
  -3  -1  -6 1612.74   71.19
   3   1   6 1579.84   71.89
  -4  -1  -6   67.89   13.80
   4   1   6   54.89   14.90
  -5  -1  -6  214.38   23.10
   5   1   6  225.38   25.00
  -6  -1  -6  298.17   28.00
   6   1   6  310.07   30.40
  -7  -1  -6   82.39   18.30
   7   1   6   62.39   20.50
  -8  -1  -6    3.20   18.90
   8   1   6   18.40   20.30
  -9  -1  -6   59.99   24.50
   9   1   6  143.39   29.50
 -10  -1  -6   -1.60   24.50
  10   1   6   29.00   32.40
  11  -2  -6  -48.00   38.30
 -11   2   6   59.59   38.70
  10  -2  -6    3.00   31.90
 -10   2   6   -1.90   32.50
   9  -2  -6   75.79   33.10
  -9   2   6  199.18   34.70
   8  -2  -6   33.10   23.90
  -8   2   6   27.70   25.40
   7  -2  -6  169.88   29.70
  -7   2   6  198.68   29.20
   6  -2  -6   89.89   21.90
  -6   2   6  116.79   23.90
   5  -2  -6   42.40   17.90
  -5   2   6   74.09   19.70
   4  -2  -6  131.69   20.20
  -4   2   6  156.98   22.60
   3  -2  -6  215.98   24.00
  -3   2   6  244.48   26.70
   2  -2  -6  279.67   11.40
   1  -2  -6 2049.89   92.29
   1  -2  -6 2061.29   83.79
  -1   2   6 2172.78   93.79
  -1   2   6 2054.89   83.79
   0  -2  -6  177.58   18.60
   0   2   6  129.49   17.10
   0   2   6  153.28    6.40
   1   2   6  280.07   19.80
   1   2   6  268.07   23.40
  -2  -2  -6   26.30   10.50
   2   2   6    6.20   10.60
  -3  -2  -6   44.00   12.50
   3   2   6   30.80   13.10
  -4  -2  -6   82.29   16.20
   4   2   6   57.69   16.60
  -5  -2  -6  199.58   24.90
   5   2   6  251.77   28.20
  -6  -2  -6   -9.30   14.80
   6   2   6   25.20   18.30
  -7  -2  -6   54.89   19.90
   7   2   6   50.79   22.30
  -8  -2  -6   -0.60   21.60
   8   2   6   49.30   25.00
  -9  -2  -6   42.60   25.60
   9   2   6   26.50   28.60
 -10  -2  -6   35.00   29.60
  10   2   6   49.80   33.60
  10  -3  -6   13.60   32.10
 -10   3   6  -11.30   31.80
   9  -3  -6  -12.70   27.50
  -9   3   6    3.20   28.00
   8  -3  -6  114.89   28.30
  -8   3   6   96.89   26.90
   7  -3  -6   65.69   23.10
  -7   3   6  102.29   24.40
   6  -3  -6  161.68   29.30
  -6   3   6  194.58   32.30
   5  -3  -6  487.15   37.10
  -5   3   6  516.45   39.90
   4  -3  -6   42.30   15.60
  -4   3   6   29.30   17.80
   3  -3  -6   13.00    1.40
   3  -3  -6    2.90   13.00
  -3   3   6   11.10   15.20
   2  -3  -6  736.53   31.00
   2  -3  -6  870.41   43.20
  -2   3   6  727.53   43.40
   1  -3  -6  696.63   39.40
  -1   3   6  773.82   29.10
  -1   3   6  645.24   40.00
   0   3   6  645.84   26.10
   0   3   6  640.44   34.40
   0   3   6  654.53   38.20
   1   3   6  136.59   17.70
  -2  -3  -6   92.39   14.80
   2   3   6   68.49   15.20
  -3  -3  -6  617.24   36.70
   3   3   6  590.54   38.00
  -4  -3  -6   93.79   17.90
   4   3   6  132.19   21.50
  -5  -3  -6   20.70   15.80
   5   3   6   46.50   18.50
  -6  -3  -6   78.99   21.80
   6   3   6   53.09   21.60
  -7  -3  -6   -0.20   20.60
   7   3   6    7.40   22.70
  -8  -3  -6   50.79   24.60
   8   3   6   91.99   28.90
  -9  -3  -6  118.29   31.30
   9   3   6  165.48   36.60
 -10  -3  -6   -4.50   31.70
  10   3   6   62.99   38.10
  10  -4  -6  -10.40   31.90
 -10   4   6   25.60   31.60
   9  -4  -6    2.20   27.20
  -9   4   6   22.00   27.80
   8  -4  -6  -14.40   22.10
  -8   4   6   -6.30   23.60
   7  -4  -6  205.08   29.00
  -7   4   6  169.08   27.50
   6  -4  -6   93.79   21.50
  -6   4   6   92.19   22.50
   5  -4  -6   22.50    1.70
   5  -4  -6   35.80   17.70
  -5   4   6   -0.70   18.00
   4  -4  -6  216.38    8.90
   4  -4  -6  210.98   25.50
  -4   4   6  211.68   25.60
   3  -4  -6  252.97    9.40
   3  -4  -6  197.38   24.00
  -3   4   6  156.68   23.10
   2  -4  -6   55.89   15.10
  -2   4   6   39.00   16.70
  -2   4   6   54.09    2.90
  -1   4   6   76.79    3.90
  -1   4   6  107.49   18.30
  -1   4   6  105.99   15.00
   0   4   6   15.50   12.70
   0   4   6   40.80   15.50
  -1  -4  -6   49.90   13.90
   1   4   6   74.09   15.80
  -2  -4  -6  675.43   38.20
   2   4   6  644.84   40.40
  -3  -4  -6   15.70   14.70
   3   4   6   24.50   16.70
  -4  -4  -6  824.62   47.40
   4   4   6  812.92   50.09
  -5  -4  -6  132.59   23.20
   5   4   6  145.19   26.50
  -6  -4  -6  137.19   25.60
   6   4   6  136.29   28.80
  -7  -4  -6   21.50   23.80
   7   4   6   31.70   26.10
  -8  -4  -6   30.80   26.90
   8   4   6   48.80   29.80
  -9  -4  -6   75.09   32.20
   9   4   6  108.39   36.00
 -10  -4  -6   20.10   34.00
  10   4   6  -30.70   37.90
  10  -5  -6   95.89   32.30
 -10   5   6   25.40   32.90
   9  -5  -6   10.20   25.00
  -9   5   6   72.29   29.20
   8  -5  -6  -29.20   21.10
   8  -5  -6    7.90    1.90
  -8   5   6    0.70   24.20
   7  -5  -6   38.30   20.60
   7  -5  -6   67.29    3.30
  -7   5   6   56.69   23.40
   6  -5  -6    3.40   16.70
   6  -5  -6    8.60    1.60
  -6   5   6   13.40   21.20
   5  -5  -6  180.38   22.90
   5  -5  -6  182.18    7.60
  -5   5   6  176.88   26.40
   4  -5  -6  152.18   20.50
   4  -5  -6  137.79    6.00
  -4   5   6  134.29   24.20
  -3   5   6  301.57   31.80
  -2   5   6   49.90    2.90
  -2   5   6   32.70   15.10
  -2   5   6   67.59   18.60
  -1   5   6  149.09   23.00
  -1   5   6  181.98   20.00
  -1   5   6  164.48    7.00
   0   5   6  227.38   23.80
   0   5   6  210.48   27.70
  -1  -5  -6   84.79   17.50
   1   5   6  102.29   19.30
  -2  -5  -6  168.38   21.60
   2   5   6  192.28   24.30
  -3  -5  -6  603.24   39.90
   3   5   6  602.24   42.70
  -4  -5  -6   11.00   17.90
   4   5   6   33.00   20.80
  -5  -5  -6  236.18   29.30
   5   5   6  249.97   32.10
  -6  -5  -6   14.10   24.00
   6   5   6    1.40   24.10
  -7  -5  -6  119.29   30.00
   7   5   6   72.19   31.90
  -8  -5  -6    4.20   29.10
   8   5   6    9.10   30.90
  -9  -5  -6    3.90   32.90
   9   5   6  -16.80   34.10
 -10  -5  -6  -15.60   38.60
  10   5   6   48.20   44.50
  11  -6  -6    7.40    2.60
  10  -6  -6   19.70    2.50
 -10   6   6    2.40   40.00
   9  -6  -6   75.99   28.20
   9  -6  -6   78.59    4.30
  -9   6   6   63.49   31.00
   8  -6  -6    2.00   22.40
   8  -6  -6    1.70    1.90
  -8   6   6  -27.30   23.80
   7  -6  -6   17.50    2.00
   7  -6  -6   34.70   19.90
  -7   6   6   29.60   24.50
   6  -6  -6   34.00   17.90
   6  -6  -6   37.60    2.30
  -6   6   6   28.40   23.20
  -5   6   6   56.89   22.40
  -4   6   6   21.60   13.90
  -4   6   6   31.20   20.90
  -3   6   6   17.50    1.90
  -3   6   6    5.70   13.50
  -3   6   6   15.10   20.70
  -2   6   6    9.60   18.60
  -2   6   6   20.10   14.20
  -2   6   6   25.80    2.00
  -1   6   6  579.54   51.09
  -1   6   6  433.26   38.10
  -1   6   6  446.06   18.70
   0   6   6   17.20   16.70
  -1  -6  -6  101.99   20.30
   1   6   6   93.19   19.90
  -2  -6  -6   91.49   19.90
   2   6   6  107.49   22.80
  -3  -6  -6   58.09   19.40
   3   6   6    7.80   20.30
  -4  -6  -6   -5.90   20.10
   4   6   6    1.60   21.50
  -5  -6  -6    6.70   22.50
   5   6   6   17.00   25.40
  -6  -6  -6  186.68   32.10
   6   6   6   91.49   39.10
  -7  -6  -6   30.10   31.10
   7   6   6   88.39   35.20
  -8  -6  -6   73.19   34.80
   8   6   6   40.30   39.60
  -9  -6  -6   85.29   40.30
   9   6   6    4.20   41.00
 -10  -6  -6  -48.60   44.70
  10   6   6 -107.09   47.90
  11  -7  -6   -8.30    2.70
  10  -7  -6    0.80    2.30
   9  -7  -6    1.80   25.70
   9  -7  -6    1.70    2.20
  -9   7   6   33.20   29.80
   8  -7  -6   25.80   23.10
  -8   7   6   37.20   27.90
  -7   7   6   71.49   28.60
  -6   7   6   22.50   17.10
  -6   7   6    0.90   23.60
  -5   7   6   12.70   23.70
  -5   7   6   -6.30   14.60
  -4   7   6   18.00   16.50
  -4   7   6   12.00   21.90
  -3   7   6   -3.10   15.10
  -3   7   6   12.20   19.50
  -3   7   6    0.10    1.80
  -2   7   6   53.69   18.20
  -2   7   6   41.80   21.80
  -2   7   6   55.89    3.00
  -1   7   6   28.60   17.30
   0   7   6  100.49   21.60
  -1  -7  -6   21.40   17.90
   1   7   6   14.00   19.50
  -2  -7  -6   48.00   20.60
   2   7   6   50.69   22.40
  -3  -7  -6   31.40   21.00
   3   7   6    2.00   23.90
  -4  -7  -6  141.09   28.50
   4   7   6  123.59   31.30
  -5  -7  -6   89.89   29.70
   5   7   6   97.79   32.80
  -6  -7  -6   56.39   31.00
  -7  -7  -6   -3.00   34.00
   7   7   6   32.20   37.80
  -8  -7  -6   93.79   39.70
   8   7   6  125.49   44.50
  -9  -7  -6   28.90   41.10
   9   7   6   29.70   46.90
 -10  -7  -6  -48.20   46.30
  10   7   6  -25.80   58.99
 -10   8   6   30.90   22.90
  -9   8   6   21.30   22.70
  -8   8   6  -15.50   28.30
  -8   8   6   20.10   20.10
  -7   8   6   70.99   21.80
  -7   8   6   67.89   29.90
  -6   8   6   30.50   27.00
  -6   8   6   36.50   19.70
  -5   8   6   40.60   20.00
  -5   8   6   62.79   27.40
  -4   8   6   84.09   29.10
  -4   8   6  158.48   23.80
  -3   8   6   21.50   25.60
  -3   8   6   -6.60   19.30
  -3   8   6    9.30    2.10
  -2   8   6   70.19    3.60
  -2   8   6   60.79   20.90
  -2   8   6   67.59   27.50
  -1   8   6   56.99   30.80
  -1   8   6   59.29   26.20
   0   8   6   -8.70   20.60
  -1  -8  -6   -9.90   21.00
   1   8   6  -21.50   21.10
  -2  -8  -6   32.40   22.90
   2   8   6   27.20   26.60
  -3  -8  -6  100.89   28.70
   3   8   6  107.09   30.90
  -4  -8  -6  -22.00   24.90
   4   8   6    2.50   29.40
  -5  -8  -6  105.09   34.20
   5   8   6   47.10   33.70
   6   8   6   48.70   46.80
  -7  -8  -6   62.29   36.10
   7   8   6  -34.50   40.70
  -8  -8  -6   60.29   42.30
   8   8   6  -13.90   46.50
  -9  -8  -6    3.40   48.10
   9   8   6  -91.29   56.19
  -9   9   6   14.90   23.10
  -8   9   6   -9.30   23.80
  -7   9   6   -3.60   30.60
  -7   9   6  -18.00   21.80
  -6   9   6   32.90   23.10
  -6   9   6    1.00   30.20
  -5   9   6   10.30   30.20
  -5   9   6   29.20   22.40
  -4   9   6   30.30   22.00
  -4   9   6   29.70   30.30
  -3   9   6  350.36   15.20
  -3   9   6  395.76   39.50
  -3   9   6  418.36   49.70
  -2   9   6   73.89   30.90
  -2   9   6   87.49    4.20
  -2   9   6   28.60   25.10
  -1   9   6   -3.40   28.90
  -1   9   6   32.40   23.70
   0   9   6  -11.30   25.00
  -1  -9  -6    2.60   22.90
   1   9   6  -42.70   26.00
  -2  -9  -6   48.80   27.10
   2   9   6  -24.60   29.30
  -3  -9  -6  147.59   32.60
   3   9   6  118.89   35.00
  -4  -9  -6   92.49   33.80
   4   9   6   25.90   33.90
  -5  -9  -6  158.38   38.00
   5   9   6  155.08   43.70
  -6  -9  -6  -39.20   61.79
   6   9   6   25.60   44.00
  -7  -9  -6    3.30   42.30
   7   9   6   11.70   47.90
  -8  -9  -6   64.79   47.40
   8   9   6  -40.80   54.99
  -9  -9  -6  -40.70   56.29
   9   9   6  -78.89   61.79
  -8  10   6   38.80   25.40
  -6  10   6   14.70   32.80
  -6  10   6  -26.80   24.30
  -5  10   6   71.09   36.90
  -5  10   6  -14.60   25.60
  -4  10   6   26.60   34.80
  -4  10   6    7.70   26.10
  -3  10   6   14.40    2.70
  -3  10   6  -29.00   24.90
  -3  10   6   59.59   34.40
  -2  10   6   50.99   36.20
  -2  10   6  -16.60   27.70
  -2  10   6   10.30    2.80
  -1  10   6   29.70   27.70
  -1  10   6   33.50   36.90
   0  10   6   -9.20   30.50
  -1 -10  -6    9.20   26.60
   1  10   6   52.89   34.40
  -2 -10  -6   31.90   28.90
   2  10   6   39.00   33.50
  -3 -10  -6   53.89   33.20
   3  10   6   84.99   40.20
  -4 -10  -6   -3.40   33.70
   4  10   6    9.50   43.00
  -5 -10  -6   30.40   39.30
   5  10   6  -56.89   42.80
  -6 -10  -6  -89.09   39.30
   6  10   6  -20.80   46.50
  -7 -10  -6  -26.30   72.69
  -6  11   6   56.69   48.40
  -5  11   6  -52.29   27.20
  -4  11   6   -2.10   30.00
  -3  11   6   -5.20   30.10
  -3  11   6   30.70    3.20
  -3  11   6   90.39   42.20
  -2  11   6    1.50    3.00
  -2  11   6   22.50   33.20
  -2  11   6  -24.20   40.10
  -1  11   6  -39.80   39.50
  -1  11   6  -28.20   31.50
  -1  11   6   -1.10    3.10
   0  11   6   43.10   44.90
   0  11   6   50.49   42.80
   1  11   6  -20.10   38.20
  -2 -11  -6   60.69   34.00
   2  11   6   99.39   40.80
  -3 -11  -6  -37.10   41.10
   3  11   6   -1.40   59.69
  -3  12   6   -7.90    3.20
  -2  12   6    9.40    3.30
  -1  12   6   20.40    3.70
  -3  13   6   21.00    3.30
  -2  13   6   -8.80    3.60
  -1  13   6    3.30    3.80
  -4  13  -7  -44.00   34.10
   1 -12   7  -10.90   38.40
  -2  12  -7   27.00   36.30
   2 -12   7  -15.90   28.40
  -3  12  -7   38.90   35.10
   3 -12   7  -17.90   24.90
  -4  12  -7    7.50   28.00
   2  11  -7  108.19   46.20
  -2 -11   7    1.70   32.70
   1  11  -7   89.39   42.40
  -1 -11   7   -7.10   31.40
   0  11  -7  -45.70   36.30
   0 -11   7   19.90   29.10
  -1  11  -7   17.00   35.70
   1 -11   7  -14.10   26.10
  -2  11  -7  -14.60   32.50
   2 -11   7   15.40   24.40
  -3  11  -7    3.90   49.70
   3 -11   7    8.50   22.00
  -4  11  -7   26.20   23.10
   5  10  -7   14.70   51.09
  -5 -10   7    4.00   45.00
   4  10  -7  -26.90   48.60
  -4 -10   7  -71.69   37.70
   3  10  -7  141.79   49.90
  -3 -10   7   68.09   37.40
   2  10  -7   31.30   44.60
   1  10  -7  -22.40   34.50
  -1 -10   7    7.80   28.90
   0  10  -7   13.50   31.50
   0 -10   7  -20.00   24.40
  -1  10  -7    9.80   29.50
   1 -10   7   28.80   22.80
  -2  10  -7  -12.50   26.30
   2 -10   7   19.40   20.90
  -3  10  -7   28.80   24.80
   3 -10   7   35.00   18.70
  -4  10  -7   -8.20   19.00
  -8  -9   7  -42.50   67.19
   7   9  -7   10.80   58.09
  -7  -9   7   13.90   47.30
   6   9  -7   47.40   53.59
  -6  -9   7   84.99   44.80
   5   9  -7   59.19   47.50
  -5  -9   7   24.00   42.90
   4   9  -7   71.09   42.90
  -4  -9   7  -24.50   34.80
   3   9  -7  -21.10   38.10
  -3  -9   7   18.30   31.20
   2   9  -7    0.70   30.90
   1   9  -7   68.79   34.20
  -1  -9   7   27.70   26.40
   0   9  -7   -3.00   27.80
   0  -9   7   -8.80   22.60
  -1   9  -7   51.79   26.40
   1  -9   7   34.10   20.80
  -2   9  -7   12.10   22.80
   2  -9   7    7.30   17.10
  -3   9  -7  112.09   23.70
   3  -9   7  136.69   18.30
  -4   9  -7   -0.20   14.50
  10   8  -7  -87.89  111.49
 -10  -8   7   40.90   84.79
   9   8  -7  -11.10   61.09
  -9  -8   7 -130.69   51.09
   8   8  -7   26.30   57.19
  -8  -8   7   40.80   49.70
   7   8  -7  -56.39   49.20
  -7  -8   7  -41.80   41.80
   6   8  -7   17.80   44.10
  -6  -8   7   55.99   40.30
   5   8  -7   23.70   40.10
  -5  -8   7   52.39   39.30
   4   8  -7  -24.30   33.60
  -4  -8   7   25.70   32.30
   3   8  -7   11.70   31.50
  -3  -8   7  -18.50   28.60
  -2  -8   7   19.40   21.10
   1   8  -7   32.10   26.30
  -1  -8   7   49.40   21.80
   0   8  -7   80.69   27.20
   0  -8   7  108.99   24.00
  -1   8  -7   13.20   21.30
   1  -8   7    2.10   17.30
  -2   8  -7   65.79   21.60
   2  -8   7   28.90   15.60
  -3   8  -7   22.00   17.30
   3  -8   7   20.80   12.60
   4  -8   7  155.58   16.40
  10   7  -7  -46.40   65.99
 -10  -7   7  -34.40   55.59
   9   7  -7   15.90   57.79
  -9  -7   7    9.70   49.10
   8   7  -7   22.30   48.80
  -8  -7   7  -24.80   43.70
   7   7  -7  -15.20   45.80
  -7  -7   7  -19.00   37.50
   6   7  -7   31.70   41.00
  -6  -7   7   43.30   38.30
   5   7  -7    3.40   35.20
  -5  -7   7  -19.50   30.20
   4   7  -7   74.39   34.40
  -4  -7   7   69.29   30.40
   3   7  -7   14.50   27.90
  -3  -7   7   19.60   26.70
   2   7  -7  108.19   28.90
  -2  -7   7  122.09   26.30
   1   7  -7  -15.70   20.60
  -1  -7   7  -11.30   16.00
   0   7  -7   65.99   22.20
   0  -7   7   56.69   18.60
  -1   7  -7   32.50   18.80
   1  -7   7   53.99   17.70
  -2   7  -7   27.50   16.40
   2  -7   7   43.60   14.00
  -3   7  -7    5.50   13.50
   3  -7   7    1.60   10.20
  -4   7  -7  101.39   11.40
   4  -7   7   80.89   10.40
  11   6  -7  -17.40   72.59
 -11  -6   7  -11.90   64.79
  10   6  -7 -117.49   56.49
 -10  -6   7  -60.49   52.89
   9   6  -7   49.40   52.99
  -9  -6   7  -17.00   42.60
   8   6  -7  -16.80   44.30
  -8  -6   7  -34.30   39.70
   7   6  -7  -39.40   38.20
  -7  -6   7   11.10   36.70
   6   6  -7  114.89   38.70
  -6  -6   7  137.09   39.20
   5   6  -7  -12.00   30.40
  -5  -6   7   47.10   29.20
   4   6  -7   27.00   27.50
  -4  -6   7   55.79   29.10
   3   6  -7  370.86   42.60
  -3  -6   7  368.76   40.80
   2   6  -7   20.10   22.50
  -2  -6   7   53.99   22.30
   1   6  -7  201.48   27.50
   0   6  -7  292.37   32.80
   0  -6   7  328.27   31.50
  -1   6  -7  103.29   19.80
   1  -6   7   90.99   17.60
  -2   6  -7   26.20   14.00
   2  -6   7   40.50   12.80
  -3   6  -7  120.39   15.60
   3  -6   7  132.59   15.50
  11   5  -7   67.29   66.49
 -11  -5   7  -17.60   55.29
  10   5  -7   58.29   56.19
 -10  -5   7  -36.70   48.00
   9   5  -7   -5.70   46.30
  -9  -5   7   41.00   43.10
   8   5  -7   85.69   43.20
  -8  -5   7    4.30   37.70
   7   5  -7   10.60   35.80
  -7  -5   7   61.89   36.40
   6   5  -7   10.80   31.20
  -6  -5   7   -2.70   28.50
   5   5  -7  100.49   32.00
  -5  -5   7   91.49   29.00
   4   5  -7   45.50   26.00
  -4  -5   7  107.79   27.00
   3   5  -7   58.79   23.80
  -3  -5   7   -5.60   21.00
   2   5  -7   -3.40   20.80
  -2  -5   7   22.80   20.10
   1   5  -7  541.15   44.40
   0   5  -7  457.55   36.40
   0  -5   7  513.75   35.20
  -1   5  -7 1492.25   72.79
   1  -5   7 1556.34   71.69
  -2   5  -7   53.29   13.40
   2  -5   7   52.79   12.30
  -3   5  -7  374.36   24.10
   3  -5   7  388.96   23.00
   4  -5   7   35.70    5.00
   4  -5   7   37.80    5.50
  11   4  -7  -23.60   56.99
 -11  -4   7  -19.10   53.49
  10   4  -7  -50.89   45.70
 -10  -4   7  -73.49   43.10
   9   4  -7   54.59   44.50
  -9  -4   7  -44.10   37.10
   8   4  -7   45.20   38.00
  -8  -4   7   44.70   35.70
   7   4  -7   -3.50   31.40
  -7  -4   7   35.20   32.30
   6   4  -7  134.19   33.90
  -6  -4   7  167.98   34.40
   5   4  -7   88.19   29.80
  -5  -4   7  124.19   29.10
   4   4  -7   63.09   24.80
  -4  -4   7   23.30   22.80
   3   4  -7   55.59   22.80
  -3  -4   7  100.59   23.60
   2   4  -7   56.19   21.80
  -2  -4   7   39.10   19.50
   1   4  -7  113.89   20.80
   0   4  -7  664.33   40.40
   0  -4   7  652.03   38.90
  -1   4  -7   47.10   14.10
   1  -4   7   35.80   13.20
  -2   4  -7 1373.26   63.69
   2  -4   7 1383.26   63.19
  -3   4  -7  429.96   24.30
   3  -4   7  414.56   25.10
   4  -4   7  174.18   14.70
   4  -4   7  180.98   12.10
   5  -4   7   97.29   10.20
   5  -4   7   86.69    8.90
   7  -4   7   32.80    8.30
   8  -4   7  341.97   22.80
   8  -4   7  302.37   22.20
   9  -4   7   40.30   14.30
   9  -4   7   60.49   14.00
  10  -4   7  -10.00   17.80
  10  -4   7    1.10   16.50
  11  -4   7  -41.30   21.90
  11  -4   7  -16.70   18.30
  12  -4   7    8.30   21.90
  11   3  -7 -111.79   47.70
 -11  -3   7   12.60   48.50
  10   3  -7   48.40   46.90
 -10  -3   7    7.30   43.40
   9   3  -7   62.49   39.90
  -9  -3   7   -9.30   35.40
   8   3  -7   12.60   33.90
  -8  -3   7  -19.20   31.70
   7   3  -7   25.20   30.70
  -7  -3   7    8.20   30.90
  -6  -3   7    9.80   25.90
   5   3  -7   72.89   26.20
  -5  -3   7   52.49   25.30
   4   3  -7  766.72   51.99
  -4  -3   7  712.23   50.29
   3   3  -7   13.00   19.20
  -3  -3   7    4.90   18.70
   2   3  -7  890.31   50.79
  -2  -3   7  821.62   49.90
   1   3  -7   91.99   18.60
  -1  -3   7   90.69   18.40
  -1   3  -7  111.29   16.20
   1  -3   7  122.59   16.20
  -2   3  -7   24.80   10.20
   2  -3   7   27.90   11.00
  -3   3  -7  644.54   33.60
   3  -3   7  717.03   35.50
   4  -3   7  401.46   22.20
   4  -3   7  441.86   26.00
   5  -3   7  211.18    7.90
   5  -3   7  172.78   15.80
   5  -3   7  142.09   18.20
   6  -3   7  335.07   22.80
   6  -3   7  345.67   24.00
   7  -3   7   21.70   11.90
   7  -3   7  -10.40   11.40
   8  -3   7   64.09   16.00
   8  -3   7   43.90   16.30
   9  -3   7   43.30   18.80
   9  -3   7   25.10   18.10
  10  -3   7   13.50   22.60
  10  -3   7   24.40   21.80
  12  -3   7   29.50   30.50
  11   2  -7   -1.20   50.49
 -11  -2   7   13.40   47.40
  10   2  -7   -2.90   41.50
 -10  -2   7  -53.69   37.80
   9   2  -7  100.29   41.70
  -9  -2   7   95.19   39.20
   8   2  -7   46.60   35.20
  -8  -2   7   25.40   30.90
   7   2  -7   -2.50   25.90
  -7  -2   7    6.10   26.50
   6   2  -7   97.99   28.80
  -6  -2   7  187.48   31.90
   5   2  -7   18.80   22.20
  -5  -2   7   28.50   21.50
   4   2  -7  186.58   28.40
  -4  -2   7  158.18   26.70
   3   2  -7  901.01   51.99
  -3  -2   7  823.32   51.49
   2   2  -7   65.59   18.00
  -2  -2   7   88.99   17.90
   1   2  -7 1155.78   59.09
  -1  -2   7 1179.88   58.39
   0   2  -7   87.99   14.90
  -1   2  -7  213.08   20.50
   1  -2   7  223.58   20.50
  -2   2  -7  208.98    8.70
  -2   2  -7  235.28   19.00
   2  -2   7  213.38   20.30
   3  -2   7   17.90   10.30
   4  -2   7   77.39   13.70
   4  -2   7  130.09    5.10
   4  -2   7  116.69   14.60
   5  -2   7  580.14   32.30
   5  -2   7  519.75   29.90
   6  -2   7  128.89   16.10
   6  -2   7  131.19   16.90
   7  -2   7  181.68   23.80
   8  -2   7  246.18   29.70
  -9   2  -7  -18.80   14.70
   9  -2   7   15.30   19.80
 -10   2  -7   12.50   18.40
  10  -2   7   17.10   24.60
  11   1  -7   44.50   48.80
 -11  -1   7   44.10   45.20
  10   1  -7   26.40   38.30
 -10  -1   7   45.50   41.10
   9   1  -7  -14.30   32.50
  -9  -1   7   12.10   35.60
   8   1  -7   59.99   31.90
  -8  -1   7  123.09   32.70
   7   1  -7  124.19   50.89
  -7  -1   7  134.09   31.60
   6   1  -7   34.70   23.80
  -6  -1   7   14.90   23.20
   5   1  -7   75.09   24.50
  -5  -1   7   81.59   23.50
   4   1  -7  117.39   23.00
  -4  -1   7  120.29   24.00
   3   1  -7  251.97   27.80
  -3  -1   7  235.18   28.80
   2   1  -7  189.08   24.30
  -2  -1   7  200.08   22.90
   1   1  -7  181.58   22.70
  -1  -1   7  188.28   23.10
   0   1  -7  350.16   26.00
   0  -1   7  381.16   26.60
  -1   1  -7  770.52   41.70
  -1   1  -7  745.73   30.40
  -2   1  -7  394.46   27.30
   2  -1   7  548.75   19.10
   2  -1   7  402.26   28.10
   3  -1   7  788.62   32.40
   3  -1   7  821.32   38.50
   3  -1   7  811.42   41.60
   4  -1   7 1744.93   79.09
   4  -1   7 1868.91   81.29
   5  -1   7   48.20   12.30
   6  -1   7   48.80   14.70
  -7   1  -7   27.60   12.80
   7  -1   7   38.40   15.80
  -8   1  -7  381.36   30.40
   8  -1   7  332.87   34.10
  -9   1  -7   10.40   17.00
   9  -1   7    3.30   21.10
 -10   1  -7   28.10   20.60
  10  -1   7   82.69   28.70
  11   0  -7  -15.10   44.70
 -11   0   7  -39.60   40.30
  10   0  -7   32.40   36.20
 -10   0   7  -50.29   36.60
   9   0  -7   44.40   30.30
  -9   0   7  -10.00   31.60
   8   0  -7   -9.00   26.20
  -8   0   7   66.29   30.70
   7   0  -7   96.79   27.70
   6   0  -7  423.46   42.90
  -6   0   7  510.75   44.20
   5   0  -7   30.20   19.90
  -5   0   7   42.40   21.50
   4   0  -7  275.17   31.00
  -4   0   7  200.78   27.60
   3   0  -7   20.60   15.50
  -3   0   7   12.10   15.40
   2   0  -7  257.47   25.70
  -2   0   7  269.77   27.00
   1   0  -7    4.80   12.50
  -1   0   7   -1.80   12.30
   0   0  -7 1112.19   52.89
   0   0  -7 1022.60   43.10
   0   0   7 1097.49   53.89
  -1   0  -7    0.50    9.90
   1   0   7   -4.80   10.50
   1   0   7   11.00    1.10
   2   0   7 2325.67   93.59
   3   0   7   -5.00    8.90
   3   0   7   40.10   11.00
   4   0   7  513.65   31.20
  -5   0  -7    1.80   10.50
   5   0   7   -4.30   12.20
   6   0   7   14.30   15.20
  -7   0  -7   20.30   14.40
   7   0   7   13.60   16.80
  -8   0  -7   88.29   20.30
   8   0   7   85.79   22.20
  -9   0  -7   15.10   20.00
   9   0   7   -0.10   22.40
 -10   0  -7   38.30   22.90
  10   0   7  -34.80   27.60
  11  -1  -7   41.10   43.90
 -11   1   7  -14.70   40.20
  10  -1  -7   62.59   34.50
 -10   1   7   42.50   36.20
   9  -1  -7   75.99   31.30
  -9   1   7   66.59   31.70
   8  -1  -7   11.00   25.70
  -8   1   7   47.60   29.70
   7  -1  -7   55.19   24.70
  -7   1   7   49.70   27.40
   6  -1  -7   65.09   21.50
  -6   1   7   66.09   23.60
   5  -1  -7  455.75   37.40
  -5   1   7  363.36   36.80
   4  -1  -7  916.01   53.89
  -4   1   7 1005.40   55.99
   3  -1  -7  162.68   22.50
  -3   1   7  203.18   24.40
   2  -1  -7  721.03   40.90
  -2   1   7  631.54   40.10
   1  -1  -7  287.37   24.30
   1  -1  -7  244.38   10.60
  -1   1   7  294.67   25.70
   0  -1  -7  176.38   21.80
   0  -1  -7  242.58    9.60
   0   1   7  245.78    9.60
   0   1   7  204.28   22.00
  -1  -1  -7 1073.89   51.59
   1   1   7  983.90   41.40
   1   1   7 1047.50   51.59
   2   1   7  734.73   36.20
   2   1   7  673.43   39.50
   3   1   7 1050.29   51.09
  -4  -1  -7 2729.33  116.99
   4   1   7 2678.13  117.79
  -5  -1  -7  235.08   23.90
   5   1   7  258.47   26.20
  -6  -1  -7   95.69   21.30
   6   1   7   96.09   23.80
  -7  -1  -7   37.10   16.50
   7   1   7   57.59   20.30
  -8  -1  -7  146.89   24.20
   8   1   7  193.78   29.00
  -9  -1  -7   91.49   25.60
   9   1   7   80.29   28.30
 -10  -1  -7   25.30   25.40
  10   1   7   13.20   31.50
  11  -2  -7   13.60   40.70
 -11   2   7  -80.39   39.90
  10  -2  -7   35.70   35.70
 -10   2   7   47.70   37.20
   9  -2  -7   69.19   32.10
  -9   2   7   33.90   31.70
   8  -2  -7   85.59   28.30
  -8   2   7   32.50   27.80
   7  -2  -7   53.99   22.90
  -7   2   7    7.00   22.90
   6  -2  -7   24.10   20.00
  -6   2   7   25.30   21.30
   5  -2  -7  207.38   27.10
  -5   2   7  311.57   33.30
   4  -2  -7  -14.70   14.90
  -4   2   7    0.80   16.60
   3  -2  -7   89.89   18.50
  -3   2   7   94.89   20.80
   2  -2  -7  208.68    7.90
   2  -2  -7  126.49   19.60
  -2   2   7  174.58   22.90
   1  -2  -7  174.38   19.90
   1  -2  -7  134.99    6.00
  -1   2   7  158.58   19.70
   0  -2  -7  265.27   24.30
   0   2   7  227.98    9.50
   0   2   7  214.08   23.70
   1   2   7  702.33   39.20
   1   2   7  641.84   26.50
   1   2   7  644.94   34.60
   2   2   7   13.40   11.50
   2   2   7   38.70   15.20
  -3  -2  -7    8.80   12.30
   3   2   7    9.90   13.50
  -4  -2  -7  208.18   23.80
   4   2   7  201.48   23.10
  -5  -2  -7  693.63   41.20
   5   2   7  700.13   43.80
  -6  -2  -7   21.90   19.20
   6   2   7   32.30   22.40
  -7  -2  -7  195.08   26.30
   7   2   7  224.38   29.30
  -8  -2  -7   76.49   24.20
   8   2   7   49.40   27.10
  -9  -2  -7   29.40   25.10
   9   2   7   34.40   27.30
 -10  -2  -7  -28.20   29.80
  10   2   7   26.80   33.60
  10  -3  -7   12.90   34.60
 -10   3   7   51.59   36.50
   9  -3  -7   20.50   28.30
  -9   3   7   36.50   33.20
   8  -3  -7   81.19   27.90
  -8   3   7   97.39   32.80
   7  -3  -7  102.09   24.90
  -7   3   7   95.09   25.70
   6  -3  -7   68.09   21.00
  -6   3   7   50.09   30.10
   5  -3  -7  482.45   38.40
  -5   3   7  467.85   40.70
   4  -3  -7   55.69   17.50
  -4   3   7   65.39   20.60
   3  -3  -7    8.00    1.40
   3  -3  -7   -0.50   13.80
  -3   3   7    2.00   16.90
   2  -3  -7  207.58    8.80
   2  -3  -7  215.68   25.00
  -2   3   7  256.47   28.00
   1  -3  -7   21.70   13.50
  -1   3   7   26.40    1.70
  -1   3   7   13.90   14.80
   0   3   7    5.30   11.30
   0   3   7   12.30   14.20
   1   3   7  370.46   30.30
   1   3   7  382.26   26.50
   2   3   7   14.90   13.80
  -3  -3  -7  276.57   25.70
   3   3   7  239.68   26.70
  -4  -3  -7  130.19   20.20
   4   3   7   85.39   19.60
  -5  -3  -7  207.48   25.70
   5   3   7  172.98   25.40
  -6  -3  -7  365.16   42.00
   6   3   7  346.47   44.40
  -7  -3  -7   27.90   21.00
   7   3   7   40.40   24.70
  -8  -3  -7  330.67   41.10
   8   3   7  270.87   38.70
  -9  -3  -7   52.19   27.70
   9   3   7   22.00   30.30
 -10  -3  -7   53.99   30.70
  10   3   7  -66.89   36.40
  10  -4  -7  -10.40   32.90
 -10   4   7   15.60   34.50
   9  -4  -7  -34.30   25.80
  -9   4   7  -21.20   29.40
   8  -4  -7   74.99   27.60
  -8   4   7   14.90   27.30
   7  -4  -7    9.50   23.30
  -7   4   7  -34.20   21.90
   6  -4  -7  399.76   36.90
  -6   4   7  291.97   38.30
   5  -4  -7  198.78    8.30
  -5   4   7  182.88   28.00
   4  -4  -7  159.08    6.90
   4  -4  -7  180.88   23.20
  -4   4   7  174.58   26.30
   3  -4  -7  140.29   20.00
   3  -4  -7   98.29    4.70
  -3   4   7  139.69   23.30
   2  -4  -7  197.58   25.80
  -2   4   7  198.38    8.20
  -2   4   7  170.68   24.50
  -1   4   7   41.20   17.10
  -1   4   7   52.19    2.60
  -1   4   7   42.40   13.80
   0   4   7 1069.19   53.89
   0   4   7 1105.59   58.29
   0   4   7 1069.99   43.50
   1   4   7   73.59   16.60
   1   4   7  102.59   21.20
  -2  -4  -7  564.24   36.10
   2   4   7  580.84   37.10
  -3  -4  -7    3.90   14.60
   3   4   7    5.00   16.60
  -4  -4  -7  568.24   39.00
   4   4   7  534.15   41.10
  -5  -4  -7   12.50   17.60
   5   4   7   13.90   20.00
  -6  -4  -7   -8.20   33.00
   6   4   7  -14.10   27.00
  -7  -4  -7  221.58   30.90
   7   4   7  203.28   35.80
  -8  -4  -7  247.98   37.80
   8   4   7  257.57   40.50
  -9  -4  -7   82.39   33.00
   9   4   7   12.40   33.60
 -10  -4  -7   17.90   34.80
  10   4   7   38.70   42.30
  10  -5  -7   59.49   33.10
 -10   5   7  -28.10   31.70
   9  -5  -7  -12.40   26.70
  -9   5   7   -5.20   30.40
   8  -5  -7   22.40    2.20
   8  -5  -7  -12.50   24.10
  -8   5   7   -7.10   25.70
   7  -5  -7  -20.00   19.80
   7  -5  -7   18.50    2.00
  -7   5   7   13.50   25.30
   6  -5  -7   29.00   19.80
   6  -5  -7   28.20    2.10
  -6   5   7   25.60   22.90
   5  -5  -7   65.59   19.70
   5  -5  -7   72.19    3.70
  -5   5   7  110.99   25.30
   4  -5  -7  285.87   11.30
   4  -5  -7  292.77   43.40
  -4   5   7  209.18   29.50
   3  -5  -7  178.78   23.20
  -3   5   7  160.28   26.00
  -2   5   7  356.16   35.10
  -2   5   7  380.76   27.60
  -2   5   7  356.16   14.80
  -1   5   7   -6.00   17.10
  -1   5   7   13.10    1.70
  -1   5   7   18.40   14.10
   0   5   7  252.47   32.00
   0   5   7  284.27   26.80
   1   5   7  107.59   19.80
  -2  -5  -7    5.00   15.10
   2   5   7  -12.20   15.90
  -3  -5  -7  299.97   30.20
   3   5   7  323.77   33.50
  -4  -5  -7  102.09   22.70
   4   5   7  145.29   25.60
  -5  -5  -7  147.09   26.60
   5   5   7  121.49   27.50
   6   5   7   27.50   26.30
  -7  -5  -7   19.10   25.30
   7   5   7   17.30   31.10
  -8  -5  -7   51.49   30.90
   8   5   7  153.48   37.70
  -9  -5  -7   13.70   33.60
   9   5   7   -7.30   38.00
 -10  -5  -7   26.70   39.50
  10   5   7  -30.10   43.80
  11  -6  -7   -3.90    2.70
  10  -6  -7    2.50    2.50
   9  -6  -7   19.10   29.90
   9  -6  -7    6.70    2.20
  -9   6   7   29.50   32.00
   8  -6  -7   78.39    3.70
   8  -6  -7   66.09   24.10
  -8   6   7  -18.50   28.00
   7  -6  -7   10.00    2.00
   7  -6  -7    4.60   20.40
  -7   6   7   -5.60   25.50
   6  -6  -7    9.90    1.80
   6  -6  -7   15.00   19.20
  -6   6   7  -10.00   22.70
   5  -6  -7   -1.10   18.10
  -5   6   7    8.80   23.40
  -4   6   7   26.30   21.00
  -3   6   7  839.82   46.50
  -2   6   7   68.49   22.20
  -2   6   7   92.39    4.30
  -2   6   7   57.69   27.90
  -1   6   7  233.38   28.80
  -1   6   7  162.18   22.50
  -1   6   7  195.58    8.20
   0   6   7   17.80   16.50
   0   6   7   17.80   20.40
   1   6   7  104.29   21.70
  -2  -6  -7    1.40   16.60
   2   6   7   39.40   20.00
  -3  -6  -7   24.40   19.40
   3   6   7   48.90   21.70
  -4  -6  -7   96.89   23.70
   4   6   7  108.49   28.20
  -5  -6  -7  110.59   26.80
   5   6   7   90.59   29.10
   6   6   7   10.30   28.70
  -7  -6  -7   85.09   32.50
   7   6   7   35.40   34.10
  -8  -6  -7   63.49   33.70
   8   6   7   66.19   39.30
  -9  -6  -7   30.90   38.80
   9   6   7   37.60   43.60
 -10  -6  -7    2.40   45.30
  10   6   7 -111.49   51.49
  11  -7  -7    5.30    2.90
  10  -7  -7    6.30    2.60
   9  -7  -7   11.10   27.90
   9  -7  -7   11.00    2.40
  -9   7   7   25.50   31.20
   8  -7  -7   20.40   25.90
  -8   7   7   31.80   29.60
  -7   7   7   -1.30   28.00
  -6   7   7   48.50   26.90
  -5   7   7   -5.10   25.20
  -5   7   7   45.80   18.50
  -4   7   7   27.10   17.50
  -4   7   7   15.80   24.10
  -3   7   7   16.90    2.10
  -3   7   7   15.20   23.50
  -3   7   7    8.20   17.40
  -2   7   7  179.98   29.30
  -2   7   7  150.08    6.70
  -2   7   7  136.69   21.20
  -1   7   7   -5.10   24.60
  -1   7   7   21.70   18.30
  -1   7   7   29.90    2.30
   0   7   7   40.60   24.90
   0   7   7   49.00   20.10
   1   7   7   21.10   20.80
  -2  -7  -7    5.30   18.60
   2   7   7    4.70   21.20
  -3  -7  -7    2.90   20.00
   3   7   7  -18.20   22.60
  -4  -7  -7  185.18   30.00
   4   7   7   49.10   29.50
  -5  -7  -7   79.29   30.10
   5   7   7   57.19   30.10
  -6  -7  -7   55.09   33.60
   6   7   7   -4.60   32.20
  -7  -7  -7   15.70   32.80
   7   7   7  -18.80   38.20
  -8  -7  -7   95.09   40.40
   8   7   7  157.68   47.10
  -9  -7  -7   16.70   42.00
   9   7   7 -129.99   46.30
 -10  -7  -7  -17.30   58.49
  10   7   7  -86.09   63.29
  -8   8   7   -5.00   30.50
  -8   8   7  -29.40   21.80
  -7   8   7   18.40   31.80
  -7   8   7   36.10   21.70
  -6   8   7  108.39   32.50
  -6   8   7   28.00   20.50
  -5   8   7    4.20   20.00
  -5   8   7    5.70   28.10
  -4   8   7    1.80   19.80
  -4   8   7   -3.00   27.40
  -3   8   7    4.50    2.20
  -3   8   7   -7.60   25.80
  -3   8   7    7.90   20.20
  -2   8   7   31.60   25.30
  -2   8   7   11.10   19.50
  -1   8   7  -30.70   24.00
  -1   8   7   19.20    2.30
  -1   8   7   59.59   25.60
   0   8   7   24.90   27.10
   0   8   7   44.50   23.50
   1   8   7   -0.20   24.30
  -2  -8  -7   76.29   24.70
   2   8   7  103.49   28.30
  -3  -8  -7   46.40   26.70
   3   8   7   -2.60   28.30
  -4  -8  -7   12.20   27.50
   4   8   7   65.99   33.80
  -5  -8  -7   28.70   29.30
   5   8   7    1.50   32.20
  -6  -8  -7  -17.00   33.10
   6   8   7   27.10   40.80
  -7  -8  -7   77.89   39.30
   7   8   7   64.49   44.40
  -8  -8  -7  -20.70   42.40
   8   8   7  104.99   54.39
  -9  -8  -7  -46.30   49.00
   9   8   7  -29.50   55.39
  -9   9   7  -19.00   28.00
  -8   9   7   -0.70   28.40
  -7   9   7   27.60   34.00
  -7   9   7  -17.30   23.10
  -6   9   7  -17.30   32.40
  -6   9   7   18.00   24.20
  -5   9   7   57.89   32.20
  -5   9   7   34.00   24.50
  -4   9   7   31.20   32.30
  -4   9   7   36.30   24.30
  -3   9   7   36.50   24.50
  -3   9   7   13.30    2.70
  -3   9   7   31.50   31.70
  -2   9   7   13.40    2.50
  -2   9   7   18.20   24.30
  -2   9   7   20.00   29.40
  -1   9   7   18.10   24.50
  -1   9   7   14.20    2.60
  -1   9   7  -43.50   28.50
   0   9   7   17.10   25.80
   0   9   7   67.29   33.10
   1   9   7   43.90   29.80
  -2  -9  -7   -0.90   25.90
   2   9   7    1.60   31.10
  -3  -9  -7   38.70   29.90
   3   9   7   31.40   33.50
  -4  -9  -7  -12.30   30.40
   4   9   7    0.30   34.90
  -5  -9  -7  113.49   38.90
   5   9   7   80.29   40.70
  -6  -9  -7   23.20   36.80
   6   9   7   43.30   46.30
  -7  -9  -7  -89.19   40.90
   7   9   7  -37.30   49.50
  -8  -9  -7  -44.90   46.30
   8   9   7    8.60   55.19
  -7  10   7  -27.80   25.50
  -6  10   7   -6.50   26.40
  -5  10   7  -42.40   27.30
  -5  10   7  -29.40   35.90
  -4  10   7    9.50   26.70
  -4  10   7   34.70   39.40
  -3  10   7   45.90   29.50
  -3  10   7  118.49   41.50
  -3  10   7   87.49    4.60
  -2  10   7   40.40   28.40
  -2  10   7  -28.40   34.20
  -2  10   7   65.49    3.80
  -1  10   7   42.80    3.40
  -1  10   7   14.40   35.00
  -1  10   7   18.00   43.10
   0  10   7    0.70   30.30
   0  10   7    8.10   36.20
   1  10   7   26.40   33.20
  -2 -10  -7   31.10   29.50
   2  10   7   38.70   36.40
  -3 -10  -7    2.70   32.80
   3  10   7  -16.50   38.80
  -4 -10  -7   93.59   38.80
   4  10   7  123.39   43.60
  -5 -10  -7   16.30   37.80
   5  10   7   35.30   46.40
  -6 -10  -7  -56.49   44.20
   6  10   7   -6.00   47.50
  -4  11   7  -18.80   31.60
  -3  11   7    8.20   41.70
  -3  11   7  -62.09   28.40
  -3  11   7    0.20    3.00
  -2  11   7   40.50   32.90
  -2  11   7  -69.69   38.90
  -1  11   7  -31.80   41.90
  -1  11   7   -5.70   32.40
  -1  11   7    6.80    3.20
   0  11   7   39.40   34.60
   0  11   7  -31.60   42.30
   1  11   7   39.00   40.10
  -2 -11  -7   68.29   36.90
   2  11   7  -42.50   43.30
  -3 -11  -7   67.29   69.59
  -3  12   7   18.40    3.50
  -2  12   7    3.00    3.40
  -1  12   7   23.60    3.80
  -3  13   7   10.70    3.80
  -2  13   7    5.70    3.80
  -1  13   7   15.70    4.00
  -2  12  -8    6.50   53.59
   2 -12   8  -28.30   41.00
  -3  12  -8  -11.00   34.20
   3 -12   8   61.09   27.10
  -4  12  -8   38.10   27.20
  -2 -11   8  -15.10   33.90
   1  11  -8  -20.50   38.10
  -1 -11   8    7.00   34.40
   0  11  -8  -43.10   37.00
   0 -11   8   50.89   31.20
  -1  11  -8    9.90   36.30
   1 -11   8   -8.70   27.10
  -2  11  -8   -0.60   32.60
   2 -11   8  -19.00   24.60
  -3  11  -8  -34.80   29.10
   3 -11   8  -21.70   21.80
  -4  11  -8   32.80   23.20
   5  10  -8 -157.78   82.49
  -5 -10   8   17.10   48.30
   4  10  -8  -24.90   48.30
  -4 -10   8  -75.09   38.00
   3  10  -8   69.89   46.00
  -3 -10   8  -10.00   36.90
   2  10  -8   41.90   38.20
   1  10  -8  -12.50   33.50
  -1 -10   8  -29.90   29.90
   0  10  -8   57.39   34.80
   0 -10   8   39.40   27.80
  -1  10  -8    3.10   30.90
   1 -10   8   22.00   24.20
  -2  10  -8    5.90   29.20
   2 -10   8   -4.40   21.30
  -3  10  -8   21.70   26.00
   3 -10   8  -26.00   28.80
  -4  10  -8    4.50   18.40
   4 -10   8  -22.00   14.30
   7   9  -8   42.50   55.39
  -7  -9   8   26.30   49.80
   6   9  -8   21.00   49.90
  -6  -9   8   29.30   44.70
   5   9  -8    8.00   47.40
  -5  -9   8  -39.90   39.50
   4   9  -8  -62.09   40.20
  -4  -9   8   20.60   35.50
   3   9  -8  -56.89   35.80
  -3  -9   8  -15.90   30.50
   2   9  -8   11.30   32.90
   1   9  -8   72.79   35.20
  -1  -9   8   66.99   30.40
   0   9  -8   46.30   29.00
   0  -9   8   -6.20   23.50
  -1   9  -8   92.29   30.20
   1  -9   8  133.89   25.90
  -2   9  -8  -12.70   22.80
   2  -9   8   -6.40   17.70
  -3   9  -8    8.80   20.90
   3  -9   8  -11.50   15.80
  -4   9  -8   -0.20   15.40
   4  -9   8    2.10   11.00
   9   8  -8  -46.20   63.59
  -9  -8   8  136.69   63.89
   8   8  -8   68.69   57.89
  -8  -8   8   80.99   50.69
   7   8  -8  -26.10   49.50
  -7  -8   8  -15.00   43.50
   6   8  -8  -35.20   44.60
  -6  -8   8   33.40   40.90
   5   8  -8   10.20   40.10
  -5  -8   8    0.20   36.50
   4   8  -8  -40.50   35.70
  -4  -8   8   62.69   36.20
   3   8  -8  197.28   42.00
  -3  -8   8  185.38   36.00
   2   8  -8   37.90   32.00
  -2  -8   8   20.00   22.40
   1   8  -8   44.60   30.10
  -1  -8   8   52.79   24.90
   0   8  -8   69.89   28.60
   0  -8   8   61.29   22.70
  -1   8  -8   65.69   23.70
   1  -8   8   77.99   21.10
  -2   8  -8  105.69   24.30
   2  -8   8  134.09   19.90
  -3   8  -8   -4.10   17.60
   3  -8   8   24.40   13.40
   4  -8   8   20.40    9.90
  10   7  -8   10.20   68.29
 -10  -7   8   38.60   59.79
   9   7  -8   42.50   59.59
  -9  -7   8  -12.00   49.10
   8   7  -8  -64.89   49.80
  -8  -7   8   26.30   47.60
   7   7  -8   -5.00   43.60
  -7  -7   8  -22.40   39.40
   6   7  -8   12.00   41.40
  -6  -7   8   -5.60   36.80
   5   7  -8   83.39   39.80
  -5  -7   8  141.29   38.00
   4   7  -8  206.68   40.70
  -4  -7   8  218.48   39.10
   3   7  -8  -61.19   25.10
  -3  -7   8   15.10   27.30
   2   7  -8  289.87   38.20
  -2  -7   8  315.77   35.10
   1   7  -8   -8.70   21.90
  -1  -7   8    6.90   17.40
   0   7  -8   12.90   22.10
   0  -7   8   22.80   18.80
  -1   7  -8  -10.10   18.60
   1  -7   8    8.10   16.80
  -2   7  -8   64.29   19.50
   2  -7   8   79.09   16.80
  -3   7  -8   30.80   16.00
   3  -7   8   31.50   12.60
  -4   7  -8  135.29   15.10
   4  -7   8  111.69   12.40
  11   6  -8    3.70   76.09
 -11  -6   8   82.89   65.69
  10   6  -8   27.30   62.59
 -10  -6   8   41.50   55.09
   9   6  -8   29.30   54.39
  -9  -6   8  -15.00   46.80
   8   6  -8   71.89   48.70
  -8  -6   8   12.60   41.70
   7   6  -8   -5.60   43.70
  -7  -6   8    2.20   38.90
   6   6  -8    6.20   35.10
  -6  -6   8  -40.20   32.40
   5   6  -8  345.67   47.20
  -5  -6   8  401.46   46.50
   4   6  -8   -9.20   27.30
  -4  -6   8    2.00   27.10
   3   6  -8  111.49   31.00
  -3  -6   8   80.19   27.10
   2   6  -8   13.50   22.00
  -2  -6   8    4.60   21.40
   1   6  -8  133.09   24.80
   0   6  -8   41.80   19.30
   0  -6   8    2.10   17.20
  -1   6  -8  -23.90   15.50
   1  -6   8   24.20   16.10
  -2   6  -8  276.87   29.00
   2  -6   8  361.86   26.90
  -3   6  -8  194.28   22.00
   3  -6   8  201.28   19.40
  -4   6  -8   -7.40    7.80
   4  -6   8    0.70    7.00
  11   5  -8   24.70   65.69
 -11  -5   8   -6.60   57.79
  10   5  -8  -16.60   55.59
 -10  -5   8   72.59   54.59
   9   5  -8  -23.00   46.30
  -9  -5   8   34.80   44.90
   8   5  -8   76.29   45.10
  -8  -5   8  -23.70   39.10
   7   5  -8   46.60   38.10
  -7  -5   8   29.70   34.60
   6   5  -8   37.40   33.10
  -6  -5   8  -16.40   30.10
   5   5  -8   77.59   30.80
  -5  -5   8   96.49   32.50
   4   5  -8   76.09   28.80
  -4  -5   8   99.99   28.60
   3   5  -8  135.89   30.00
  -3  -5   8  111.19   27.20
   2   5  -8   -3.70   21.10
  -2  -5   8    0.50   19.10
   1   5  -8  141.39   27.10
   0   5  -8   19.80   17.20
   0  -5   8   10.30   16.70
  -1   5  -8  482.15   35.50
   1  -5   8  511.55   35.20
  -2   5  -8   27.80   13.60
   2  -5   8   37.90   13.60
  -3   5  -8  180.88   19.40
   3  -5   8  157.88   18.90
   4  -5   8    8.60    8.00
  11   4  -8 -115.99   56.69
 -11  -4   8  -28.30   56.89
  10   4  -8   -4.10   49.90
 -10  -4   8  -52.59   46.60
   9   4  -8  123.19   44.90
  -9  -4   8   40.50   40.40
   8   4  -8  107.39   44.00
  -8  -4   8   63.09   39.30
   7   4  -8   33.40   35.30
  -7  -4   8   51.69   35.00
   6   4  -8  179.78   39.10
  -6  -4   8  175.38   36.70
   5   4  -8   70.29   31.40
  -5  -4   8   70.79   27.90
   4   4  -8   50.69   25.90
  -4  -4   8   14.10   22.10
   3   4  -8  114.19   27.10
  -3  -4   8   62.79   24.40
   2   4  -8  198.08   28.50
  -2  -4   8  161.98   26.00
   1   4  -8   26.20   18.30
  -1  -4   8   11.70   17.10
   0   4  -8 1118.99   58.49
   0  -4   8 1093.89   57.49
  -1   4  -8   17.00   13.80
   1  -4   8   21.70   13.80
  -2   4  -8  348.57   26.80
   2  -4   8  366.06   26.80
  -3   4  -8  249.58   20.20
   3  -4   8  229.58   21.40
   4  -4   8  122.29   12.50
   4  -4   8  101.49   13.30
   5  -4   8   17.40    9.60
   5  -4   8   16.90    8.60
   6  -4   8   17.80    8.30
   6  -4   8   32.00    9.90
   7  -4   8   82.79   21.50
   7  -4   8   79.39   11.70
   8  -4   8   21.40   11.80
   8  -4   8   44.30   13.60
   9  -4   8   72.39   15.80
   9  -4   8   84.59   16.50
  10  -4   8  105.89   20.30
  10  -4   8  119.29   19.20
  11  -4   8   13.60   19.50
  12  -4   8   22.40   22.50
  11   3  -8  -64.49   54.09
 -11  -3   8   31.40   51.09
  10   3  -8  -53.49   44.40
 -10  -3   8  -11.80   44.50
   9   3  -8  -38.50   39.70
  -9  -3   8   31.90   40.70
   8   3  -8    7.40   35.60
  -8  -3   8  -10.20   34.40
   7   3  -8  -16.80   31.70
  -7  -3   8   28.70   29.80
   6   3  -8  182.68   36.30
  -6  -3   8  164.08   34.30
   5   3  -8  215.58   34.60
  -5  -3   8  204.98   33.00
   4   3  -8  290.77   35.80
  -4  -3   8  327.67   37.60
   3   3  -8   13.80   20.90
  -3  -3   8   23.30   19.50
   2   3  -8  829.82   51.19
  -2  -3   8  806.42   49.99
   1   3  -8   29.50   15.90
  -1  -3   8   30.40   16.40
   0   3  -8  180.88   23.50
  -1   3  -8    5.10   12.00
   1  -3   8   12.10   12.90
  -2   3  -8   49.10   13.10
  -2   3  -8   30.60    1.80
   2  -3   8   51.09   13.80
  -3   3  -8  575.94   31.70
   3  -3   8  577.14   33.80
   4  -3   8  276.37   18.60
   4  -3   8  264.67   23.10
   5  -3   8   49.60   13.20
   5  -3   8   98.59    3.90
   5  -3   8   82.29   11.60
   6  -3   8   45.90    2.40
   6  -3   8   61.79   13.90
   6  -3   8   29.90   11.50
   7  -3   8   58.79   14.10
   7  -3   8   73.19   15.50
   8  -3   8   67.69   17.40
   8  -3   8   77.39   17.30
   9  -3   8   15.20   19.00
   9  -3   8   -2.00   18.20
  10  -3   8  -20.90   22.10
  10  -3   8  -23.70   21.90
  11  -3   8   -1.30   25.10
  12  -3   8  -24.20   30.90
  11   2  -8   60.09   51.39
 -11  -2   8   12.00   50.19
  10   2  -8    0.30   43.10
 -10  -2   8  -74.69   39.20
   9   2  -8   18.20   37.90
  -9  -2   8   19.60   37.50
   8   2  -8    0.00   32.70
  -8  -2   8  -16.10   32.90
   7   2  -8   47.10   31.10
  -7  -2   8   15.20   29.00
   6   2  -8   -9.00   24.60
  -6  -2   8  -28.10   24.70
   5   2  -8  342.37   41.80
  -5  -2   8  298.77   39.00
   4   2  -8  120.49   25.80
  -4  -2   8  116.89   26.60
   3   2  -8 1686.03   85.49
  -3  -2   8 1718.43   84.99
   2   2  -8   80.49   20.00
  -2  -2   8   56.69   19.70
   1   2  -8 1434.06   70.59
  -1  -2   8 1437.96   70.39
   0   2  -8  425.96   30.50
  -1   2  -8   17.40   12.10
   1  -2   8    9.40   11.90
  -2   2  -8  954.80   38.40
  -2   2  -8  964.90   47.50
   2  -2   8  941.61   49.00
   3  -2   8  991.70   50.09
   4  -2   8   46.30    2.30
   4  -2   8   25.50   12.00
   4  -2   8   40.10   10.00
   5  -2   8  567.14   31.60
   5  -2   8  545.05   22.40
   5  -2   8  560.84   33.70
   6  -2   8   15.70   12.30
   6  -2   8    0.20   13.00
   7  -2   8  337.87   30.00
   7  -2   8  384.96   30.10
   8  -2   8   -0.80   17.30
   8  -2   8   -5.70   15.70
   9  -2   8   30.70   20.80
  10  -2   8   10.00   25.40
  11   1  -8  103.69   50.49
 -11  -1   8  -55.49   45.00
  10   1  -8  -81.59   36.20
 -10  -1   8  -62.89   38.50
   9   1  -8   90.39   37.30
  -9  -1   8  108.19   37.20
   8   1  -8   64.39   33.40
  -8  -1   8   82.59   34.20
  -7  -1   8   47.70   31.20
   6   1  -8   25.50   23.40
  -6  -1   8    5.20   23.00
   5   1  -8  298.57   35.10
  -5  -1   8  300.57   37.90
   4   1  -8   16.80   19.50
  -4  -1   8   39.70   22.20
   3   1  -8  291.37   32.80
  -3  -1   8  264.07   30.60
   2   1  -8  246.28   27.60
  -2  -1   8  215.68   27.60
   1   1  -8 1882.11   88.09
  -1  -1   8 1890.61   88.09
   0   1  -8  160.08   20.00
   0  -1   8  142.19   19.50
  -1   1  -8 1494.65   87.59
  -1   1  -8 1773.32   67.19
  -2   1  -8  156.78   19.30
   2  -1   8  155.78   19.70
   3  -1   8 2468.05  101.89
   3  -1   8 2387.06  105.19
   3  -1   8 2293.17   95.69
   4  -1   8   -3.00   12.60
   4  -1   8   29.40   11.40
   4  -1   8   17.00    1.40
   5  -1   8    0.50   11.40
   5  -1   8    3.70   13.30
   6  -1   8  475.45   34.60
   6  -1   8  528.15   34.20
   7  -1   8  169.28   21.90
  -8   1  -8   37.30   16.50
   8  -1   8   55.99   19.50
  -9   1  -8   88.09   21.10
   9  -1   8   78.29   24.10
 -10   1  -8  -25.80   19.90
  10  -1   8   -4.60   26.80
  11   0  -8  115.49   47.30
 -11   0   8   13.10   47.10
  10   0  -8   30.70   36.50
 -10   0   8    0.50   39.30
   9   0  -8   35.70   33.60
  -9   0   8   46.90   35.70
   8   0  -8   24.00   29.60
  -8   0   8   27.70   31.10
   7   0  -8  -26.70   23.70
  -7   0   8   33.60   30.30
   6   0  -8  116.69   26.70
  -6   0   8   49.00   25.20
   5   0  -8   37.50   21.50
  -5   0   8   52.19   22.60
   4   0  -8   10.20   17.40
  -4   0   8    1.60   19.60
   3   0  -8  305.17   31.20
  -3   0   8  297.27   32.90
   2   0  -8 1087.39   56.99
  -2   0   8 1036.80   56.79
   1   0  -8   -2.60   12.90
  -1   0   8   19.50   14.90
   0   0  -8 2200.18   93.29
   0   0  -8 2374.56  103.59
   0   0   8 2410.66  104.79
  -1   0  -8   21.90    1.40
  -1   0  -8   16.80   12.00
   1   0   8   17.00    1.40
   1   0   8    8.50   12.90
   2   0   8 2237.38   89.99
   3   0   8  -14.00    9.90
   3   0   8    7.30    1.30
   3   0   8   13.00   10.50
   4   0   8  740.13   43.80
   4   0   8  855.61   42.70
   5   0   8   29.00   13.90
  -6   0  -8   20.30   13.60
   6   0   8   47.60   17.40
  -7   0  -8   17.10   15.10
   7   0   8   26.30   18.40
  -8   0  -8  298.87   31.60
   8   0   8  282.47   32.30
  -9   0  -8  127.69   24.40
   9   0   8   94.09   27.10
 -10   0  -8   24.40   23.30
  10   0   8   25.60   29.00
  11  -1  -8   10.00   42.60
 -11   1   8   25.30   42.60
  10  -1  -8   10.10   37.00
 -10   1   8   59.79   40.90
   9  -1  -8    3.20   30.90
  -9   1   8    4.10   32.20
   8  -1  -8   87.59   29.40
  -8   1   8   39.00   31.20
   7  -1  -8   32.70   24.50
  -7   1   8   33.50   26.50
   6  -1  -8   21.20   23.40
  -6   1   8   45.10   25.40
   5  -1  -8    6.00   18.20
  -5   1   8   42.00   23.40
   4  -1  -8  360.66   35.10
  -4   1   8  365.16   37.00
   3  -1  -8   24.30   16.40
  -3   1   8   21.90   17.70
   2  -1  -8  344.87   29.90
  -2   1   8  306.67   31.00
   1  -1  -8   76.39   16.40
   1  -1  -8   49.00    2.70
  -1   1   8   86.59   18.30
   0  -1  -8  228.88    9.10
   0  -1  -8  207.28   22.60
   0   1   8  220.38    9.10
   0   1   8  189.78   24.30
  -1  -1  -8 1219.08   58.69
   1   1   8 1209.08   59.89
   1   1   8 1157.38   47.90
   2   1   8  211.08   24.20
   2   1   8  292.37   11.10
   2   1   8  257.37   21.80
   3   1   8 2201.58   93.39
   3   1   8 1997.00   95.19
   4   1   8  265.87   25.60
  -5  -1  -8   62.99   15.90
   5   1   8   50.89   17.10
  -6  -1  -8  361.86   30.10
   6   1   8  350.06   33.50
  -7  -1  -8   43.70   18.70
   7   1   8   47.00   20.90
  -8  -1  -8  157.88   24.90
   8   1   8  122.59   26.30
  -9  -1  -8   27.40   23.40
   9   1   8   75.49   28.20
 -10  -1  -8   24.20   26.90
  10   1   8   26.90   31.90
  10  -2  -8  -16.00   37.10
 -10   2   8  -12.90   39.10
   9  -2  -8   41.80   32.10
  -9   2   8   52.79   32.90
   8  -2  -8  -47.10   25.00
  -8   2   8  -26.20   27.30
   7  -2  -8   65.19   25.70
  -7   2   8  109.09   28.70
  -6   2   8    3.40   21.90
   5  -2  -8  187.08   27.30
  -5   2   8  210.48   28.70
   4  -2  -8  216.28   27.30
  -4   2   8  299.17   34.10
   3  -2  -8  907.21   51.29
  -3   2   8  898.41   52.69
   2  -2  -8  120.69   20.20
   2  -2  -8  177.58    6.80
  -2   2   8  110.99   21.00
   1  -2  -8 1053.09   54.39
   1  -2  -8 1024.40   42.40
  -1   2   8 1094.99   56.39
   0  -2  -8   -2.40   13.10
   0   2   8   13.00    1.40
   0   2   8    8.00   14.40
   1   2   8  485.45   34.70
   1   2   8  497.15   20.00
   1   2   8  494.35   29.60
   2   2   8   52.59   16.60
   2   2   8   58.79   14.20
   3   2   8 1487.05   70.59
  -4  -2  -8  174.48   21.90
   4   2   8  210.08   23.60
  -5  -2  -8  837.32   47.60
   5   2   8  841.52   48.60
  -6  -2  -8   68.19   18.40
   6   2   8   34.60   20.20
  -7  -2  -8  452.25   39.00
   7   2   8  431.46   41.80
  -8  -2  -8   12.30   21.80
   8   2   8  -39.20   21.80
  -9  -2  -8   10.30   23.70
   9   2   8   16.50   28.00
 -10  -2  -8  -29.00   28.20
  10   2   8  -31.30   33.60
  10  -3  -8    5.30   35.90
 -10   3   8   24.90   36.60
   9  -3  -8   57.09   30.10
  -9   3   8  -18.70   32.10
   8  -3  -8   88.99   30.10
  -8   3   8   38.30   30.20
   7  -3  -8   91.49   27.50
  -7   3   8  137.19   31.70
   6  -3  -8   36.30   21.90
  -6   3   8   29.60   24.30
   5  -3  -8   14.40   18.70
  -5   3   8    9.40   20.50
   4  -3  -8   14.50   16.30
  -4   3   8   10.60   19.20
   3  -3  -8   12.40    1.50
   3  -3  -8    6.80   15.00
  -3   3   8    5.00   18.00
   2  -3  -8  971.00   52.49
   2  -3  -8  965.60   39.10
  -2   3   8  973.00   54.99
   1  -3  -8   14.70   14.70
  -1   3   8   20.30   16.10
  -1   3   8    5.80    1.50
   0   3   8  388.56   31.80
   0   3   8  322.97   13.70
   1   3   8  549.85   38.90
   1   3   8  550.94   34.50
   1   3   8  557.94   22.50
   2   3   8  486.95   33.60
   2   3   8  485.55   36.40
  -3  -3  -8  928.01   48.40
   3   3   8  842.62   49.00
  -4  -3  -8  359.56   31.20
   4   3   8  392.76   33.30
  -5  -3  -8  -30.80   15.30
   5   3   8    6.00   18.90
  -6  -3  -8   91.79   22.30
   6   3   8   77.29   23.00
  -7  -3  -8    4.40   20.00
   7   3   8   11.20   24.90
  -8  -3  -8   58.59   25.10
   8   3   8   22.90   27.30
  -9  -3  -8   73.69   29.30
   9   3   8  -28.70   30.40
 -10  -3  -8  -53.79   30.00
  10   3   8  -39.00   36.90
  10  -4  -8  -17.00   35.00
 -10   4   8   14.70   37.60
   9  -4  -8   25.30   30.30
  -9   4   8  -21.80   33.30
   8  -4  -8   -9.90   24.80
  -8   4   8   65.49   30.00
   7  -4  -8  315.97   36.20
  -7   4   8  200.98   33.70
   6  -4  -8  128.29   24.00
   6  -4  -8  117.69    5.20
  -6   4   8   63.29   26.10
   5  -4  -8  229.48   28.60
   5  -4  -8  239.38    9.90
   4  -4  -8  109.69   22.10
   4  -4  -8  110.69    5.00
  -4   4   8  141.39   26.80
   3  -4  -8   86.19   19.70
   3  -4  -8   28.80    2.00
  -3   4   8   36.60   19.90
   2  -4  -8  623.44   40.10
  -2   4   8  554.44   42.00
  -1   4   8  469.95   18.70
  -1   4   8  428.16   36.00
   0   4   8  691.33   44.40
   0   4   8  697.43   28.10
   0   4   8  687.93   40.50
   1   4   8  301.47   28.80
   1   4   8  303.97   31.60
   2   4   8  994.00   54.39
  -3  -4  -8   26.90   16.00
   3   4   8   33.60   18.20
  -4  -4  -8  202.38   25.00
   4   4   8  178.48   25.80
  -5  -4  -8   32.50   19.60
   5   4   8   20.70   21.50
  -6  -4  -8   73.49   22.70
   6   4   8   27.80   25.50
  -7  -4  -8   69.89   26.70
   7   4   8   78.19   30.60
   8   4   8  181.08   36.50
  -9  -4  -8   11.80   32.10
   9   4   8  -78.69   31.70
 -10  -4  -8  -27.70   34.60
  10   4   8   26.30   41.60
  10  -5  -8  -17.30   38.40
 -10   5   8  -30.40   35.70
   9  -5  -8   61.69   29.10
  -9   5   8    5.90   34.00
   8  -5  -8   22.00    2.20
   8  -5  -8  -12.10   23.60
  -8   5   8    4.60   29.70
   7  -5  -8    5.00    2.00
   7  -5  -8  -21.20   21.00
  -7   5   8   17.50   26.60
   6  -5  -8  140.59   26.80
   6  -5  -8  125.99    5.70
  -6   5   8  101.69   29.80
   5  -5  -8   87.09   22.10
   5  -5  -8   86.09    4.10
  -5   5   8   53.99   23.70
   4  -5  -8   22.30    1.90
   4  -5  -8   18.60   17.70
   3  -5  -8  166.18   24.30
  -3   5   8  130.19   26.80
  -2   5   8   75.29   16.70
  -2   5   8   49.00   23.10
  -2   5   8   71.79    3.70
  -1   5   8  794.22   45.40
  -1   5   8  795.52   32.50
  -1   5   8  835.22   51.49
   0   5   8  -31.70   17.00
   0   5   8   19.80    1.80
   0   5   8   -3.50   14.60
   1   5   8  462.85   39.30
   1   5   8  436.16   34.30
   2   5   8   -6.60   17.40
  -3  -5  -8  608.64   43.40
   3   5   8  650.43   45.00
  -4  -5  -8   12.20   18.60
   4   5   8   11.40   21.10
  -5  -5  -8  127.69   26.10
   5   5   8  115.89   28.00
  -6  -5  -8   31.40   23.50
   6   5   8   33.50   29.50
  -7  -5  -8   15.00   26.50
   7   5   8  -18.60   28.70
  -8  -5  -8  -19.90   29.90
   8   5   8   19.90   35.60
  -9  -5  -8   82.19   37.50
   9   5   8   30.60   39.20
 -10  -5  -8  -72.99   36.20
  10   5   8   44.90   47.20
  11  -6  -8   19.30    3.10
  10  -6  -8   21.20    2.90
   9  -6  -8   73.39   32.40
   9  -6  -8   22.00    2.60
  -9   6   8   -7.60   34.60
   8  -6  -8   36.00    2.70
   8  -6  -8  -26.30   26.20
  -8   6   8   55.99   31.30
   7  -6  -8   57.59   24.40
   7  -6  -8    3.00    2.10
  -7   6   8   22.80   28.50
   6  -6  -8   -2.30   19.70
   6  -6  -8   -2.40    1.80
  -6   6   8  -27.00   24.30
   5  -6  -8   45.60   20.60
  -5   6   8   80.39   28.90
  -4   6   8   14.00   23.40
  -3   6   8   59.79   25.10
  -3   6   8    7.10   14.80
  -2   6   8   23.00   25.10
  -2   6   8    6.40    1.80
  -2   6   8  -10.30   21.40
  -1   6   8  177.48   23.10
  -1   6   8  192.18   30.20
  -1   6   8  184.78    7.90
   0   6   8   21.80   21.90
   0   6   8    9.00   17.30
   1   6   8   34.90   23.70
   1   6   8   -6.60   17.50
  -2  -6  -8   98.89   21.00
   2   6   8   72.59   23.40
  -3  -6  -8   11.20   19.40
   3   6   8   41.20   23.40
  -4  -6  -8   31.00   22.50
   4   6   8   52.89   26.00
  -5  -6  -8  137.29   29.10
   5   6   8   73.59   30.50
  -6  -6  -8  -44.40   25.60
   6   6   8  -13.20   28.80
  -7  -6  -8  262.47   40.30
   7   6   8  190.18   41.10
  -8  -6  -8   -4.40   33.40
   8   6   8   99.59   41.20
  -9  -6  -8   50.79   38.30
   9   6   8   64.89   49.20
  10   6   8   57.79   71.19
  11  -7  -8    9.60    3.30
  10  -7  -8   16.60    2.90
   9  -7  -8   33.00    2.90
   8  -7  -8   13.00    2.50
   8  -7  -8   18.60   26.50
  -8   7   8   32.60   32.20
   7  -7  -8  -32.70   22.90
  -7   7   8   20.90   31.10
  -6   7   8   10.20   28.90
  -5   7   8  -15.30   27.30
  -5   7   8   56.49   20.20
  -4   7   8  150.68   30.90
  -4   7   8   81.89   20.90
  -3   7   8    9.60   17.20
  -3   7   8   -4.40   24.90
  -3   7   8    0.40    2.10
  -2   7   8  104.09    5.20
  -2   7   8  117.19   21.40
  -2   7   8  106.89   28.50
  -1   7   8   88.39   27.90
  -1   7   8   61.29    3.40
  -1   7   8   66.89   20.60
   0   7   8   88.19   23.40
   0   7   8   86.79   33.80
   1   7   8   50.19   22.80
  -2  -7  -8  -13.50   18.90
   2   7   8  -31.60   21.10
  -3  -7  -8    1.30   22.00
   3   7   8   21.90   26.10
  -4  -7  -8   10.90   25.40
   4   7   8   36.00   28.30
  -5  -7  -8   13.90   27.60
   5   7   8   25.50   31.10
  -6  -7  -8  135.19   35.20
   6   7   8  110.69   38.00
  -7  -7  -8   35.30   33.50
   7   7   8    3.10   37.40
  -8  -7  -8  -63.59   36.70
   8   7   8   41.40   44.90
  -9  -7  -8  -37.10   44.90
   9   7   8   20.10   52.59
  -8   8   8   34.10   25.00
  -8   8   8   47.40   33.60
  -7   8   8   29.00   23.70
  -7   8   8  -24.30   31.40
  -6   8   8   46.60   23.10
  -6   8   8  -16.10   31.10
  -5   8   8   69.89   33.40
  -5   8   8   10.30   20.90
  -4   8   8   56.99   24.20
  -4   8   8   47.10   30.80
  -3   8   8  -12.70   20.90
  -3   8   8   24.00   31.50
  -3   8   8    7.50    2.30
  -2   8   8   26.00   27.40
  -2   8   8   30.70   23.60
  -2   8   8    6.80    2.30
  -1   8   8    6.40   22.10
  -1   8   8  -15.00   26.80
  -1   8   8    7.40    2.30
   0   8   8   68.09   25.10
   0   8   8   97.29   31.20
   1   8   8   22.10   24.20
  -2  -8  -8   53.69   26.00
   2   8   8   54.59   26.80
  -3  -8  -8   -2.50   25.70
   3   8   8    0.50   28.90
  -4  -8  -8   65.79   29.60
   4   8   8   64.19   34.40
  -5  -8  -8   37.80   30.30
   5   8   8   -9.80   33.40
  -6  -8  -8   14.80   34.70
   6   8   8    4.20   39.60
  -7  -8  -8   29.70   39.00
   7   8   8  -17.70   41.60
  -8  -8  -8   35.60   45.30
   8   8   8    5.80   49.50
  -9  -8  -8  -62.59   48.00
   9   8   8  -16.40   59.69
  -8   9   8    6.30   26.00
  -7   9   8   29.70   43.10
  -7   9   8    6.60   25.00
  -6   9   8  -36.90   35.00
  -6   9   8  -40.80   24.10
  -5   9   8   29.30   25.40
  -5   9   8   32.30   35.80
  -4   9   8    1.10   31.90
  -4   9   8   55.79   26.40
  -3   9   8    0.40   24.60
  -3   9   8    3.90    2.70
  -3   9   8    4.40   33.70
  -2   9   8   88.29    4.90
  -2   9   8   56.49   26.90
  -2   9   8   69.49   32.90
  -1   9   8   41.90   32.90
  -1   9   8    8.60   29.20
  -1   9   8    6.20    2.60
   0   9   8    6.20   26.90
   0   9   8   51.19   32.60
   1   9   8   22.50   28.20
  -2  -9  -8  -26.10   25.10
   2   9   8   43.20   32.40
  -3  -9  -8  133.29   31.70
   3   9   8  123.29   38.60
  -4  -9  -8    2.30   31.90
   4   9   8  -79.49   34.60
  -5  -9  -8  -36.10   32.90
   5   9   8  -41.80   39.90
  -6  -9  -8   50.39   39.50
   6   9   8   -9.00   44.20
  -7  -9  -8   27.40   43.80
   7   9   8   -5.50   49.60
  -8  -9  -8 -134.29   49.40
   8   9   8 -133.29   54.49
  -6  10   8   -2.70   27.90
  -5  10   8   25.00   29.10
  -5  10   8   65.59   37.90
  -4  10   8   -1.20   28.30
  -4  10   8   15.40   39.80
  -3  10   8   13.60    2.90
  -3  10   8  -37.50   27.90
  -3  10   8    9.50   39.70
  -2  10   8    2.20    2.90
  -2  10   8   11.20   37.30
  -2  10   8   -8.90   30.50
  -1  10   8    0.30   37.00
  -1  10   8   27.30   29.50
  -1  10   8   39.50    3.40
   0  10   8   31.10   38.90
   0  10   8  -56.99   31.10
   1  10   8    8.80   33.70
   1  10   8  -25.00   38.80
   2  10   8   35.20   37.60
  -3 -10  -8  -13.00   31.20
   3  10   8    3.70   39.20
  -4 -10  -8   53.49   36.80
   4  10   8  -32.00   42.40
  -5 -10  -8  -64.69   38.80
   5  10   8   10.70   46.50
  -6 -10  -8  -49.20   46.40
   6  10   8  -24.80   48.70
  -3  11   8    9.10    3.20
  -2  11   8   67.09   42.90
  -2  11   8  -21.40   38.40
  -2  11   8    8.00    3.20
  -1  11   8   16.10    3.40
  -1  11   8   23.20   46.30
   0  11   8   87.09   45.80
   0  11   8    2.20   40.90
   1  11   8  -20.40   63.39
   1  11   8   36.60   48.60
  -3  12   8   -5.80    3.60
  -2  12   8   21.00    3.70
  -1  12   8    4.40    3.70
   0  12   8    1.20    3.80
  -2  13   8   13.90    3.90
  -1  13   8   18.20    4.20
   0  13   8    2.70    5.10
  -3  12  -9  -53.39   32.90
   3 -12   9   19.90   26.40
  -4  12  -9   27.80   26.60
   1  11  -9  -62.29   45.80
  -1 -11   9   30.10   37.70
   0  11  -9  -36.50   37.80
   0 -11   9  -32.70   31.40
  -1  11  -9   20.10   36.50
   1 -11   9   28.30   29.10
  -2  11  -9  -11.30   34.30
   2 -11   9   -4.70   26.40
  -3  11  -9   38.20   30.30
   3 -11   9   26.50   24.30
  -4  11  -9  -62.39   21.40
   4  10  -9  -37.00   47.60
  -4 -10   9   46.70   44.30
   3  10  -9  -45.20   43.70
  -3 -10   9  -67.09   35.90
   2  10  -9  -16.30   35.60
  -2 -10   9    8.00   41.70
   1  10  -9  -56.29   34.80
  -1 -10   9  -19.80   29.50
   0  10  -9   -9.10   34.00
   0 -10   9   27.40   28.40
  -1  10  -9   31.90   33.40
   1 -10   9  -29.50   24.50
  -2  10  -9  -14.50   29.50
   2 -10   9   18.80   22.30
  -3  10  -9   49.90   29.60
  -4  10  -9   17.50   18.80
   4 -10   9    5.80   15.00
   7   9  -9  -21.70   79.79
  -7  -9   9   45.00   56.99
   6   9  -9  -78.89   50.29
  -6  -9   9   23.50   44.60
   5   9  -9    5.80   45.60
  -5  -9   9  -52.49   39.40
   4   9  -9   -8.20   42.20
  -4  -9   9   15.20   38.00
   3   9  -9  137.19   45.60
  -3  -9   9  101.79   39.30
   1   9  -9   24.10   35.70
  -1  -9   9   40.80   30.70
   0   9  -9    7.70   30.80
   0  -9   9   11.60   24.30
  -1   9  -9   30.80   29.00
   1  -9   9   61.59   24.20
  -2   9  -9   -2.20   26.00
   2  -9   9   -0.40   19.60
  -3   9  -9   17.60   21.80
   3  -9   9   19.00   17.20
  -4   9  -9   24.70   16.00
   4  -9   9   15.00   12.60
   9   8  -9  -94.19   64.19
  -9  -8   9   10.10   63.89
   8   8  -9    4.50   56.99
  -8  -8   9    8.50   49.60
   7   8  -9   43.00   51.59
  -7  -8   9  -31.20   45.60
   6   8  -9   29.40   49.70
  -6  -8   9    1.70   42.50
   5   8  -9    6.60   42.10
  -5  -8   9   -1.70   36.90
   4   8  -9   38.60   40.70
  -4  -8   9  103.39   37.30
   3   8  -9   10.40   34.20
  -3  -8   9  -29.60   30.60
   2   8  -9   51.89   33.50
  -2  -8   9   42.50   31.00
   1   8  -9  -19.40   28.00
  -1  -8   9    0.50   25.50
   0   8  -9   26.20   25.60
   0  -8   9   14.50   23.40
  -1   8  -9   -3.90   23.00
   1  -8   9   -2.90   20.30
  -2   8  -9    8.10   21.70
   2  -8   9   16.20   18.10
  -3   8  -9   27.10   19.00
   3  -8   9   19.40   15.20
   4  -8   9   28.60   11.10
  10   7  -9 -127.79   68.99
 -10  -7   9  -54.79   61.19
   9   7  -9   11.50   62.69
  -9  -7   9 -115.49   50.99
   8   7  -9   -1.90   54.59
  -8  -7   9  -20.80   47.50
   7   7  -9  -33.70   46.60
  -7  -7   9    8.00   42.70
   6   7  -9   50.59   44.30
  -6  -7   9   14.80   40.20
   5   7  -9   74.89   40.90
  -5  -7   9  120.39   37.70
   4   7  -9  325.07   46.70
  -4  -7   9  367.46   45.70
   3   7  -9  -25.60   29.20
  -3  -7   9   37.10   29.40
   2   7  -9   21.90   26.30
  -2  -7   9    2.50   22.90
   1   7  -9   72.29   26.80
  -1  -7   9   58.69   22.60
   0   7  -9  -11.00   22.90
   0  -7   9   13.80   20.10
  -1   7  -9   -4.40   20.70
   1  -7   9    4.20   17.80
  -2   7  -9   11.50   18.50
   2  -7   9   65.09   17.50
  -3   7  -9   36.90   17.00
   3  -7   9   12.20   13.30
  -4   7  -9  167.98   18.70
   4  -7   9  153.78   16.10
  11   6  -9  -10.70   79.19
 -11  -6   9  -23.00   64.19
  10   6  -9  -33.60   61.79
 -10  -6   9  -77.49   58.39
   9   6  -9  -38.50   52.69
  -9  -6   9   29.30   51.19
   8   6  -9   29.00   49.10
  -8  -6   9   35.60   44.70
   7   6  -9   -3.30   42.20
  -7  -6   9   23.10   39.90
   6   6  -9   50.19   39.00
  -6  -6   9   -0.20   34.30
   5   6  -9  227.88   41.90
  -5  -6   9  201.58   40.90
   4   6  -9   -0.20   31.00
  -4  -6   9    2.50   27.20
   3   6  -9  213.98   38.00
  -3  -6   9  293.37   38.10
   2   6  -9  201.48   34.30
  -2  -6   9  175.98   29.50
   1   6  -9   63.19   23.30
   0   6  -9  110.99   23.50
   0  -6   9   59.39   21.00
  -1   6  -9   90.19   21.50
   1  -6   9   70.79   19.20
  -2   6  -9   11.50   15.50
   2  -6   9   -4.50   14.60
  -3   6  -9  121.09   17.40
   3  -6   9  143.59   16.80
  -4   6  -9   15.40   10.30
   4  -6   9   17.00   10.20
  11   5  -9    9.60   69.89
 -11  -5   9  -94.29   63.29
  10   5  -9  -59.59   56.59
 -10  -5   9  -70.69   50.99
   9   5  -9  108.19   53.09
  -9  -5   9  -70.19   43.10
   8   5  -9  119.89   47.30
  -8  -5   9   41.10   43.60
   7   5  -9   76.69   42.20
  -7  -5   9  171.38   42.70
   6   5  -9   -5.20   32.80
  -6  -5   9  -13.50   32.40
   5   5  -9   52.19   31.10
  -5  -5   9    4.90   29.60
   4   5  -9   24.30   27.40
  -4  -5   9   -6.00   25.20
   3   5  -9   22.70   26.60
  -3  -5   9   16.00   24.50
   2   5  -9   31.60   23.60
  -2  -5   9    5.00   20.30
   1   5  -9  574.84   44.30
   0   5  -9   34.00   18.90
   0  -5   9   39.60   18.80
  -1   5  -9  692.43   44.80
   1  -5   9  754.92   44.70
  -2   5  -9  211.78   26.00
   2  -5   9  220.08   25.30
  -3   5  -9   12.20   13.00
  -3   5  -9   39.50    2.10
   3  -5   9   36.70   13.20
   4  -5   9   33.70   11.40
   5  -5   9   94.79   10.30
   5  -5   9   87.89   10.50
  11   4  -9  -12.50   63.79
 -11  -4   9 -110.59   58.19
  10   4  -9 -131.69   49.80
 -10  -4   9  -43.60   48.80
   9   4  -9   -3.70   44.20
  -9  -4   9   11.80   42.90
   8   4  -9  103.39   44.00
  -8  -4   9  -16.40   37.20
   7   4  -9    0.50   36.20
  -7  -4   9   16.30   35.40
   6   4  -9  258.47   44.50
  -6  -4   9  260.37   40.60
   5   4  -9  114.49   32.70
  -5  -4   9  129.09   32.10
   4   4  -9   16.10   25.90
  -4  -4   9   19.40   24.00
   3   4  -9  254.57   34.70
  -3  -4   9  319.77   36.40
   2   4  -9   83.89   23.00
  -2  -4   9   98.09   23.90
   1   4  -9   23.20   32.10
  -1  -4   9    4.40   16.80
   0   4  -9 2029.10   97.09
   0  -4   9 2119.69   96.59
  -1   4  -9   30.40   15.40
   1  -4   9   41.90   15.90
  -2   4  -9  487.15   33.40
   2  -4   9  521.25   34.20
  -3   4  -9   73.89    3.50
  -3   4  -9   99.29   14.60
   3  -4   9   86.49   15.50
   4  -4   9   35.60   12.60
   5  -4   9    4.90   11.40
   5  -4   9   11.60    8.60
   6  -4   9    8.80    9.60
   6  -4   9   -3.30   12.40
   7  -4   9    2.10   10.60
   7  -4   9    2.00   16.00
   8  -4   9    7.10   15.50
   8  -4   9   27.90   13.30
   9  -4   9   10.70   15.00
   9  -4   9    2.80   16.40
  10  -4   9   38.70   18.90
  10  -4   9  -29.30   18.10
  11  -4   9   12.30   20.90
  12  -4   9    6.10   26.60
  11   3  -9   62.39   62.09
 -11  -3   9  125.29   56.79
  10   3  -9  -99.79   45.10
 -10  -3   9   54.39   48.20
   9   3  -9  -52.39   42.70
  -9  -3   9   67.89   43.70
   8   3  -9  -38.40   36.50
  -8  -3   9   17.90   36.00
   7   3  -9  -10.70   33.70
  -7  -3   9   14.20   32.00
   6   3  -9  194.68   37.60
  -6  -3   9  256.47   38.50
   5   3  -9   -8.70   23.90
  -5  -3   9  -45.90   24.10
   4   3  -9  653.13   51.19
  -4  -3   9  614.04   50.69
   3   3  -9   40.50   23.00
  -3  -3   9   -0.20   21.10
   2   3  -9 1628.34   82.49
  -2  -3   9 1590.34   80.99
   1   3  -9 1903.51   94.39
  -1  -3   9 2053.69   93.99
   0   3  -9   29.00   14.80
  -1   3  -9   24.90   15.40
   1  -3   9   13.70   15.20
  -2   3  -9  318.07   26.30
  -2   3  -9  287.67   12.10
   2  -3   9  317.67   27.40
  -3   3  -9   47.00   12.50
   3  -3   9    9.40   13.50
   4  -3   9  422.76   25.10
   4  -3   9  426.46   30.50
   5  -3   9   70.09   16.30
   5  -3   9   80.69   12.80
   6  -3   9   62.39    3.10
   6  -3   9   70.69   13.40
   6  -3   9   41.90   15.60
   7  -3   9  126.59   17.20
   7  -3   9  120.29    5.20
   7  -3   9   91.29   18.50
   8  -3   9    1.70   15.70
   8  -3   9    9.00   17.00
   8  -3   9   15.50    1.70
   9  -3   9   59.09   31.40
   9  -3   9   62.79   20.90
  10  -3   9   69.09   23.90
  10  -3   9  -13.80   22.80
  11  -3   9  -16.70   26.80
  12  -3   9  -29.00   52.69
  11   2  -9  102.49   56.39
 -11  -2   9   59.79   54.29
  10   2  -9   26.70   44.70
 -10  -2   9   75.29   45.70
   9   2  -9   42.40   40.40
  -9  -2   9   38.90   39.70
   8   2  -9   13.00   34.50
  -8  -2   9   29.60   34.60
   7   2  -9   49.00   38.20
  -7  -2   9  -17.40   30.40
   6   2  -9   39.30   28.20
  -6  -2   9   20.50   27.10
   5   2  -9  391.86   44.10
  -5  -2   9  413.46   44.70
   4   2  -9   32.90   23.10
  -4  -2   9  -16.00   20.80
   3   2  -9 1170.08   66.89
  -3  -2   9 1197.78   66.29
   2   2  -9   41.30   20.30
  -2  -2   9   33.20   19.60
   1   2  -9  164.08   23.10
  -1  -2   9  198.48   25.30
   0   2  -9  452.85   34.60
  -1   2  -9  286.67   11.70
  -2   2  -9   10.40   12.20
   2  -2   9    9.70   14.30
  -3   2  -9  433.96   29.50
   3  -2   9  428.36   31.30
   4  -2   9   25.30   10.20
   4  -2   9   11.60   12.70
   4  -2   9   15.20    1.40
   5  -2   9  561.04   22.80
   5  -2   9  539.25   36.90
   5  -2   9  590.84   36.70
   6  -2   9   70.39   15.70
   6  -2   9   76.19   17.00
   6  -2   9  100.59    4.30
   7  -2   9   10.10   15.30
   7  -2   9   38.80   17.40
   8  -2   9   28.40   18.00
   8  -2   9   19.30   18.40
   9  -2   9   32.40   22.30
   9  -2   9   -4.30   21.10
  10  -2   9   14.90   26.40
  10  -2   9   10.80   26.80
  11  -2   9   31.50   38.10
  11   1  -9  100.29   51.59
 -11  -1   9  -18.80   49.00
  10   1  -9   22.60   41.50
 -10  -1   9   48.40   44.70
   9   1  -9   58.79   37.90
  -9  -1   9   -5.00   38.80
   8   1  -9   -0.90   32.10
  -8  -1   9   15.40   34.30
   7   1  -9   17.50   30.50
   6   1  -9   38.60   26.20
  -6  -1   9   35.10   26.70
   5   1  -9   99.39   26.20
  -5  -1   9   80.29   26.60
   4   1  -9  700.63   49.99
  -4  -1   9  698.13   49.00
   3   1  -9  303.57   33.70
  -3  -1   9  316.97   33.90
   2   1  -9   48.10   19.40
  -2  -1   9   22.50   18.30
   1   1  -9 2602.94  119.39
  -1  -1   9 2685.13  119.89
   0   1  -9   17.30   14.20
   0  -1   9   13.00   15.40
  -1   1  -9 1121.99   58.99
  -1   1  -9 1258.37   48.50
  -2   1  -9   99.49   16.00
   2  -1   9   21.20   13.10
   3  -1   9   24.80    1.80
   3  -1   9   36.30   12.00
   3  -1   9   71.09   17.00
   4  -1   9  244.58   22.00
   4  -1   9  244.88   25.80
   4  -1   9  252.77   10.30
   5  -1   9   16.50   14.90
   6  -1   9   94.09   19.80
   6  -1   9  138.69   19.40
   7  -1   9  150.48   23.60
   7  -1   9  149.99   21.90
   8  -1   9   38.30   20.50
   9  -1   9   12.50   22.10
  10  -1   9   15.00   27.60
  11   0  -9 -103.49   44.40
 -11   0   9   -8.30   46.80
  10   0  -9   96.79   43.20
 -10   0   9   22.60   44.10
   9   0  -9  144.29   38.70
  -9   0   9   43.20   38.00
   8   0  -9   -2.00   30.90
  -8   0   9   23.80   32.40
   7   0  -9   26.50   26.40
  -7   0   9   22.70   28.40
   6   0  -9  789.32   58.19
  -6   0   9  858.81   60.29
   5   0  -9   92.69   24.70
  -5   0   9  148.59   28.30
   4   0  -9   90.29   22.90
  -4   0   9   49.50   22.70
   3   0  -9   63.89   20.60
  -3   0   9   95.59   23.20
   2   0  -9  720.63   44.50
  -2   0   9  644.54   44.00
   1   0  -9  218.58   27.30
  -1   0   9  196.08   25.20
   0   0  -9 2074.09   86.19
   0   0  -9 2209.98   97.99
   0   0   9 2157.68   99.29
  -1   0  -9   36.50   15.00
  -1   0  -9   47.60    2.30
   1   0   9   33.50   15.90
   1   0   9   46.80    2.40
  -2   0  -9 4229.88  178.48
   2   0   9 4141.89  168.28
   3   0   9   43.30    2.20
   3   0   9   30.60   12.40
   4   0   9   17.40   15.70
   4   0   9   10.40   12.40
   5   0   9  -12.90   14.00
   5   0   9    8.90   15.70
   6   0   9   22.40   17.40
   7   0   9  215.58   27.70
  -8   0  -9   65.39   21.00
   8   0   9   49.50   22.20
  -9   0  -9   -5.50   21.50
   9   0   9   37.90   25.40
 -10   0  -9  -17.70   23.50
  10   0   9   -4.10   29.90
  11  -1  -9   37.50   47.50
 -11   1   9  -31.30   45.10
  10  -1  -9   58.09   40.30
 -10   1   9   10.20   39.20
   9  -1  -9   47.10   34.80
  -9   1   9    6.90   36.00
   8  -1  -9   74.09   30.70
  -8   1   9   -3.40   30.50
   7  -1  -9  149.59   32.20
  -7   1   9  107.09   33.30
   6  -1  -9  321.17   37.70
  -6   1   9  308.27   38.60
   5  -1  -9   -5.10   19.30
  -5   1   9  -13.40   22.00
   4  -1  -9  732.43   49.00
  -4   1   9  714.73   50.39
   3  -1  -9   52.69   20.10
  -3   1   9   78.39   21.70
   2  -1  -9  194.48   24.60
  -2   1   9  262.77   29.20
   1  -1  -9 1089.49   55.19
   1  -1  -9  877.41   40.80
  -1   1   9 1186.08   58.19
   0  -1  -9   15.40   15.00
   0  -1  -9   17.70    1.50
   0   1   9   14.60   16.30
  -1  -1  -9 1011.70   50.79
   1   1   9  943.01   51.79
   1   1   9  869.41   37.40
   2   1   9  170.18    7.50
   2   1   9  232.58   25.90
   2   1   9  180.38   20.70
   3   1   9   13.10   14.90
   3   1   9   13.30   12.80
   4   1   9  338.67   29.10
   5   1   9   -8.60   15.10
  -6  -1  -9  304.77   28.40
   6   1   9  304.57   33.00
  -7  -1  -9  190.68   25.20
   7   1   9  168.58   27.90
  -8  -1  -9    0.40   18.90
   8   1   9   17.30   23.40
  -9  -1  -9    5.40   23.70
   9   1   9  -45.90   24.30
 -10  -1  -9   24.60   27.60
  10   1   9    5.20   32.80
  10  -2  -9  -27.90   37.70
 -10   2   9  -33.70   39.80
   9  -2  -9   26.90   33.30
  -9   2   9   64.59   38.60
   8  -2  -9   50.49   29.40
  -8   2   9   57.59   33.90
   7  -2  -9   29.50   27.10
  -7   2   9   46.50   28.20
   6  -2  -9   34.30   23.40
   5  -2  -9   87.09   24.40
  -5   2   9  152.08   29.50
   4  -2  -9  101.59   22.60
  -4   2   9  123.79   26.50
   3  -2  -9 1492.65   75.19
  -3   2   9 1443.96   76.79
  -2   2   9  732.03   48.10
   1  -2  -9  249.68   28.20
   1  -2  -9  294.57   11.50
  -1   2   9  239.58   29.90
   0  -2  -9   99.89   19.40
   0   2   9   50.69   18.10
   0   2   9   37.80    2.30
   1   2   9    6.20   15.10
   1   2   9    5.00    1.40
   2   2   9   57.19    3.20
   2   2   9   60.39   14.80
   2   2   9   57.09   18.10
   3   2   9  826.62   47.00
   3   2   9  658.63   41.90
   4   2   9   21.50   15.80
  -5  -2  -9  655.23   42.60
   5   2   9  757.82   45.50
  -6  -2  -9   49.30   19.00
   6   2   9   66.89   21.80
  -7  -2  -9  222.98   28.30
   7   2   9  246.98   33.10
  -8  -2  -9   26.60   21.00
   8   2   9  -26.50   24.00
  -9  -2  -9  -33.60   23.70
   9   2   9  -19.90   28.00
 -10  -2  -9  -23.90   27.80
  10   2   9   22.40   36.50
  10  -3  -9   23.70   37.50
 -10   3   9   -3.30   40.00
   9  -3  -9   50.49   33.40
  -9   3   9   51.89   37.40
   8  -3  -9    8.70   27.10
  -8   3   9    4.70   32.50
   7  -3  -9   38.30   26.60
  -7   3   9   60.39   31.10
   6  -3  -9   25.60   22.20
  -6   3   9    0.20   24.00
   5  -3  -9    9.40   18.10
  -5   3   9   13.50   23.50
   4  -3  -9  142.19   24.00
   4  -3  -9   91.59    4.60
  -4   3   9  142.99   26.80
   3  -3  -9   46.30    2.60
   3  -3  -9   59.49   19.30
  -3   3   9   75.29   22.90
   2  -3  -9  456.55   19.70
   2  -3  -9  537.05   36.80
  -2   3   9  534.15   40.60
   1  -3  -9 1688.33   83.09
  -1   3   9 1803.62   69.99
  -1   3   9 1696.93   85.89
   0   3   9  124.39    5.50
   0   3   9  126.09   22.90
   1   3   9  359.46   14.60
   1   3   9  345.07   28.70
   1   3   9  356.56   32.30
   2   3   9    8.40   14.90
   2   3   9   19.90   17.50
   3   3   9   77.39   18.80
  -4  -3  -9  632.24   40.50
   4   3   9  598.04   42.20
  -5  -3  -9   28.70   18.80
   5   3   9   61.19   21.40
  -6  -3  -9  246.78   29.30
   6   3   9  267.67   33.40
  -7  -3  -9  601.44   47.10
  -8  -3  -9   20.20   24.20
   8   3   9   74.79   31.80
  -9  -3  -9   41.20   30.20
   9   3   9   35.60   35.90
 -10  -3  -9   -6.50   32.10
  10   3   9  -59.39   40.50
  10  -4  -9   44.40   38.90
 -10   4   9  -23.50   38.70
   9  -4  -9   32.90   32.70
  -9   4   9  -59.99   31.80
   8  -4  -9   78.49   29.90
  -8   4   9   46.60   33.00
   7  -4  -9  -11.20   25.60
  -7   4   9  -14.00   26.00
   6  -4  -9   30.20   22.20
   6  -4  -9   40.20    2.50
  -6   4   9   30.80   26.30
   5  -4  -9   16.20    1.80
   5  -4  -9   -8.20   18.50
  -5   4   9    6.20   24.50
   4  -4  -9   68.09    3.50
   4  -4  -9   74.99   21.80
  -4   4   9   65.79   26.10
   3  -4  -9   29.50   17.90
   3  -4  -9   39.50    2.30
  -3   4   9   21.40   22.70
   2  -4  -9   -9.30   16.10
  -2   4   9   11.00   19.80
  -1   4   9  157.78   25.50
  -1   4   9   97.29    4.80
   0   4   9  959.80   40.00
   0   4   9 1004.30   52.39
   0   4   9 1034.80   57.59
   1   4   9   24.00    2.00
   1   4   9   23.40   16.10
   1   4   9   -5.10   19.20
   2   4   9 1580.84   79.49
   2   4   9 1520.25   75.19
   3   4   9  245.68   31.40
  -4  -4  -9  115.19   21.60
   4   4   9  137.19   26.00
  -5  -4  -9   34.60   20.10
   5   4   9   21.50   22.00
  -6  -4  -9    1.10   21.10
   6   4   9    2.90   25.60
  -7  -4  -9   40.90   25.20
   7   4   9   45.20   28.20
  -8  -4  -9   99.19   30.30
   8   4   9    2.60   30.80
  -9  -4  -9   18.20   32.30
   9   4   9   34.50   38.00
 -10  -4  -9  -48.00   37.70
  10   4   9   17.30   44.30
   9  -5  -9    4.70   32.20
   9  -5  -9   12.50    2.50
  -9   5   9   12.20   34.70
   8  -5  -9  -12.80   27.70
   8  -5  -9    3.80    2.20
  -8   5   9  -34.30   31.20
   7  -5  -9  241.78   10.10
   7  -5  -9  221.58   32.60
  -7   5   9  227.48   35.20
   6  -5  -9   57.59    3.20
   6  -5  -9   73.19   25.30
  -6   5   9   61.09   29.80
   5  -5  -9  125.59   26.50
   5  -5  -9  132.39    5.80
  -5   5   9  103.79   29.90
   4  -5  -9  186.68    7.80
   4  -5  -9  179.48   26.10
  -4   5   9  164.98   31.70
   3  -5  -9   26.50   19.60
  -3   5   9   47.70   24.60
  -2   5   9  109.79    5.30
  -2   5   9  152.68   28.50
  -1   5   9   35.60   15.90
  -1   5   9   25.60    2.10
  -1   5   9   12.70   20.60
   0   5   9  105.29   24.40
   0   5   9   80.19    4.20
   0   5   9  103.29   19.20
   1   5   9 1078.89   60.99
   1   5   9  978.40   56.29
   2   5   9   45.90   20.10
   2   5   9   78.09   25.90
  -3  -5  -9  242.08   28.90
   3   5   9  267.17   32.00
  -4  -5  -9  119.39   24.70
   4   5   9  227.68   29.80
  -5  -5  -9   14.00   21.20
   5   5   9   39.40   26.00
  -6  -5  -9  145.49   30.10
   6   5   9  183.68   36.00
  -7  -5  -9   17.80   28.10
   7   5   9  -12.00   29.80
  -8  -5  -9   24.70   31.40
   8   5   9  -38.40   35.00
  -9  -5  -9    7.80   37.40
   9   5   9   42.50   42.30
  11  -6  -9    7.80    3.10
  10  -6  -9    5.10    2.80
   9  -6  -9    7.50    2.50
   9  -6  -9   -8.40   33.20
  -9   6   9    8.20   35.60
   8  -6  -9   54.09    3.20
   8  -6  -9    2.40   27.70
  -8   6   9   46.90   34.20
   7  -6  -9   23.70   23.90
   7  -6  -9   25.60    2.50
  -7   6   9   30.20   32.60
   6  -6  -9   34.50   23.60
   6  -6  -9   33.10    2.50
  -6   6   9   62.79   32.10
   5  -6  -9   38.80   22.10
  -5   6   9   31.80   29.80
  -4   6   9   96.29   29.10
  -3   6   9  253.57   35.20
  -3   6   9  258.37   28.50
  -2   6   9   -0.60   15.80
  -2   6   9    9.40    2.00
  -2   6   9   -3.00   23.80
  -1   6   9  254.57   10.50
  -1   6   9  245.78   29.70
  -1   6   9  239.28   31.80
   0   6   9  103.09   21.70
   0   6   9  117.69   27.00
   0   6   9  124.49    5.60
   1   6   9   46.60   25.00
   1   6   9   39.60   20.60
   2   6   9   59.19   22.90
  -3  -6  -9  203.78   27.50
   3   6   9  212.98   31.40
  -4  -6  -9  -34.20   19.80
   4   6   9    1.30   24.20
  -5  -6  -9  237.08   33.70
   5   6   9  240.08   37.10
  -6  -6  -9   43.90   28.70
   6   6   9   81.19   33.70
  -7  -6  -9   14.00   30.40
   7   6   9   54.29   34.90
  -8  -6  -9   36.70   36.10
   8   6   9   69.89   42.00
  -9  -6  -9  -13.50   41.30
   9   6   9   59.89   48.60
  11  -7  -9   -8.40    4.50
  10  -7  -9    6.60    2.90
   9  -7  -9    1.10    2.60
   8  -7  -9   20.80   28.90
   8  -7  -9   16.20    2.70
  -8   7   9    1.80   34.20
   7  -7  -9   13.90   26.80
  -7   7   9   22.30   33.10
  -6   7   9    9.70   32.00
  -5   7   9   87.99   31.90
  -4   7   9   54.19   29.00
  -4   7   9   51.59   20.30
  -3   7   9   50.29   28.10
  -3   7   9   -7.60   17.30
  -2   7   9  105.99   30.50
  -2   7   9  164.68   29.90
  -2   7   9  194.98    8.00
  -1   7   9   92.39   23.40
  -1   7   9   90.09    4.70
  -1   7   9   72.39   26.90
   0   7   9  115.19    5.60
   0   7   9   96.89   51.29
   0   7   9  112.79   26.80
   1   7   9   29.60   29.20
   1   7   9   42.10   22.90
   2   7   9   31.30   24.20
  -3  -7  -9   29.30   23.00
   3   7   9   29.30   26.80
  -4  -7  -9  176.78   32.70
   4   7   9  158.08   34.90
  -5  -7  -9   19.40   28.10
   5   7   9   42.10   32.90
  -6  -7  -9   33.70   31.10
   6   7   9   68.19   36.20
  -7  -7  -9   17.30   34.30
   7   7   9  -44.80   38.60
  -8  -7  -9   50.09   40.10
   8   7   9    1.40   43.00
  -9  -7  -9   14.00   45.50
   9   7   9   40.80   54.39
  -7   8   9   74.69   38.10
  -7   8   9   37.60   25.60
  -6   8   9   47.50   34.10
  -6   8   9  101.99   25.60
  -5   8   9  -17.30   34.60
  -5   8   9   35.70   23.20
  -4   8   9   18.10   23.20
  -4   8   9   40.90   31.80
  -3   8   9   26.60   22.80
  -3   8   9   62.49    3.60
  -3   8   9   43.30   31.70
  -2   8   9   37.90   31.60
  -2   8   9   33.30   23.00
  -1   8   9   -3.40   24.10
  -1   8   9   16.90   30.50
   0   8   9  113.49    5.70
   0   8   9  106.09   34.30
   0   8   9   73.19   27.10
   1   8   9   32.30   31.40
   1   8   9  -45.70   22.50
   2   8   9   60.69   29.90
  -3  -8  -9   42.80   26.90
   3   8   9   43.00   31.50
  -4  -8  -9   -9.60   26.60
   4   8   9   13.50   33.60
  -5  -8  -9   17.90   32.40
   5   8   9  -18.40   41.70
  -6  -8  -9  -24.90   34.70
   6   8   9  102.99   42.40
  -7  -8  -9    6.00   40.40
   7   8   9  -71.29   44.50
  -8  -8  -9  -41.20   43.50
   8   8   9  -37.20   50.99
  -9  -8  -9   50.89   53.49
   9   8   9  -30.40   62.99
  -7   9   9   -6.20   27.20
  -6   9   9  -31.50   37.70
  -6   9   9   -7.50   26.20
  -5   9   9   80.19   41.10
  -5   9   9   62.49   28.00
  -4   9   9    9.10   36.30
  -4   9   9   75.79   27.50
  -3   9   9   -0.70    2.80
  -3   9   9   10.80   26.10
  -3   9   9   36.20   36.10
  -2   9   9  -25.70   33.90
  -2   9   9   15.00    2.80
  -1   9   9   -7.40   34.90
  -1   9   9   15.10    2.80
  -1   9   9    3.70   27.60
   0   9   9   13.00    2.90
   0   9   9   -9.30   28.60
   0   9   9  -82.89   33.80
   1   9   9   74.19   37.50
   1   9   9   57.49   30.80
   2   9   9  101.09   35.90
  -3  -9  -9    4.70   31.00
   3   9   9   41.00   34.90
  -4  -9  -9   35.30   33.30
   4   9   9   21.20   38.50
  -5  -9  -9  -15.30   36.40
  -6  -9  -9   35.00   40.90
   6   9   9   28.80   45.90
  -7  -9  -9   22.10   46.30
   7   9   9  -19.80   50.49
  -8  -9  -9 -100.29   48.90
   8   9   9  -60.49   58.89
  -5  10   9    0.70   28.10
  -5  10   9   99.29   74.89
  -4  10   9  -23.30   40.60
  -4  10   9   15.40   31.10
  -3  10   9   88.19   41.80
  -3  10   9   -9.80   30.70
  -3  10   9   50.19    3.80
  -2  10   9  -33.20   28.10
  -2  10   9   -8.10    3.00
  -2  10   9   -4.50   40.70
  -1  10   9   35.50    3.50
  -1  10   9  -78.59   39.70
  -1  10   9   48.90   31.10
   0  10   9   -1.40    3.10
   0  10   9  -28.50   31.20
   0  10   9    7.10   40.20
   1  10   9   -7.50   44.50
   1  10   9   76.59   37.50
   2  10   9  -12.20   35.60
   3  10   9   38.50   41.10
  -4 -10  -9  -26.60   35.30
   4  10   9   71.09   46.30
   5  10   9   59.69   52.69
  -6 -10  -9  -45.30   67.29
  -3  11   9   -7.80    3.40
  -2  11   9   38.30    3.80
  -2  11   9  -21.50   43.30
  -1  11   9   17.60    3.60
  -1  11   9  -29.40   48.40
   0  11   9  -31.00   45.70
   0  11   9   -6.90    3.50
   1  11   9   -6.90   49.70
   2  11   9 -111.29   50.09
  -3  12   9    9.20    3.80
  -2  12   9   13.20    3.80
  -1  12   9   23.10    3.90
   0  12   9   17.50    4.10
  -2  13   9   10.40    3.70
  -1  13   9    6.20    4.40
   0  13   9   12.80    4.60
  -3  12 -10   57.19   35.60
   3 -12  10   16.30   28.50
  -4  12 -10   67.19   26.80
  -1 -11  10   49.20   67.49
   0  11 -10   35.20   40.50
   0 -11  10    1.90   34.30
  -1  11 -10   52.89   39.50
   1 -11  10  -14.60   30.20
  -2  11 -10   -0.70   35.40
   2 -11  10    0.40   27.40
  -3  11 -10   26.50   31.10
   3 -11  10    3.50   24.40
  -4  11 -10  -13.00   22.90
   4 -11  10   34.80   18.10
  -4 -10  10  -23.90   51.99
   3  10 -10  -26.40   47.30
  -3 -10  10   10.30   38.80
   2  10 -10   -1.10   40.10
  -2 -10  10    4.40   34.80
   1  10 -10   51.69   41.70
  -1 -10  10  -42.80   33.90
   0  10 -10   49.90   37.10
   0 -10  10  -23.10   30.40
  -1  10 -10   89.69   35.50
   1 -10  10   47.60   29.00
  -2  10 -10   -8.70   30.70
   2 -10  10  -13.50   23.30
   3 -10  10    0.60   22.20
  -4  10 -10   31.50   19.40
   4 -10  10    4.30   15.90
   6   9 -10   20.80   54.39
  -6  -9  10  -10.40   47.90
   5   9 -10  -62.29   48.50
  -5  -9  10   -2.90   42.70
   4   9 -10   -3.30   44.20
  -4  -9  10  -76.69   38.30
   3   9 -10   71.39   44.90
  -3  -9  10   48.80   38.60
   1   9 -10  109.79   39.00
  -1  -9  10  110.29   33.50
   0   9 -10   23.10   33.20
   0  -9  10   18.20   25.80
  -1   9 -10   -4.70   29.70
   1  -9  10    0.40   24.20
  -2   9 -10   35.00   27.40
   2  -9  10  -28.20   20.60
  -3   9 -10    5.90   23.50
   3  -9  10   18.00   17.60
  -4   9 -10   12.80   16.30
   4  -9  10    2.00   13.80
   8   8 -10  -98.99   59.59
  -8  -8  10   83.09   56.49
   7   8 -10  -47.20   54.69
  -7  -8  10   18.30   47.50
   6   8 -10   22.30   54.59
  -6  -8  10  -29.20   44.30
   5   8 -10   87.59   50.39
  -5  -8  10  103.79   42.70
   4   8 -10   76.49   40.70
  -4  -8  10   21.00   36.60
   3   8 -10   48.10   37.80
  -3  -8  10   30.00   33.20
   2   8 -10   90.59   36.80
   1   8 -10   29.40   30.90
  -1  -8  10    3.10   27.30
   0   8 -10   62.89   30.60
   0  -8  10   35.60   25.30
  -1   8 -10   66.99   28.30
   1  -8  10   72.19   24.10
  -2   8 -10  -26.20   22.80
   2  -8  10    3.10   19.00
  -3   8 -10   15.60   19.80
   3  -8  10   10.90   17.10
  -4   8 -10   18.50   24.90
   4  -8  10   15.40   12.50
  10   7 -10  -91.09   69.39
 -10  -7  10    8.00   64.09
   9   7 -10  142.09   68.09
  -9  -7  10  -13.60   56.09
   8   7 -10   14.40   57.19
  -8  -7  10  -45.70   49.20
   7   7 -10   28.30   50.19
  -7  -7  10   12.30   46.90
   6   7 -10   60.09   47.60
  -6  -7  10   19.70   40.70
   5   7 -10   48.30   40.70
  -5  -7  10    3.60   36.40
   4   7 -10   59.29   38.00
  -4  -7  10   41.50   33.40
   3   7 -10    9.40   31.80
  -3  -7  10   36.60   31.70
   2   7 -10   57.39   29.60
  -2  -7  10    3.00   24.20
   1   7 -10   43.50   26.30
  -1  -7  10  -33.00   20.70
   0   7 -10   67.59   26.90
   0  -7  10   67.99   24.80
  -1   7 -10   30.70   22.30
   1  -7  10   16.10   19.70
  -2   7 -10   99.99   24.00
   2  -7  10   88.29   19.90
  -3   7 -10   -1.60   17.20
   3  -7  10   24.10   15.40
  -4   7 -10   13.80   12.40
   4  -7  10    3.10   11.90
  11   6 -10   50.29   81.19
 -11  -6  10   -1.80   67.39
  10   6 -10 -112.39   66.49
 -10  -6  10  -12.20   60.29
   9   6 -10  -22.00   58.99
  -9  -6  10   22.70   54.49
   8   6 -10   14.30   50.79
  -8  -6  10   -0.50   46.10
   7   6 -10  -16.70   45.40
  -7  -6  10   94.39   43.40
   6   6 -10   65.49   42.10
  -6  -6  10   22.10   37.90
   5   6 -10  335.47   48.30
  -5  -6  10  237.18   44.10
   4   6 -10   83.79   35.00
  -4  -6  10   67.19   33.80
   3   6 -10   55.89   30.00
  -3  -6  10  -12.80   26.40
   2   6 -10  127.89   32.00
  -2  -6  10  173.68   29.70
   1   6 -10   32.70   20.90
   0   6 -10    1.10   21.20
   0  -6  10  -13.10   19.80
  -1   6 -10  108.59   22.70
   1  -6  10   97.49   21.60
  -2   6 -10   -5.10   17.20
   2  -6  10    3.30   16.30
  -3   6 -10  205.38   26.50
  -3   6 -10  181.48    7.60
   3  -6  10  172.68   20.20
  -4   6 -10    0.10   11.90
   4  -6  10   -0.40   11.80
   5  -6  10   47.30    7.70
   5  -6  10   41.50    6.70
  11   5 -10   53.29   75.69
 -11  -5  10  -78.69   64.49
  10   5 -10  -72.59   61.99
 -10  -5  10   37.30   59.69
   9   5 -10  -13.90   52.59
  -9  -5  10   -7.10   47.80
   8   5 -10   90.89   49.80
  -8  -5  10  104.49   47.50
   7   5 -10  132.79   47.40
  -7  -5  10   84.99   42.40
   6   5 -10  229.48   45.80
  -6  -5  10  280.87   46.50
   5   5 -10   10.30   32.90
  -5  -5  10   58.99   33.20
   4   5 -10   44.80   31.00
  -4  -5  10   -4.10   27.10
   3   5 -10  286.57   38.60
  -3  -5  10  273.77   37.80
   2   5 -10   98.29   26.00
  -2  -5  10   50.39   25.50
   1   5 -10  404.56   39.30
   0   5 -10  104.09   24.70
   0  -5  10  123.19   23.20
  -1   5 -10  117.89   22.60
   1  -5  10  100.69   21.50
  -2   5 -10   70.79   18.50
   2  -5  10   84.39   18.80
  -3   5 -10   56.49    2.70
  -3   5 -10   46.60   15.30
   3  -5  10   44.60   16.00
  -4   5 -10   91.89   14.70
   4  -5  10   72.59   15.40
   5  -5  10  155.68   15.60
   5  -5  10  191.28   20.00
   6  -5  10  292.67   16.50
   6  -5  10  277.47   17.50
  11   4 -10   -3.30   65.39
 -11  -4  10  -74.49   59.39
  10   4 -10  -72.29   53.19
 -10  -4  10  -72.79   49.70
   9   4 -10   -3.00   48.50
  -9  -4  10   26.30   46.50
   8   4 -10  -14.70   42.60
  -8  -4  10   96.09   43.40
   7   4 -10  -52.49   37.80
  -7  -4  10   29.50   37.10
   6   4 -10  -21.30   31.30
  -6  -4  10   32.50   32.50
   5   4 -10   82.89   34.10
  -5  -4  10  126.29   34.70
   4   4 -10   84.69   29.70
  -4  -4  10   42.70   27.00
   3   4 -10  257.27   35.50
  -3  -4  10  242.48   33.50
   2   4 -10  831.92   55.79
  -2  -4  10  849.02   56.49
   1   4 -10   43.60   33.80
  -1  -4  10   53.99   20.00
   0   4 -10  589.24   40.20
   0  -4  10  429.76   36.50
  -1   4 -10   34.60   16.80
   1  -4  10   25.30   16.70
  -2   4 -10   58.49   16.50
  -2   4 -10   96.49    4.10
   2  -4  10   87.09   19.00
  -3   4 -10   24.30    1.60
  -3   4 -10   43.20   14.10
   3  -4  10   25.10   15.40
   4  -4  10   16.20   14.50
   5  -4  10   52.39   11.80
   5  -4  10   40.90   14.80
   6  -4  10   35.90   11.70
   6  -4  10   40.00   15.50
   7  -4  10   68.39   13.80
   7  -4  10   74.69   18.40
   8  -4  10   44.10   18.20
   8  -4  10   57.49   15.00
   9  -4  10   62.89   20.50
   9  -4  10   80.49   17.80
  10  -4  10   17.20   21.00
  10  -4  10   -6.10   19.40
  11  -4  10    9.10   22.40
  11   3 -10   55.69   61.79
 -11  -3  10  -48.80   56.59
  10   3 -10   71.09   52.79
 -10  -3  10  -63.09   48.50
   9   3 -10  -24.00   43.00
  -9  -3  10    2.80   46.40
   8   3 -10   32.00   40.50
  -8  -3  10   37.70   37.90
   7   3 -10   12.80   35.40
  -7  -3  10   13.30   35.70
   6   3 -10  169.68   37.20
  -6  -3  10  225.48   38.70
   5   3 -10   30.30   27.30
  -5  -3  10   27.90   27.60
   4   3 -10  989.80   64.69
  -4  -3  10  937.41   62.29
   3   3 -10   66.89   24.00
  -3  -3  10   28.50   22.80
   2   3 -10  758.52   51.09
  -2  -3  10  714.93   51.29
   1   3 -10  375.26   37.00
  -1  -3  10  438.06   38.50
  -1   3 -10  208.88   25.30
   1  -3  10  230.08   28.50
  -2   3 -10  710.43   41.20
  -2   3 -10  646.14   27.40
   2  -3  10  719.53   42.70
  -3   3 -10   23.30   12.70
   3  -3  10   17.00   15.10
   4  -3  10  112.09   19.30
   5  -3  10   -3.40   11.20
   5  -3  10   16.50   14.90
   6  -3  10   42.30   13.80
   6  -3  10   37.00   16.50
   6  -3  10   25.60    1.80
   7  -3  10   -0.90   14.50
   7  -3  10    6.60    1.60
   7  -3  10   20.50   16.70
   8  -3  10   63.19   18.10
   8  -3  10  109.29    4.80
   8  -3  10  112.49   22.40
   9  -3  10   -8.00   19.30
  10  -3  10   37.40   26.20
  10  -3  10   -9.80   24.50
  11  -3  10   30.90   28.40
  11   2 -10   46.00   56.29
 -11  -2  10   70.79   58.69
  10   2 -10   68.89   47.40
 -10  -2  10  -98.79   45.40
   9   2 -10  -27.20   38.50
  -9  -2  10  -56.79   39.70
   8   2 -10   30.20   37.10
  -8  -2  10   15.70   36.80
  -7  -2  10  -36.90   35.20
   6   2 -10  -14.60   26.90
  -6  -2  10   -4.60   27.00
   5   2 -10  154.58   33.50
  -5  -2  10  229.78   36.80
   4   2 -10  213.98   32.60
  -4  -2  10  190.88   31.50
   3   2 -10  484.55   42.80
  -3  -2  10  506.25   43.90
   2   2 -10  139.09   26.60
  -2  -2  10  129.49   25.10
   1   2 -10  254.97   30.90
  -1  -2  10  233.88   28.70
   0   2 -10  121.59   36.90
   0  -2  10  152.98   23.20
  -1   2 -10  727.13   40.90
  -1   2 -10  592.04   25.50
  -2   2 -10  325.47   27.40
  -2   2 -10  272.77   11.80
   2  -2  10  326.47   30.40
  -3   2 -10  780.52   42.40
   3  -2  10  714.03   44.60
   4  -2  10   21.20   15.30
   4  -2  10   38.80    2.00
   4  -2  10   28.50   11.30
   5  -2  10  180.18   21.10
   5  -2  10  109.19    5.00
   5  -2  10   84.79   18.10
   6  -2  10   62.09    3.30
   6  -2  10   72.09   16.50
   6  -2  10   56.89   18.60
   7  -2  10   17.60    1.80
   7  -2  10   -0.30   17.70
   7  -2  10    1.80   16.60
   8  -2  10   32.00   19.00
   8  -2  10    4.40   19.80
   9  -2  10   44.60   25.10
   9  -2  10   28.70   22.70
  10  -2  10  -12.60   26.50
  10  -2  10  -36.30   26.20
  11  -2  10    7.60   33.70
  11   1 -10  -42.40   49.60
 -11  -1  10   36.40   53.29
  10   1 -10  -64.69   42.40
 -10  -1  10   46.20   47.30
   9   1 -10  -26.90   36.00
  -9  -1  10   56.59   44.40
   8   1 -10  -24.50   33.00
  -8  -1  10   25.50   37.10
   7   1 -10  127.49   35.70
  -7  -1  10  117.19   44.40
   6   1 -10  116.79   31.10
  -6  -1  10  111.49   31.10
   5   1 -10   19.80   24.30
  -5  -1  10   -4.50   23.50
   4   1 -10   13.40   23.00
  -4  -1  10  -23.60   21.40
   3   1 -10   50.09   21.80
  -3  -1  10   18.10   21.10
   2   1 -10 1475.25   77.09
  -2  -1  10 1485.55   77.69
   1   1 -10 3281.87  145.09
  -1  -1  10 3214.38  145.39
   0   1 -10  337.77   31.70
   0   1 -10  322.97   13.80
   0  -1  10  415.06   32.80
  -1   1 -10 2217.88   87.99
  -1   1 -10 2148.09   99.89
   3  -1  10   58.69   18.60
   3  -1  10   92.59    4.10
   4  -1  10  285.37   11.20
   4  -1  10  265.07   23.80
   4  -1  10  216.98   28.30
   5  -1  10   97.69   19.50
   5  -1  10   70.39    3.70
   5  -1  10  106.29   17.70
   6  -1  10  103.39   18.90
   6  -1  10   75.59   19.80
   7  -1  10   45.70   20.60
   7  -1  10   22.10   18.30
   8  -1  10   11.70   20.20
   8  -1  10   69.79   22.60
   9  -1  10  -11.80   25.70
   9  -1  10    1.90   22.80
  10  -1  10   58.59   31.20
  10  -1  10  -37.50   27.40
  11   0 -10   94.49   52.99
 -11   0  10    0.60   48.80
  10   0 -10  -40.10   39.90
 -10   0  10    6.30   44.70
   9   0 -10    3.00   36.30
  -9   0  10  -68.29   37.20
   8   0 -10   25.10   33.50
  -8   0  10   -4.20   35.10
   7   0 -10   50.49   29.90
  -7   0  10   88.89   33.10
   6   0 -10   46.00   26.00
  -6   0  10   -2.30   25.10
   5   0 -10   21.10   22.10
  -5   0  10   20.90   24.60
   4   0 -10   38.20   21.00
  -4   0  10   36.10   23.40
   3   0 -10  482.35   41.90
  -3   0  10  496.95   42.80
   2   0 -10 2551.44  117.59
  -2   0  10 2511.65  117.89
   1   0 -10   15.00   17.70
  -1   0  10    2.70   18.30
   0   0 -10 3618.14  151.68
   0   0 -10 3862.01  164.18
   0   0  10 3854.71  165.88
  -1   0 -10   10.30    1.40
  -1   0 -10   12.20   15.70
   1   0  10   13.80   15.80
  -2   0 -10  590.44   56.89
   2   0  10  811.72   30.70
   3   0  10    2.90    1.40
   3   0  10    2.50   11.70
   4   0  10   57.69   17.90
   4   0  10  -12.90   12.40
   4   0  10   28.60    1.80
   5   0  10    3.40   14.70
   5   0  10   10.20   18.60
   6   0  10  131.09   22.80
   6   0  10  179.78   25.40
   7   0  10    7.20   20.70
   7   0  10   34.10   21.80
   8   0  10   39.00   22.30
   9   0  10    6.70   26.10
  10   0  10   16.30   31.50
  10  -1 -10   49.90   40.40
 -10   1  10  -30.20   43.00
   9  -1 -10   47.50   34.10
  -9   1  10  -18.90   37.10
   8  -1 -10  -24.80   30.20
  -8   1  10   56.29   36.20
   7  -1 -10  -18.80   26.60
  -7   1  10    7.70   30.40
   6  -1 -10   38.80   25.20
  -6   1  10   46.50   30.70
   5  -1 -10  245.98   33.10
  -5   1  10  237.98   34.20
   4  -1 -10  794.62   52.49
  -4   1  10  689.93   51.69
   3  -1 -10  245.28   30.40
  -3   1  10  230.18   31.30
   2  -1 -10 1423.06   57.89
   2  -1 -10 1435.56   74.49
  -2   1  10 1460.85   76.39
   1  -1 -10  456.25   18.60
   0  -1 -10   67.89    3.50
   0  -1 -10   77.59   18.90
   0   1  10   91.99   20.50
  -1  -1 -10 1212.58   59.69
   1   1  10 1124.09   60.99
   1   1  10 1075.99   45.40
   2   1  10 1542.55   76.29
   2   1  10 1571.74   71.59
   2   1  10 1498.35   61.79
   3   1  10   71.39   19.70
   3   1  10  117.59   17.60
   3   1  10  119.59    5.10
   4   1  10  155.08   21.30
   4   1  10  195.48   24.90
   5   1  10   37.60   18.50
   6   1  10   93.49   22.10
   7   1  10  108.49   26.10
  -8  -1 -10   -3.40   20.50
   8   1  10   33.40   25.60
  -9  -1 -10   13.90   24.50
   9   1  10   -7.20   29.40
 -10  -1 -10   -4.40   26.20
  10   1  10    9.30   35.80
  10  -2 -10   17.10   41.80
 -10   2  10   31.90   43.00
   9  -2 -10  -80.49   32.20
  -9   2  10   20.00   38.40
   8  -2 -10   11.60   29.80
  -8   2  10   10.60   34.60
   7  -2 -10  104.49   30.70
  -7   2  10   47.50   30.30
   6  -2 -10   76.79   26.30
  -6   2  10   76.29   31.20
   5  -2 -10  193.58   30.10
  -5   2  10  227.28   34.70
   4  -2 -10   22.10   19.30
  -4   2  10   34.90   22.80
   3  -2 -10   71.59    3.80
   3  -2 -10  101.09   23.80
  -3   2  10  131.89   25.90
   2  -2 -10  240.68   31.90
   2  -2 -10  327.87   12.70
  -2   2  10  289.17   34.20
   1  -2 -10  955.30   37.70
   1  -2 -10  891.81   52.69
  -1   2  10  931.81   55.89
   0  -2 -10   18.00   17.00
   0   2  10   27.40   18.00
   1   2  10  145.19    6.40
   1   2  10  175.98   24.70
   2   2  10  147.29   19.60
   2   2  10  154.28   25.10
   2   2  10  128.99    5.80
   3   2  10  704.83   43.50
   3   2  10  785.82   47.80
   4   2  10  -17.40   15.20
   4   2  10  -11.10   19.20
   5   2  10  203.38   33.60
  -6  -2 -10   13.80   17.60
   6   2  10   19.70   21.00
  -7  -2 -10   -5.90   18.60
   7   2  10   -6.10   22.80
  -8  -2 -10   -5.80   22.50
   8   2  10  -17.70   24.90
  -9  -2 -10   30.40   26.90
   9   2  10   48.60   32.10
 -10  -2 -10   36.30   33.90
  10   2  10   28.80   47.90
  10  -3 -10   75.19   43.50
 -10   3  10   76.69   44.50
   9  -3 -10  -40.30   33.60
  -9   3  10   24.70   37.80
   8  -3 -10  222.18   39.30
  -8   3  10  192.48   40.20
   7  -3 -10  183.28   34.40
  -7   3  10  189.28   36.60
   6  -3 -10   26.40   25.20
  -6   3  10   25.60   28.40
  -5   3  10   17.60   25.10
   4  -3 -10  350.26   36.50
   4  -3 -10  284.57   12.20
  -4   3  10  313.77   39.00
   3  -3 -10  206.48    8.60
   3  -3 -10  184.88   26.50
  -3   3  10  222.58   31.60
   2  -3 -10  471.65   38.10
   2  -3 -10  509.15   20.70
  -2   3  10  557.54   44.70
   1  -3 -10  343.87   34.60
  -1   3  10  332.27   37.20
  -1   3  10  346.67   14.20
   0   3  10  158.18    6.80
   0   3  10  149.59   25.20
   1   3  10  835.62   52.69
   1   3  10  906.01   35.40
   1   3  10  856.11   47.30
   2   3  10  580.94   42.70
   2   3  10  536.15   36.50
   2   3  10  490.75   21.00
   3   3  10   21.20   17.40
   3   3  10  -28.50   19.60
   4   3  10  592.44   43.10
  -6  -3 -10   39.00   20.50
   6   3  10   28.30   23.80
  -7  -3 -10   50.89   23.20
   7   3  10   16.00   27.00
  -8  -3 -10    4.70   25.90
   8   3  10    3.30   30.20
  -9  -3 -10  -35.10   29.00
   9   3  10   43.40   37.10
  10  -4 -10   60.09   42.50
 -10   4  10   19.00   44.00
   9  -4 -10   -3.50   36.30
  -9   4  10   58.49   39.10
   8  -4 -10   56.69   30.50
  -8   4  10   87.19   36.10
   7  -4 -10  271.87   38.50
  -7   4  10  263.57   40.70
   6  -4 -10    1.90   24.40
   6  -4 -10   22.20    2.10
  -6   4  10  -43.90   26.00
   5  -4 -10   47.60   23.00
   5  -4 -10   59.89    3.10
  -5   4  10   37.20   27.80
   4  -4 -10   14.00   19.20
   4  -4 -10   11.10    1.70
  -4   4  10   17.70   25.70
   3  -4 -10  166.88   25.40
   3  -4 -10  168.38    7.30
  -3   4  10  221.58   32.50
   2  -4 -10  753.52   49.00
  -2   4  10  724.83   52.89
  -1   4  10  168.58    7.40
  -1   4  10  183.88   29.30
   0   4  10 1034.00   43.40
   0   4  10 1172.08   63.39
   0   4  10 1066.69   56.19
   1   4  10   21.10   16.80
   1   4  10   43.00   21.40
   1   4  10   43.40    2.50
   2   4  10  352.66   39.90
   2   4  10  439.96   33.80
   3   4  10  106.99   26.70
   3   4  10  124.09   24.20
   4   4  10   19.50   20.60
  -5  -4 -10   17.40   22.10
  -6  -4 -10  293.17   35.70
   6   4  10  339.37   39.30
  -7  -4 -10   58.59   26.60
   7   4  10   61.19   32.20
  -8  -4 -10    6.10   29.40
   8   4  10  -38.10   29.60
  -9  -4 -10   -2.00   32.20
   9   4  10   85.49   41.50
  10  -5 -10    8.10    2.90
   9  -5 -10  -26.10   33.40
   9  -5 -10    4.90    2.50
  -9   5  10   52.19   37.20
   8  -5 -10   24.20   29.30
   8  -5 -10    1.90    2.40
  -8   5  10   30.50   37.90
   7  -5 -10   55.49   28.00
   7  -5 -10   47.20    3.10
  -7   5  10   26.00   33.10
   6  -5 -10  306.67   12.40
   6  -5 -10  247.68   34.30
  -6   5  10  281.47   40.90
   5  -5 -10   57.79   24.50
   5  -5 -10   82.19    4.20
  -5   5  10   78.99   30.60
   4  -5 -10   79.79   25.00
   4  -5 -10  136.19    5.90
  -4   5  10  178.88   32.30
   3  -5 -10    4.60   23.20
  -3   5  10  -11.10   23.20
  -2   5  10   30.20   24.90
  -2   5  10   45.90    2.80
  -1   5  10  300.67   38.20
  -1   5  10  238.08   10.60
  -1   5  10  293.67   30.40
   0   5  10   32.10   22.80
   0   5  10   16.50   17.90
   1   5  10  626.24   26.00
   1   5  10  649.24   49.20
   1   5  10  660.33   42.40
   2   5  10  105.89   27.70
   2   5  10   44.90   22.50
   3   5  10   71.59   22.60
  -4  -5 -10   63.39   21.90
   4   5  10   70.29   24.90
  -5  -5 -10   15.50   25.60
   5   5  10   46.20   49.10
  -6  -5 -10  238.48   34.30
   6   5  10  229.78   39.80
  -7  -5 -10   20.80   29.80
   7   5  10   37.20   33.80
  -8  -5 -10   19.70   32.60
   8   5  10  -50.19   33.80
  -9  -5 -10   28.30   37.80
   9   5  10  -21.10   41.70
  11  -6 -10   28.40    3.60
  10  -6 -10    5.20    3.00
   9  -6 -10    7.80    2.70
   9  -6 -10   57.39   40.90
  -9   6  10   -2.20   36.70
   8  -6 -10   -5.40    2.40
   8  -6 -10  -47.60   28.60
  -8   6  10   10.40   37.80
   7  -6 -10   22.90    2.50
   7  -6 -10    0.40   25.80
  -7   6  10   -8.90   33.60
   6  -6 -10    2.50    2.10
   6  -6 -10   -5.90   23.10
  -6   6  10  -19.50   30.60
   5  -6 -10  114.69   29.20
  -5   6  10  124.69   35.50
   4  -6 -10   40.40   24.70
  -4   6  10   47.50   29.50
  -3   6  10  197.48   35.70
  -2   6  10   13.60   18.40
  -2   6  10   22.20    2.30
  -2   6  10   12.70   47.10
  -1   6  10   57.79   27.80
  -1   6  10   70.19    4.00
  -1   6  10   58.99   21.10
   0   6  10   11.60   19.30
   0   6  10   -2.80   24.70
   0   6  10    9.10    2.00
   1   6  10   26.80   20.60
   1   6  10   58.19   27.30
   2   6  10   98.69   30.30
   2   6  10  128.49   26.10
   3   6  10  244.58   33.50
  -4  -6 -10   19.50   22.80
   4   6  10   23.60   25.50
   5   6  10  131.19   38.70
  -6  -6 -10   -3.60   28.20
   6   6  10   47.20   33.80
  -7  -6 -10   31.80   32.40
   7   6  10   81.79   37.60
  -8  -6 -10   -6.20   36.00
   8   6  10  -22.40   41.10
  -9  -6 -10   -1.20   43.20
   9   6  10  -82.39   44.70
  10  -7 -10   24.50    3.40
   9  -7 -10   27.60    3.20
   8  -7 -10   -2.70    2.70
   8  -7 -10  -42.10   32.40
  -8   7  10   27.90   39.90
   7  -7 -10    5.40   27.30
  -7   7  10   12.40   37.30
  -6   7  10   -6.80   34.80
  -5   7  10   92.69   35.60
  -4   7  10   44.20   34.00
  -4   7  10    0.50   20.20
  -3   7  10    8.00   29.40
  -3   7  10    6.60   19.10
  -2   7  10  114.49   32.60
  -2   7  10   52.79   22.10
  -2   7  10   85.99    4.30
  -1   7  10    4.40   20.30
  -1   7  10    4.20    2.20
  -1   7  10   12.00   28.30
   0   7  10   33.80   28.40
   0   7  10   11.90   22.90
   1   7  10  101.59   36.30
   1   7  10  107.09   26.80
   2   7  10   91.89   28.60
   2   7  10   27.10   32.60
   3   7  10  -35.10   26.10
  -4  -7 -10  130.99   30.60
   4   7  10  156.68   35.20
   5   7  10  -43.70   31.50
  -6  -7 -10   30.50   32.00
   6   7  10   36.70   37.40
  -7  -7 -10  -16.00   36.30
   7   7  10   50.19   42.10
  -8  -7 -10  -13.10   38.90
   8   7  10  -42.50   43.80
  -9  -7 -10  -89.99   47.40
   9   7  10    2.80   54.69
  -7   8  10  -44.80   24.40
  -7   8  10  -33.20   40.60
  -6   8  10  -13.80   25.50
  -6   8  10   28.20   38.30
  -5   8  10   52.59   25.70
  -5   8  10   21.20   38.10
  -4   8  10   77.59   36.00
  -4   8  10   43.50   26.10
  -3   8  10   17.20    2.80
  -3   8  10  -11.90   21.70
  -3   8  10   78.49   34.90
  -2   8  10  -22.10   31.30
  -2   8  10   18.80    2.70
  -2   8  10    2.80   22.50
  -1   8  10   -3.50   32.50
  -1   8  10   38.30   26.30
  -1   8  10    5.70    2.50
   0   8  10  105.69   30.30
   0   8  10  151.18   37.10
   0   8  10  121.49    6.10
   1   8  10   -9.40   25.60
   1   8  10    7.90   32.40
   2   8  10  121.19   31.80
   2   8  10  139.19   39.10
   3   8  10   12.80   30.70
  -4  -8 -10  -28.00   28.10
   4   8  10   59.99   34.80
  -5  -8 -10   51.79   43.70
   5   8  10  -34.50   38.80
  -6  -8 -10   17.90   35.30
   6   8  10   -9.70   41.80
  -7  -8 -10  -22.60   38.80
   7   8  10   21.90   47.40
  -8  -8 -10    9.00   46.80
   8   8  10   13.20   54.99
  -9  -8 -10   -3.80   51.29
   9   8  10  -13.70   64.49
  -6   9  10  -33.70   27.40
  -6   9  10   26.20   42.00
  -5   9  10   27.30   28.00
  -5   9  10   15.10   39.70
  -4   9  10   65.69   41.40
  -4   9  10   -7.60   27.50
  -3   9  10  -29.00   25.00
  -3   9  10   -4.20   40.00
  -3   9  10   12.00    3.00
  -2   9  10  -15.40   32.80
  -2   9  10   -4.30   35.60
  -2   9  10   15.80    2.90
  -1   9  10   95.49    4.80
  -1   9  10   99.79   39.10
  -1   9  10   38.30   32.10
   0   9  10  -42.50   35.90
   0   9  10    7.10    2.80
   0   9  10   15.80   29.50
   1   9  10   55.49   33.20
   1   9  10   25.90   40.20
   2   9  10  -13.20   32.90
   2   9  10   29.30   38.80
   3   9  10   63.69   38.00
  -4  -9 -10   -6.10   31.90
   4   9  10  -66.59   38.90
  -5  -9 -10   22.80   35.80
   5   9  10    2.30   45.00
  -6  -9 -10   47.50   42.30
   6   9  10  -71.09   43.50
  -7  -9 -10   63.79   46.30
   7   9  10   49.50   52.69
  -8  -9 -10  -37.80   53.09
   8   9  10   34.10   59.29
  -4  10  10    2.30   30.50
  -4  10  10    7.90   44.20
  -3  10  10   54.29    4.00
  -3  10  10   81.79   64.39
  -3  10  10   12.60   31.40
  -2  10  10    9.60   52.89
  -2  10  10    4.60    3.20
  -2  10  10  -51.29   43.40
  -1  10  10   13.10    3.20
  -1  10  10  -23.40   43.30
  -1  10  10    9.00   33.40
   0  10  10   68.49    4.20
   0  10  10   59.99   45.50
   0  10  10  -25.90   32.80
   1  10  10  -57.39   32.40
   1  10  10   44.70   44.20
   2  10  10   38.10   38.30
   2  10  10  -33.40   45.70
   3  10  10   85.79   44.50
   4  10  10   64.89   45.60
  -5 -10 -10  -42.90   43.20
   5  10  10  -54.69   49.70
  -3  11  10   11.20    3.70
  -2  11  10   13.00    3.60
  -1  11  10   66.09   50.29
   0  11  10   64.99   53.39
   1  11  10   -9.30   53.09
   2  11  10   -9.00   57.89
  -3  12  10    2.10    3.90
  -2  12  10    0.10    3.90
  -1  12  10   21.60    4.00
   0  12  10    8.50    4.20
   1  12  10   11.10    4.30
   3 -12  11   19.50   32.10
  -4  12 -11  -16.20   26.50
   4 -12  11   14.20   21.40
   0 -11  11  102.99   57.49
  -1  11 -11   25.00   40.70
   1 -11  11   -8.90   32.70
  -2  11 -11  -28.00   36.30
   2 -11  11    4.70   29.00
  -3  11 -11  -77.29   30.30
   3 -11  11  -29.40   25.10
  -4  11 -11    3.00   22.90
   4 -11  11  -19.60   18.70
   3  10 -11  111.59   69.49
  -3 -10  11  -81.39   38.60
   2  10 -11   61.69   42.10
  -2 -10  11   67.39   37.20
   1  10 -11   42.10   42.90
  -1 -10  11   63.09   36.60
   0  10 -11  -23.50   37.30
   0 -10  11  -11.20   32.20
  -1  10 -11  -40.10   35.10
   1 -10  11  -18.20   28.80
  -2  10 -11    1.80   31.60
   2 -10  11   29.30   26.20
  -3  10 -11   40.00   44.40
   3 -10  11   17.40   22.40
  -4  10 -11    0.60   20.30
   4 -10  11    8.30   16.90
  -6  -9  11 -115.99   75.29
   5   9 -11   72.29   54.09
  -5  -9  11   72.59   48.20
   4   9 -11   47.70   48.00
  -4  -9  11   50.59   43.30
   3   9 -11  118.99   47.80
  -3  -9  11  148.99   42.10
   2   9 -11   38.40   49.99
   1   9 -11   -6.10   36.60
  -1  -9  11   58.49   33.20
   0   9 -11   26.50   33.60
   0  -9  11   33.40   29.50
  -1   9 -11  -29.10   30.70
   1  -9  11   45.30   25.90
  -2   9 -11   -7.90   27.20
   2  -9  11    3.60   23.40
  -3   9 -11   57.79   25.50
   3  -9  11  -21.30   19.90
  -4   9 -11   34.80   18.30
   4  -9  11   -1.50   15.20
   8   8 -11  111.59   84.59
  -8  -8  11   15.00   68.39
   7   8 -11   82.79   58.59
  -7  -8  11   30.60   51.99
   6   8 -11  126.09   54.99
  -6  -8  11   11.40   46.00
   5   8 -11  115.29   51.69
  -5  -8  11   46.40   43.70
   4   8 -11  265.77   50.29
  -4  -8  11  138.29   43.80
   3   8 -11  -16.40   36.90
  -3  -8  11    1.90   34.70
   2   8 -11   35.10   33.60
   1   8 -11   -0.30   33.10
  -1  -8  11  129.29   31.60
   0   8 -11    8.80   30.50
   0  -8  11   42.90   27.00
  -1   8 -11    7.60   27.90
   1  -8  11   28.10   24.40
  -2   8 -11    4.80   24.70
   2  -8  11   26.10   20.80
  -3   8 -11   55.79   22.70
   3  -8  11   60.49   19.70
  -4   8 -11   13.80   20.90
   4  -8  11  -11.30   14.60
 -10  -7  11 -179.48  104.49
   9   7 -11   -7.40   67.69
  -9  -7  11   55.59   62.39
   8   7 -11  -51.79   58.49
  -8  -7  11  -28.00   50.29
   7   7 -11   12.10   54.59
  -7  -7  11   67.99   48.00
   6   7 -11  248.98   57.19
  -6  -7  11  145.59   49.70
   5   7 -11   90.59   45.50
  -5  -7  11  106.99   42.70
   4   7 -11  -10.20   37.20
  -4  -7  11   -3.80   34.20
   3   7 -11   15.10   35.30
  -3  -7  11   53.89   33.40
   2   7 -11  -23.30   28.40
  -2  -7  11  -46.80   23.70
   1   7 -11   24.70   27.50
  -1  -7  11    5.10   22.60
   0   7 -11   98.79   30.00
   0  -7  11  108.49   28.30
  -1   7 -11   35.40   24.30
   1  -7  11   -4.50   20.70
  -2   7 -11  230.58   29.00
   2  -7  11  163.28   25.00
  -3   7 -11   10.70   18.70
  -3   7 -11    3.10    1.50
   3  -7  11    7.10   16.40
  -4   7 -11  137.49   18.70
   4  -7  11  163.88   18.70
  10   6 -11   41.90   70.99
 -10  -6  11   22.50   64.79
   9   6 -11    7.00   63.49
  -9  -6  11   10.20   56.89
   8   6 -11  -92.49   51.39
  -8  -6  11   -6.70   50.99
   7   6 -11   92.19   51.19
  -7  -6  11  188.68   49.10
   6   6 -11   28.00   42.50
  -6  -6  11  130.39   42.90
   5   6 -11  -20.30   35.30
  -5  -6  11   40.10   38.70
   4   6 -11    3.50   35.00
  -4  -6  11   24.50   32.30
   3   6 -11   30.00   31.30
  -3  -6  11   64.69   32.70
   2   6 -11   20.70   29.10
  -2  -6  11    0.90   24.80
   1   6 -11   70.59   25.30
   0   6 -11   59.09   23.70
   0  -6  11   50.09   22.50
  -1   6 -11  340.57   38.80
   1  -6  11  316.97   36.60
  -2   6 -11   27.40   20.00
   2  -6  11   -1.10   18.80
  -3   6 -11   59.39    3.20
  -3   6 -11   87.19   18.80
   3  -6  11   92.49   19.30
  -4   6 -11   44.70   15.40
   4  -6  11   26.70   15.10
   5  -6  11   11.80    9.80
  11   5 -11   82.09   83.59
 -11  -5  11    7.50   67.89
  10   5 -11  -61.39   63.19
 -10  -5  11  -83.19   59.09
   9   5 -11   30.80   57.79
  -9  -5  11   59.99   54.79
   8   5 -11  -12.80   49.10
  -8  -5  11   57.89   46.50
   7   5 -11  -22.40   44.00
  -7  -5  11   24.20   41.30
   6   5 -11  120.59   42.90
  -6  -5  11   37.50   38.40
   5   5 -11   28.00   34.00
  -5  -5  11   36.10   34.60
   4   5 -11   -1.50   29.80
  -4  -5  11   29.60   28.30
   3   5 -11  268.97   38.60
  -3  -5  11  258.87   37.80
   2   5 -11   28.20   26.80
  -2  -5  11   73.49   27.60
   1   5 -11  487.55   43.20
   0   5 -11   58.69   24.20
   0  -5  11   76.39   22.70
  -1   5 -11   56.79   21.20
   1  -5  11   23.90   20.30
  -2   5 -11   31.60   18.00
   2  -5  11   39.30   18.90
  -3   5 -11  194.78   22.70
  -3   5 -11  184.28    7.70
   3  -5  11  185.58   22.90
  -4   5 -11   79.59   16.40
   4  -5  11   96.89   18.30
   5  -5  11   11.60   14.90
   5  -5  11   10.50   10.70
   6  -5  11   -2.00   10.50
   6  -5  11   23.10   22.90
  11   4 -11  150.98   74.89
 -11  -4  11   33.10   66.19
  10   4 -11  112.89   61.19
 -10  -4  11   28.80   55.29
   9   4 -11  -18.10   50.69
  -9  -4  11   62.59   51.19
   8   4 -11  -33.50   44.60
  -8  -4  11   37.20   44.40
   7   4 -11   34.60   41.40
  -7  -4  11   87.39   40.00
   6   4 -11   15.60   35.20
  -6  -4  11   13.90   34.50
   5   4 -11   -7.50   31.00
  -5  -4  11   42.50   33.40
   4   4 -11   46.40   29.70
  -4  -4  11   92.99   30.10
   3   4 -11   40.80   28.40
  -3  -4  11   61.49   27.00
   2   4 -11  848.72   56.39
  -2  -4  11  821.62   57.19
   1   4 -11    7.90   21.10
  -1  -4  11    9.40   20.60
  -1   4 -11  102.09   21.60
   1  -4  11   81.39   22.20
  -2   4 -11   75.49    3.40
  -2   4 -11   39.00   16.90
   2  -4  11   67.79   19.30
  -3   4 -11   35.30   14.50
  -3   4 -11   44.70    2.50
   3  -4  11   52.39   17.30
   4  -4  11  125.29   20.90
   5  -4  11  142.29   20.70
   5  -4  11  107.99   15.20
   6  -4  11  156.68   21.50
   6  -4  11   95.29   15.40
   7  -4  11   36.90   14.20
   7  -4  11   13.50   18.40
   8  -4  11   51.89   21.30
   8  -4  11   29.20   15.50
   9  -4  11   21.60   21.50
   9  -4  11   14.30   18.30
  10  -4  11   39.90   23.60
  10  -4  11   16.30   21.10
  11  -4  11   26.80   24.80
  11   3 -11   49.90   63.89
 -11  -3  11  100.99   64.39
  10   3 -11 -137.49   48.90
 -10  -3  11   30.90   55.39
   9   3 -11    0.70   46.20
  -9  -3  11  -20.80   45.60
   8   3 -11   12.30   39.60
  -8  -3  11   17.00   40.50
   7   3 -11  148.89   55.39
  -7  -3  11  261.27   47.90
   6   3 -11  138.69   37.30
  -6  -3  11  131.99   37.10
   5   3 -11   16.40   27.70
  -5  -3  11   -1.20   28.50
   4   3 -11  162.58   33.00
  -4  -3  11  104.59   30.30
   3   3 -11   14.40   23.50
  -3  -3  11  -26.30   22.10
   2   3 -11  205.98   30.80
  -2  -3  11  250.77   32.50
   1   3 -11  265.07   34.90
  -1  -3  11  278.97   32.50
   0   3 -11  604.14   43.50
  -1   3 -11  238.38   29.80
   1  -3  11  310.37   32.10
  -2   3 -11   81.39   18.60
  -2   3 -11   77.99    3.70
   2  -3  11   98.69   21.10
  -3   3 -11   12.60   14.50
   3  -3  11  -12.50   16.60
   4  -3  11  209.48   25.20
   4  -3  11  273.97   22.10
   5  -3  11   69.19   19.40
   5  -3  11   46.70   13.90
   6  -3  11   12.60   14.60
   6  -3  11   -0.60   17.70
   6  -3  11    5.30    1.60
   7  -3  11   53.69    3.20
   7  -3  11   47.10   20.60
   7  -3  11   57.89   17.70
   8  -3  11    0.90    1.80
   8  -3  11   38.60   22.20
   8  -3  11   15.80   17.80
   9  -3  11   11.50   21.60
  10  -3  11  -15.50   26.00
  10  -3  11   -0.50    2.10
  11  -3  11  -43.30   29.70
  11  -3  11    9.70    2.30
  11   2 -11   31.40   59.19
 -11  -2  11  -75.29   56.59
  10   2 -11  -29.10   48.00
 -10  -2  11    5.70   51.89
   9   2 -11  -30.00   40.80
  -9  -2  11   -2.20   43.80
   8   2 -11   99.99   41.30
  -8  -2  11  -40.40   39.20
   7   2 -11  212.78   45.70
   6   2 -11  138.59   34.30
  -6  -2  11  101.29   34.20
   5   2 -11  486.35   50.19
  -5  -2  11  410.66   50.39
   4   2 -11    8.10   24.20
  -4  -2  11  -14.10   24.60
   3   2 -11  829.32   57.29
  -3  -2  11  886.61   57.39
   2   2 -11  148.59   26.70
  -2  -2  11  175.98   29.90
   1   2 -11  160.18   26.00
  -1  -2  11  133.39   25.50
   0   2 -11    3.70   16.90
   0  -2  11  -23.10   16.50
  -1   2 -11  739.13   30.80
  -1   2 -11  812.72   46.80
  -2   2 -11   11.80   14.90
  -2   2 -11    8.10    1.40
   2  -2  11   12.60   17.70
  -3   2 -11 1001.40   54.29
   3  -2  11 1076.19   57.99
   4  -2  11   47.60   14.10
   4  -2  11   37.70   17.00
   5  -2  11  117.19    5.10
   5  -2  11  107.79   17.30
   6  -2  11   20.40    1.80
   6  -2  11   14.20   15.20
   6  -2  11    5.90   17.90
   7  -2  11    0.70   19.90
   7  -2  11   34.10   18.60
   7  -2  11   28.70    2.10
   8  -2  11   -6.80   19.40
   8  -2  11    5.30    3.30
   8  -2  11  -12.50   21.20
   9  -2  11   -3.40   23.10
   9  -2  11   13.70   25.70
  10  -2  11    5.40   28.60
  11  -2  11  -79.69   52.39
  11   1 -11  -21.80   54.29
 -11  -1  11  -64.29   54.29
  10   1 -11   64.19   47.90
 -10  -1  11   73.19   50.29
   9   1 -11  -38.00   39.70
  -9  -1  11  -24.20   41.40
   8   1 -11   44.60   38.00
  -8  -1  11    7.20   38.20
   7   1 -11    6.30   31.80
  -7  -1  11    1.80   33.90
   6   1 -11   44.60   30.00
  -6  -1  11    2.60   30.20
   5   1 -11   24.60   26.10
  -5  -1  11   28.50   27.70
   4   1 -11  106.89   28.30
  -4  -1  11   71.19   28.80
   3   1 -11  471.85   44.20
  -3  -1  11  529.75   45.40
   2   1 -11   12.90   19.10
  -2  -1  11   -8.00   20.20
   1   1 -11  645.04   45.60
  -1  -1  11  611.94   44.90
   0   1 -11   33.10   18.80
   0   1 -11   19.20    1.80
   0  -1  11   39.60   20.30
  -1   1 -11 1459.55   55.39
   1  -1  11 1242.08   69.99
  -2   1 -11  255.57   26.20
   3  -1  11  186.78   24.00
   3  -1  11  114.49    5.30
   4  -1  11  296.37   40.10
   4  -1  11  331.97   13.30
   4  -1  11  313.47   32.90
   5  -1  11  323.77   28.40
   5  -1  11  355.06   34.20
   5  -1  11  302.47   12.80
   6  -1  11  159.48   22.60
   6  -1  11  123.09   23.40
   6  -1  11  172.38    7.10
   7  -1  11   58.89   23.90
   7  -1  11   70.49   20.80
   8  -1  11    5.20   21.50
   8  -1  11   11.80   24.70
   9  -1  11    7.00   27.70
   9  -1  11  -25.90   25.50
  10  -1  11   87.89   33.90
  11   0 -11  -13.60   66.39
  10   0 -11   25.60   43.90
 -10   0  11  -17.20   46.60
   9   0 -11   23.30   37.50
  -9   0  11   75.69   43.90
   8   0 -11   66.49   38.30
  -8   0  11   23.60   38.10
   7   0 -11   14.60   33.30
  -7   0  11   17.40   34.20
   6   0 -11    2.60   25.40
  -6   0  11   39.70   29.20
   5   0 -11   59.89   27.00
  -5   0  11   88.59   29.90
   4   0 -11   45.10   23.40
  -4   0  11   34.70   24.70
   3   0 -11   63.39   22.50
  -3   0  11   64.59   25.20
   2   0 -11  338.47   37.20
  -2   0  11  339.07   36.60
   1   0 -11  124.59    5.50
   1   0 -11  128.19   23.50
  -1   0  11  111.39   24.10
   0   0 -11 2744.53  120.79
   0   0 -11 2584.74  106.39
   0   0  11 2613.44  122.49
  -1   0 -11    6.40    1.40
  -1   0 -11  -13.40   15.70
   1   0  11   -6.30   17.50
  -2   0 -11   42.60   18.80
   2   0  11    2.30   15.80
   2   0  11   22.50    1.80
   3   0  11    2.10   13.40
   4   0  11  294.37   12.40
   4   0  11  310.27   28.00
   4   0  11  331.97   30.60
   5   0  11   17.30   15.40
   5   0  11   15.70    1.80
   5   0  11    2.80   19.80
   6   0  11  317.17   36.70
   6   0  11  206.28   26.80
   7   0  11    7.60   22.00
   7   0  11   14.50   20.10
   8   0  11  105.99   28.10
   8   0  11   82.69   26.10
   9   0  11   18.50   28.40
   9   0  11   35.00   31.60
  10   0  11   26.20   35.10
  10  -1 -11   -3.10   41.00
 -10   1  11   15.20   46.00
   9  -1 -11  -86.69   32.00
  -9   1  11  -57.89   39.30
   8  -1 -11   36.00   34.10
  -8   1  11   71.79   40.70
   7  -1 -11   95.99   34.00
  -7   1  11  131.09   36.10
  -6   1  11  143.59   39.10
   5  -1 -11   50.79   24.20
  -5   1  11   44.30   27.70
   4  -1 -11   87.09   25.30
  -4   1  11   72.79   26.80
   3  -1 -11   57.49   22.70
  -3   1  11   46.30   24.50
   2  -1 -11   18.90    1.80
   2  -1 -11    6.40   19.00
  -2   1  11   17.60   21.20
   1  -1 -11  305.77   13.20
  -1   1  11  431.56   37.60
   0  -1 -11   18.70    1.70
   0  -1 -11   18.70   17.80
   0   1  11   31.80   20.00
  -1  -1 -11  279.77   31.40
   1   1  11  226.88   29.00
   1   1  11  255.27   10.60
   2   1  11  307.87   34.50
   2   1  11  394.96   15.40
   3   1  11   48.70    2.70
   3   1  11   81.99   21.40
   3   1  11   53.29   16.70
   4   1  11  188.78    8.00
   4   1  11  192.28   26.60
   4   1  11  175.98   22.30
   5   1  11  176.38   23.80
   6   1  11  -14.10   19.00
   6   1  11  -16.00   18.30
   7   1  11   80.29   28.00
   7   1  11   88.19   25.20
   8   1  11   18.10   26.10
   9   1  11   24.40   31.10
  10  -2 -11   -3.70   41.10
 -10   2  11  -15.50   44.40
   9  -2 -11   96.59   39.00
  -9   2  11   56.19   43.60
   8  -2 -11   69.89   33.70
  -8   2  11   33.00   37.90
   7  -2 -11  132.89   34.60
  -7   2  11   75.09   36.70
   6  -2 -11   30.90   26.10
  -6   2  11   99.29   31.80
   5  -2 -11  327.87   39.40
  -5   2  11  357.06   42.40
   4  -2 -11   13.90   22.10
  -4   2  11   21.90   25.00
   3  -2 -11 1114.99   61.49
   3  -2 -11  930.21   40.90
  -3   2  11 1099.49   64.59
   2  -2 -11   63.19   21.50
  -2   2  11   40.50   23.90
   1  -2 -11    7.90   17.30
   1  -2 -11    9.00    1.50
  -1   2  11  -45.80   18.00
   0  -2 -11  266.07   30.30
   0   2  11  294.07   11.60
   0   2  11  226.48   31.70
   1   2  11  762.82   31.50
   1   2  11  815.42   51.49
   2   2  11    6.60    1.60
   2   2  11   23.40   19.20
   2   2  11   -7.20   14.40
   3   2  11  558.54   22.90
   3   2  11  589.84   38.70
   3   2  11  549.35   44.70
   4   2  11   14.10   17.20
   4   2  11   14.30   20.90
   5   2  11  605.24   44.40
   5   2  11  580.24   48.30
   6   2  11   28.60   22.10
   7   2  11    9.40   24.90
   8   2  11   35.60   27.10
  -9  -2 -11   32.50   29.50
   9   2  11  -54.69   33.30
  10  -3 -11    0.40   42.70
 -10   3  11  -68.19   42.30
   9  -3 -11  -65.69   33.50
  -9   3  11   -4.30   39.90
   8  -3 -11  165.38   37.90
  -8   3  11  118.79   38.50
   7  -3 -11   -4.10   27.10
  -7   3  11  -24.10   31.90
   6  -3 -11   41.20   26.10
  -6   3  11   23.10   31.40
   5  -3 -11   12.90    1.90
   5  -3 -11   15.40   23.10
   4  -3 -11  120.09   28.50
   4  -3 -11  104.59    5.00
  -4   3  11  123.89   30.30
   3  -3 -11   42.30    2.40
   3  -3 -11   34.00   21.30
  -3   3  11    9.70   24.00
   2  -3 -11  130.89   24.60
   2  -3 -11  124.39    5.60
  -2   3  11  141.19   28.50
   1  -3 -11  677.73   46.50
  -1   3  11  662.43   49.90
   0  -3 -11   25.40   19.50
   0   3  11    1.80    1.70
   0   3  11    1.70   19.50
   1   3  11  527.55   43.00
   1   3  11  566.94   22.70
   1   3  11  564.34   37.10
   2   3  11  480.25   42.90
   2   3  11  501.35   35.80
   2   3  11  455.05   19.10
   3   3  11   45.30   23.10
   3   3  11   25.20   17.40
   4   3  11  286.77   37.10
   4   3  11  242.78   29.50
   5   3  11   37.90   22.50
   6   3  11    3.30   23.30
  -7  -3 -11   62.19   25.50
   7   3  11   14.60   27.70
  -8  -3 -11   52.69   27.40
   8   3  11   32.30   32.40
  -9  -3 -11   -5.50   29.40
   9   3  11   46.70   39.00
   9  -4 -11  115.69   40.30
  -9   4  11   49.30   42.50
   8  -4 -11  -32.30   32.00
  -8   4  11  -39.00   36.30
   7  -4 -11   51.59   30.20
  -7   4  11   38.20   35.70
   6  -4 -11   82.69   29.40
   6  -4 -11   97.59    4.80
  -6   4  11   76.99   32.80
   5  -4 -11    7.30   22.30
  -5   4  11  -13.70   26.80
   4  -4 -11   55.79    3.00
  -4   4  11   32.20   28.60
   3  -4 -11   16.70    1.80
   3  -4 -11   14.60   20.00
  -3   4  11   11.60   25.10
   2  -4 -11  314.07   36.10
  -2   4  11  356.36   40.20
   1  -4 -11   15.60   20.30
  -1   4  11   10.50   22.80
  -1   4  11   -0.60    1.80
   0   4  11  511.15   21.70
   0   4  11  549.15   46.80
   0   4  11  576.94   37.10
   1   4  11   71.49    3.70
   1   4  11   46.80   19.00
   1   4  11   36.30   23.60
   2   4  11  222.28    9.30
   2   4  11  192.78   32.20
   2   4  11  216.18   27.20
   3   4  11   85.89   23.10
   3   4  11  138.79   28.70
   4   4  11    2.20   24.90
   4   4  11   -5.50   21.50
   5   4  11   61.49   26.30
  -6  -4 -11  160.88   29.30
   6   4  11  163.68   34.10
  -7  -4 -11    4.60   26.10
   7   4  11  -13.90   28.70
  -8  -4 -11  -12.70   28.70
   8   4  11   22.40   32.80
  -9  -4 -11  -28.50   33.00
   9   4  11  -20.60   38.50
  11  -5 -11   15.50    3.40
  10  -5 -11    2.70    3.00
   9  -5 -11   20.20    2.80
   9  -5 -11  -39.80   34.60
  -9   5  11   15.90   42.90
   8  -5 -11   19.20   33.10
   8  -5 -11   19.10    2.70
  -8   5  11   25.30   36.90
   7  -5 -11   79.79   29.50
   7  -5 -11   45.60    3.20
  -7   5  11   14.80   36.20
   6  -5 -11  149.69   31.30
   6  -5 -11  142.09    6.60
  -6   5  11  139.59   37.10
   5  -5 -11   20.50   25.50
   5  -5 -11   22.20    2.20
  -5   5  11   29.80   31.90
   4  -5 -11   94.89    4.70
   4  -5 -11  105.19   26.50
  -4   5  11   75.59   31.40
   3  -5 -11   31.40   25.00
  -2   5  11  -10.40   24.00
  -1   5  11  331.47   32.00
  -1   5  11  253.67   11.20
  -1   5  11  279.17   37.70
   0   5  11    6.80    1.90
   0   5  11   15.60   17.40
   0   5  11   20.50   24.20
   1   5  11  439.66   18.60
   1   5  11  475.95   38.70
   1   5  11  499.35   45.30
   2   5  11  219.28   34.60
   2   5  11  235.38   29.00
   3   5  11   18.10   28.40
   3   5  11  -17.70   21.10
   4   5  11   54.39   25.80
   5   5  11  179.68   34.70
  -6  -5 -11   60.39   27.40
   6   5  11   36.70   32.40
  -7  -5 -11  216.18   37.30
   7   5  11  193.48   41.40
   8   5  11   26.30   38.10
  -9  -5 -11  -23.50   37.50
   9   5  11   67.29   46.90
  11  -6 -11   -3.40    3.50
  10  -6 -11    5.40    3.10
   9  -6 -11   19.30    3.00
   8  -6 -11  -15.90   32.10
   8  -6 -11   13.70    2.70
  -8   6  11   91.49   40.00
   7  -6 -11   26.30   29.10
   7  -6 -11   51.69    3.40
  -7   6  11   74.29   40.00
   6  -6 -11   66.79   29.20
  -6   6  11   23.50   36.60
   5  -6 -11  -20.20   23.80
  -5   6  11  -31.70   31.40
   4  -6 -11   32.20   24.00
  -4   6  11   -3.30   30.80
  -3   6  11   86.09   31.00
  -2   6  11    7.20    2.20
  -2   6  11   13.70   20.10
  -2   6  11   -1.30   26.30
  -1   6  11   75.09   22.60
  -1   6  11   59.09    3.40
  -1   6  11   76.39   30.50
   0   6  11   24.00    2.30
   0   6  11    4.30   19.60
   0   6  11   51.99   28.50
   1   6  11    4.50   21.60
   1   6  11   15.90    2.30
   1   6  11   -3.70   27.10
   2   6  11   36.90   24.40
   2   6  11   54.39   29.20
   3   6  11  368.46   45.00
   3   6  11  282.47   35.60
   4   6  11    5.50   27.10
  -5  -6 -11  120.99   29.40
   5   6  11   98.89   33.60
  -6  -6 -11  -15.50   27.30
   6   6  11  -20.50   35.90
  -7  -6 -11   28.00   33.40
   7   6  11   68.99   39.70
  -8  -6 -11    0.20   36.20
   8   6  11   -2.20   42.40
  -9  -6 -11   -9.60   41.40
   9   6  11  -73.79   51.39
  10  -7 -11   -1.40    3.30
   9  -7 -11   11.70    3.10
   8  -7 -11    6.00    2.90
   8  -7 -11    1.80   34.90
  -8   7  11   19.50   41.30
   7  -7 -11   19.70   32.50
  -7   7  11   -4.20   40.20
   6  -7 -11   38.70   29.00
  -6   7  11   38.40   37.60
  -5   7  11   65.79   37.30
  -4   7  11   23.30   21.00
  -4   7  11   51.49   35.80
  -3   7  11   78.29   35.00
  -3   7  11   68.69   24.30
  -2   7  11  159.78   36.30
  -2   7  11   96.49   26.60
  -2   7  11  134.79    6.40
  -1   7  11   59.49   24.70
  -1   7  11   60.79    3.60
  -1   7  11   57.79   31.50
   0   7  11   34.70   24.00
   0   7  11   -2.60    2.30
   0   7  11  -20.90   30.70
   1   7  11   20.90    2.70
   1   7  11    6.70   25.30
   2   7  11  128.39   30.70
   2   7  11  130.99   36.50
   3   7  11  -33.50   34.00
   3   7  11   23.60   28.60
   4   7  11   80.49   32.00
  -5  -7 -11  -14.80   28.50
   5   7  11  -19.90   33.70
  -6  -7 -11   83.89   36.00
   6   7  11   74.09   41.40
  -7  -7 -11   16.90   36.30
   7   7  11  -28.40   42.40
  -8  -7 -11  -54.39   40.80
   8   7  11  -29.30   48.40
  -9  -7 -11  -11.60   53.89
   9   7  11   21.30   63.49
  -7   8  11  -11.70   39.20
  -6   8  11    9.80   27.30
  -6   8  11   13.20   40.00
  -5   8  11   29.60   26.50
  -5   8  11  104.79   45.50
  -4   8  11   12.20   26.10
  -4   8  11   35.70   39.50
  -3   8  11  -44.30   35.00
  -3   8  11  -24.60   24.50
  -2   8  11  120.49   29.50
  -2   8  11  100.69   37.00
  -2   8  11   71.59    4.30
  -1   8  11   27.00    3.00
  -1   8  11   25.80   26.10
  -1   8  11   53.49   36.10
   0   8  11  124.69    6.20
   0   8  11  100.79   39.70
   0   8  11   80.69   30.00
   1   8  11   48.60   34.50
   1   8  11   49.80   30.00
   1   8  11   19.70    3.10
   2   8  11   80.49   33.30
   2   8  11   79.39   39.10
   3   8  11  -19.10   40.30
   3   8  11  -52.19   31.20
   4   8  11   21.90   34.90
  -5  -8 -11    1.80   33.50
   5   8  11   23.20   39.90
  -6  -8 -11   12.20   37.90
   6   8  11   -3.10   45.20
  -7  -8 -11   39.60   44.90
   7   8  11    7.20   49.10
  -8  -8 -11   67.49   50.29
   8   8  11  -26.70   54.89
  -6   9  11  113.59   37.70
  -5   9  11   -8.90   46.90
  -5   9  11   -3.20   28.90
  -4   9  11   56.69   31.20
  -4   9  11   92.69   48.40
  -3   9  11  -22.50   32.10
  -3   9  11    7.60   42.40
  -2   9  11   55.19   32.10
  -2   9  11   30.20   38.80
  -2   9  11   15.30    3.10
  -1   9  11   36.10    3.40
  -1   9  11   49.60   39.80
  -1   9  11   68.59   31.60
   0   9  11   25.40   32.30
   0   9  11   18.80    3.10
   0   9  11   50.09   41.10
   1   9  11   79.39   35.30
   1   9  11   82.39    4.80
   1   9  11   66.19   40.80
   2   9  11   39.50   34.50
   2   9  11  121.09   45.30
   3   9  11   35.00   37.90
   3   9  11    2.00   45.60
   4   9  11  -36.60   39.00
   5   9  11    4.80   46.20
  -6  -9 -11   -2.30   41.20
   6   9  11    6.40   48.80
  -7  -9 -11  -37.10   47.40
   7   9  11   11.10   53.89
  -4  10  11    4.50   50.29
  -3  10  11   80.49   49.99
  -3  10  11   17.10    3.60
  -3  10  11  -10.00   31.90
  -2  10  11  -94.59   45.50
  -2  10  11    8.60    3.40
  -1  10  11   61.69   38.00
  -1  10  11   82.39   49.40
   0  10  11  -74.69   42.50
   0  10  11  -22.10   37.20
   0  10  11    8.00    3.40
   1  10  11  -12.40   37.40
   1  10  11   20.00    3.70
   1  10  11    8.20   47.30
   2  10  11  100.09   50.59
   2  10  11  -37.60   40.20
   3  10  11 -107.99   39.60
   3  10  11   -3.00   53.99
   4  10  11   42.00   47.60
  -3  11  11   12.30    4.00
  -2  11  11   10.50    3.80
  -1  11  11   47.40   55.09
  -1  11  11   18.50    3.80
   0  11  11 -138.29   50.89
   0  11  11    4.40    5.10
   1  11  11   -5.40   55.69
   1  11  11    1.40    3.90
   2  11  11  -44.30   60.59
   3  11  11  -78.39   61.69
  -3  12  11   18.30    4.50
  -2  12  11   14.80    4.20
  -1  12  11    8.90    4.90
   0  12  11   18.90    4.40
   1  12  11    3.30    4.50
  -4  12 -12   93.69   27.60
   4 -12  12   41.10   22.30
   1 -11  12   50.69   49.80
  -2  11 -12   35.80   36.30
  -3  11 -12    7.00   32.40
   3 -11  12   35.70   26.70
  -4  11 -12   43.60   24.30
   4 -11  12   -8.90   20.40
   2  10 -12    2.90   59.59
  -2 -10  12   63.39   40.10
   1  10 -12   57.69   42.60
  -1 -10  12   74.59   38.20
   0  10 -12  -15.90   39.30
   0 -10  12   27.30   33.00
  -1  10 -12   54.89   37.70
   1 -10  12  -33.90   30.00
  -2  10 -12   92.79   35.20
   2 -10  12  -65.59   26.20
  -3  10 -12    2.00   29.20
   3 -10  12  -37.80   24.10
  -4  10 -12   40.80   22.40
   4 -10  12   23.50   19.10
   5   9 -12   15.50   71.49
  -5  -9  12   50.19   54.79
   4   9 -12  -34.60   48.10
  -4  -9  12  -57.59   43.90
   3   9 -12   75.89   49.30
  -3  -9  12   68.59   41.20
   2   9 -12   28.60   40.00
   1   9 -12   28.90   39.40
  -1  -9  12  115.89   37.00
   0   9 -12  -39.00   33.70
   0  -9  12   70.99   33.40
  -1   9 -12   20.30   32.20
   1  -9  12   15.70   27.30
  -2   9 -12   34.40   30.70
   2  -9  12   31.10   25.00
  -3   9 -12   18.70   24.80
   3  -9  12  -28.30   22.00
  -4   9 -12   33.80   20.30
   4  -9  12   46.80   18.20
   7   8 -12  -63.89   56.99
  -7  -8  12    3.80   54.79
   6   8 -12   -3.70   52.69
  -6  -8  12  -34.00   47.20
   5   8 -12  -49.10   48.20
  -5  -8  12   16.10   44.50
   4   8 -12   39.20   46.30
  -4  -8  12  124.59   43.50
   3   8 -12   79.79   46.10
  -3  -8  12   53.29   37.00
   2   8 -12  103.39   39.00
   1   8 -12  110.79   38.40
  -1  -8  12  109.09   34.30
   0   8 -12   -2.70   31.40
   0  -8  12   11.10   28.20
  -1   8 -12   66.59   30.50
   1  -8  12   49.10   26.30
  -2   8 -12   -3.00   27.00
   2  -8  12   28.00   22.50
  -3   8 -12   -5.60    1.60
  -3   8 -12  -35.50   21.20
   3  -8  12   26.70   20.30
  -4   8 -12  108.89   25.20
   4  -8  12  105.39   19.30
   9   7 -12    3.90   68.89
  -9  -7  12  -67.39   63.99
   8   7 -12   -3.10   62.49
  -8  -7  12    5.20   56.19
   7   7 -12  -43.80   54.49
  -7  -7  12   41.90   51.59
   6   7 -12   19.10   51.09
  -6  -7  12  122.89   49.50
   5   7 -12   36.80   46.40
  -5  -7  12   30.40   43.80
   4   7 -12   91.69   43.70
  -4  -7  12   83.39   40.80
   3   7 -12   13.10   34.60
  -3  -7  12   47.20   34.80
   2   7 -12  395.26   49.99
  -2  -7  12  328.87   41.60
   1   7 -12   29.30   31.00
  -1  -7  12   50.89   26.50
   0   7 -12   77.99   30.80
   0  -7  12   67.29   27.50
  -1   7 -12  -15.40   24.30
   1  -7  12   25.60   24.40
  -2   7 -12   79.29   26.40
   2  -7  12  101.99   24.00
  -3   7 -12   -0.70   19.00
  -3   7 -12    7.80    1.60
   3  -7  12   12.50   19.40
  -4   7 -12   -3.60   15.90
   4  -7  12  -36.60   15.90
   5  -7  12   57.19   13.00
   5  -7  12   55.99   11.50
  10   6 -12   -6.90   72.69
 -10  -6  12 -139.79   64.69
   9   6 -12  -18.40   61.59
  -9  -6  12  -48.10   56.59
   8   6 -12   70.39   58.59
  -8  -6  12   27.10   51.49
   7   6 -12   96.79   56.59
  -7  -6  12  129.89   51.29
   6   6 -12   20.40   45.10
  -6  -6  12   22.60   41.00
   5   6 -12   51.49   43.60
  -5  -6  12   34.90   38.90
   4   6 -12  521.75   57.89
  -4  -6  12  456.35   54.09
   3   6 -12  326.07   49.00
  -3  -6  12  328.47   44.70
   2   6 -12  148.69   34.80
  -2  -6  12  188.18   35.30
   1   6 -12   81.99   27.30
   0   6 -12    1.30   23.50
   0  -6  12   38.40   25.00
  -1   6 -12  158.48   29.10
   1  -6  12  167.68   28.90
  -2   6 -12    9.50   20.10
   2  -6  12    1.50   20.30
  -3   6 -12   42.80   20.60
  -3   6 -12   68.69    3.40
   3  -6  12   57.59   20.40
  -4   6 -12  143.99   20.80
   4  -6  12  122.99   21.00
   5  -6  12   17.10   12.20
  11   5 -12  129.79   83.09
 -11  -5  12  -36.60   73.39
  10   5 -12   35.00   67.29
 -10  -5  12  -15.70   65.99
   9   5 -12  -42.50   56.69
  -9  -5  12   79.19   56.89
   8   5 -12   44.50   53.49
  -8  -5  12  -23.00   49.00
   7   5 -12   40.90   46.10
  -7  -5  12    5.10   43.40
   6   5 -12  -27.30   37.90
  -6  -5  12   24.00   41.40
   5   5 -12  800.92   73.19
  -5  -5  12  843.52   71.49
   4   5 -12  141.69   37.00
  -4  -5  12   90.79   35.90
   3   5 -12  301.67   41.50
  -3  -5  12  228.18   38.90
   2   5 -12   19.10   27.20
  -2  -5  12   20.80   26.80
   1   5 -12  245.38   33.40
   0   5 -12  129.69   27.80
   0  -5  12  142.89   26.60
  -1   5 -12   15.10   20.90
   1  -5  12   17.40   21.20
  -2   5 -12   72.59    3.70
  -2   5 -12   59.59   20.60
   2  -5  12   91.59   22.80
  -3   5 -12   -1.40    1.40
  -3   5 -12    3.20   16.60
   3  -5  12   17.20   18.60
  -4   5 -12   -4.30   15.50
   4  -5  12   13.90   18.50
   5  -5  12   39.50   13.20
   5  -5  12   77.09   19.00
   6  -5  12   79.19   14.30
   7  -5  12    9.10   14.20
   7  -5  12   -2.60   11.60
  11   4 -12   60.99   74.59
 -11  -4  12  -19.70   68.59
  10   4 -12  139.79   64.99
 -10  -4  12  148.49   64.69
   9   4 -12   86.09   53.89
  -9  -4  12   75.69   55.79
   8   4 -12   78.19   47.40
  -8  -4  12   59.89   47.50
   7   4 -12   93.49   44.60
  -7  -4  12  117.79   43.90
   6   4 -12  236.78   45.20
  -6  -4  12  121.89   41.00
   5   4 -12   15.80   32.10
  -5  -4  12   -7.20   31.90
   4   4 -12   51.99   32.50
  -4  -4  12   76.19   32.20
   3   4 -12   73.59   28.30
  -3  -4  12   35.80   29.50
   2   4 -12  557.14   50.69
  -2  -4  12  532.15   50.09
   1   4 -12   15.90   21.30
  -1  -4  12  -32.70   20.30
   0   4 -12   58.49   21.60
   0  -4  12   -2.90   23.20
  -1   4 -12   98.09   23.80
   1  -4  12  127.89   25.00
  -2   4 -12   68.99   20.60
  -2   4 -12   31.00    2.10
   2  -4  12   42.20   20.80
  -3   4 -12  161.58    6.50
  -3   4 -12  117.29   20.20
   3  -4  12  125.59   24.40
   4  -4  12   55.19   19.70
   5  -4  12   18.30   19.00
   5  -4  12   -4.00   12.70
   6  -4  12   68.29   21.10
   6  -4  12   83.39   16.40
   7  -4  12   39.70   21.70
   7  -4  12   17.90   15.70
   8  -4  12   29.00   17.40
   8  -4  12   37.70   23.90
   9  -4  12   51.59   24.80
   9  -4  12   10.90   19.30
  10  -4  12  -15.30   25.70
  11  -4  12  -22.90   26.60
  11   3 -12  -19.60   67.69
 -11  -3  12    5.90   62.79
  10   3 -12  -20.70   56.19
 -10  -3  12  -54.79   56.19
   9   3 -12  -15.40   48.70
  -9  -3  12   -2.70   49.99
   8   3 -12  113.99   48.30
  -8  -3  12  262.77   53.79
  -7  -3  12  120.79   50.99
   6   3 -12   -6.30   32.70
  -6  -3  12   38.60   35.10
   5   3 -12   -8.20   29.10
  -5  -3  12  -19.10   30.00
   4   3 -12  232.78   38.10
  -4  -3  12  257.47   39.00
   3   3 -12  297.37   38.50
  -3  -3  12  283.67   37.30
   2   3 -12   13.70   23.50
  -2  -3  12  -11.50   23.40
   1   3 -12   32.50   23.40
  -1  -3  12   47.60   23.40
   0   3 -12  352.66   35.10
  -1   3 -12    3.20    1.60
  -1   3 -12   21.60   18.10
   1  -3  12    5.90   18.00
  -2   3 -12  830.22   49.60
  -2   3 -12  809.02   33.20
   2  -3  12  844.52   51.89
  -3   3 -12   12.10   16.50
   3  -3  12   47.10   20.40
   4  -3  12   -2.20   18.90
   5  -3  12  -24.00   19.90
   5  -3  12   -0.90   13.90
   6  -3  12   37.20   16.40
   6  -3  12  -20.80   20.10
   7  -3  12   55.79   23.80
   7  -3  12   63.09   18.90
   7  -3  12   63.59    3.20
   8  -3  12  134.89   28.00
   8  -3  12  161.48   24.60
   9  -3  12   20.40   22.90
   9  -3  12   11.90   33.20
   9  -3  12   21.00    2.30
  10  -3  12   75.69   30.20
  10  -3  12   39.20    2.80
  11  -3  12  -27.60   33.20
  11  -3  12    6.50    2.50
  11   2 -12   37.30   61.69
 -11  -2  12  -15.70   60.99
  10   2 -12   68.59   52.49
 -10  -2  12   37.60   53.99
   9   2 -12  194.78   50.99
  -9  -2  12   84.49   52.79
   8   2 -12  101.19   43.90
  -8  -2  12  -38.10   40.30
   7   2 -12  113.99   40.50
  -7  -2  12    3.20   44.90
   6   2 -12   61.19   33.00
  -6  -2  12  -15.00   32.80
   5   2 -12   18.90   28.40
  -5  -2  12   35.50   31.00
   4   2 -12   77.89   28.30
  -4  -2  12   93.79   30.50
   3   2 -12   -1.60   23.50
  -3  -2  12   -1.40   24.80
   2   2 -12   48.30   24.00
  -2  -2  12   92.09   27.10
   1   2 -12  330.17   37.90
  -1  -2  12  285.07   37.30
   0   2 -12  206.18   28.60
   0  -2  12  181.58   27.70
  -1   2 -12  992.50   40.10
  -2   2 -12   31.10    1.90
  -2   2 -12   18.40   15.70
   2  -2  12    7.40   18.10
  -3   2 -12  228.28   25.60
   3  -2  12  238.68   28.40
   4  -2  12   29.30   20.10
   4  -2  12    9.00   13.50
   5  -2  12   44.50   15.40
   5  -2  12   22.70   20.50
   5  -2  12   61.19    3.20
   6  -2  12   22.40   16.60
   6  -2  12   19.00    2.00
   6  -2  12   21.80   20.40
   7  -2  12   54.59   23.60
   7  -2  12   50.59   20.50
   8  -2  12    3.80   21.80
   8  -2  12    0.20   24.80
   8  -2  12    4.80    2.00
   9  -2  12   45.50   26.10
   9  -2  12   41.40   28.50
   9  -2  12   36.30    2.70
  10  -2  12    5.20    2.40
  10  -2  12   22.20   32.30
  11  -2  12   27.40    3.00
  11   1 -12   60.59   77.99
  10   1 -12 -101.79   45.00
 -10  -1  12   49.10   52.99
   9   1 -12  -21.70   43.00
  -9  -1  12  -80.59   42.90
   8   1 -12  135.69   42.20
  -8  -1  12   81.89   43.10
   7   1 -12   49.99   35.50
  -7  -1  12    5.00   34.90
   6   1 -12  151.48   36.00
  -6  -1  12   54.09   35.40
   5   1 -12  363.96   44.70
  -5  -1  12  400.26   46.80
   4   1 -12   82.09   27.70
  -4  -1  12   30.20   27.80
   3   1 -12  919.91   59.19
  -3  -1  12  854.61   60.79
   2   1 -12   17.70   20.80
  -2  -1  12   24.40   23.10
   1   1 -12  488.55   40.30
  -1  -1  12  425.96   41.80
   0   1 -12  265.27   32.00
   0   1 -12  215.18    9.40
   0  -1  12  270.67   32.00
  -1   1 -12   45.40   18.60
   1  -1  12   50.69   21.20
   3  -1  12   30.50    2.20
   3  -1  12   82.69   21.50
   4  -1  12  240.88    9.70
   4  -1  12  224.38   26.00
   4  -1  12  198.18   27.50
   5  -1  12   88.99   19.00
   5  -1  12   92.59    4.40
   5  -1  12  107.29   23.10
   6  -1  12   30.50   21.80
   6  -1  12   59.39    3.10
   6  -1  12   53.39   19.00
   7  -1  12   41.10   24.70
   7  -1  12   65.49   21.70
   7  -1  12   40.40    3.20
   8  -1  12   34.00   25.60
   8  -1  12  -11.10   23.70
   9  -1  12   24.20   28.40
   9  -1  12  -49.50   28.40
  10  -1  12   94.39   37.40
  10   0 -12   43.30   46.60
 -10   0  12  -46.00   52.09
   9   0 -12  -87.39   36.50
  -9   0  12   68.79   46.80
   8   0 -12   68.49   38.80
  -8   0  12  115.39   44.30
   7   0 -12   -7.40   31.00
  -7   0  12   35.30   36.30
   6   0 -12   27.00   29.90
  -6   0  12   31.20   33.30
   5   0 -12   36.20   27.60
  -5   0  12    6.10   27.70
   4   0 -12  105.89   28.30
  -4   0  12   96.99   30.00
   3   0 -12   14.40   21.90
  -3   0  12   30.40   24.60
   2   0 -12 1506.75   79.89
  -2   0  12 1453.05   80.39
   1   0 -12    7.90   19.50
   1   0 -12   39.40    2.30
  -1   0  12   30.80   22.30
   0   0 -12  967.60   38.60
   0   0 -12  940.21   55.99
   0   0  12  949.01   59.79
  -1   0 -12   53.29   19.40
  -1   0 -12   58.99    3.10
   1   0  12   56.59   22.20
  -2   0 -12   13.30   17.10
   2   0  12   -4.30   18.20
   3   0  12   -0.40   14.60
   3   0  12    2.20    1.60
   4   0  12  454.55   33.90
   4   0  12  453.95   18.50
   5   0  12   36.60    2.30
   5   0  12   43.30   19.30
   5   0  12   -4.70   19.00
   6   0  12  255.67   34.10
   6   0  12  269.07   33.50
   6   0  12  242.68   10.40
   7   0  12   15.40   21.90
   7   0  12  -18.10   24.90
   8   0  12   89.99   30.90
   8   0  12   77.29   27.20
   9   0  12   13.30   30.00
   9   0  12   30.60   32.40
  10  -1 -12  129.99   52.09
 -10   1  12  -49.70   48.20
   9  -1 -12   43.30   39.20
  -9   1  12   12.60   44.50
   8  -1 -12   79.59   37.70
  -8   1  12   65.29   40.20
   7  -1 -12   -7.50   29.70
  -7   1  12   21.90   36.20
   6  -1 -12   -5.60   26.70
  -6   1  12   15.70   36.60
   5  -1 -12   25.10   25.50
  -5   1  12   39.10   29.00
   4  -1 -12  154.68   31.90
  -4   1  12  178.88   35.10
   3  -1 -12  269.47   32.90
  -3   1  12  255.67   35.70
   2  -1 -12   -1.40   19.30
   2  -1 -12   -1.50    1.60
  -2   1  12    8.40   22.90
   1  -1 -12  787.32   34.80
   1  -1 -12 1015.30   56.59
  -1   1  12  888.21   56.49
   0  -1 -12  454.25   40.50
   0  -1 -12  571.24   21.80
   0   1  12  515.35   45.10
  -1  -1 -12   -8.20   17.90
   1   1  12    0.30   20.30
   1   1  12   17.70    1.80
   2   1  12  311.77   37.60
   2   1  12  400.96   15.70
   3   1  12   50.39   21.40
   3   1  12   18.00   15.60
   3   1  12   29.60    2.10
   4   1  12   -2.50   23.60
   4   1  12   12.40    1.80
   4   1  12   19.90   18.10
   5   1  12  107.09   22.60
   6   1  12    1.80   22.00
   6   1  12   19.60   21.90
   7   1  12  115.69   26.80
   7   1  12   37.90   28.50
   8   1  12   96.09   33.30
   8   1  12   27.30   29.00
   9   1  12   74.29   36.50
   9   1  12   23.40   32.60
  10  -2 -12  -15.90   43.70
 -10   2  12   -3.50   49.99
   9  -2 -12   36.20   42.40
  -9   2  12  -59.39   43.00
   8  -2 -12  -38.00   32.90
  -8   2  12   29.00   38.30
   7  -2 -12    0.70   29.70
  -7   2  12   15.90   34.90
   6  -2 -12  -31.80   27.10
  -6   2  12   21.50   31.80
   5  -2 -12  124.09   30.80
  -5   2  12  129.49   34.80
   4  -2 -12  103.89   26.00
  -4   2  12   26.20   27.70
   3  -2 -12  239.68   31.50
   3  -2 -12  241.88   10.10
  -3   2  12  227.38   34.00
   2  -2 -12   18.70    1.80
   2  -2 -12   49.60   22.00
  -2   2  12   23.50   24.20
   1  -2 -12  103.89    4.90
   1  -2 -12  138.39   26.70
  -1   2  12  111.99   27.90
   0  -2 -12    9.60   18.80
   0   2  12    5.20   21.70
   1   2  12  759.72   54.49
   1   2  12  866.11   33.80
   2   2  12   44.50   22.70
   2   2  12   29.90    2.20
   2   2  12   41.50   17.50
   3   2  12  705.83   27.60
   3   2  12  675.73   43.20
   3   2  12  617.04   49.30
   4   2  12    7.50    1.90
   4   2  12   -6.20   22.10
   4   2  12   82.79   37.00
   5   2  12   72.09   24.30
   5   2  12   25.00   24.40
   6   2  12   -6.00   24.10
   6   2  12   11.20   23.40
   7   2  12   -2.00   26.50
   8   2  12   17.80   29.50
   9   2  12    6.70   36.10
  10  -3 -12   66.19   47.90
 -10   3  12   -3.70   49.20
   9  -3 -12  -22.30   37.40
  -9   3  12  -62.09   43.40
   8  -3 -12   26.30   33.90
  -8   3  12   69.79   39.60
   7  -3 -12  281.87   42.30
  -7   3  12  376.96   49.10
   6  -3 -12  132.89   32.00
  -6   3  12  106.59   38.20
   5  -3 -12   18.20   25.20
   5  -3 -12    6.20    2.00
  -5   3  12   39.10   30.20
   4  -3 -12   96.79    4.80
   4  -3 -12  126.19   28.90
  -4   3  12   93.79   31.30
   3  -3 -12  453.75   19.00
   3  -3 -12  465.85   41.60
  -3   3  12  525.05   49.00
   2  -3 -12  106.49    4.80
  -2   3  12   77.49   27.50
   1  -3 -12  278.87   33.40
  -1   3  12  219.98   33.40
   0  -3 -12   62.29   22.40
   0   3  12   26.50    2.30
   0   3  12   53.49   25.80
   1   3  12    4.70    1.70
   1   3  12    9.70   22.30
   1   3  12  -21.00   15.80
   2   3  12  290.27   32.80
   2   3  12  321.97   13.30
   2   3  12  373.36   40.70
   3   3  12   72.89   26.00
   3   3  12   29.90   18.60
   3   3  12   50.39    2.90
   4   3  12  436.36   43.10
   4   3  12  310.77   38.40
   5   3  12  389.66   40.30
   5   3  12  445.36   48.40
   6   3  12    7.10   30.90
   6   3  12   20.10   26.20
   7   3  12    3.90   28.90
   8   3  12   41.00   35.30
   9   3  12  -35.50   36.60
   9  -4 -12    5.00   37.40
  -9   4  12   32.80   51.69
   8  -4 -12   16.00   33.80
  -8   4  12   76.39   41.70
   7  -4 -12   24.90   30.40
   7  -4 -12    4.00    2.40
  -7   4  12  -19.80   37.10
   6  -4 -12   57.79    3.40
   6  -4 -12   26.60   28.00
  -6   4  12  126.59   37.40
   5  -4 -12   -7.90   24.20
   5  -4 -12    1.00    2.00
  -5   4  12   31.80   32.60
   4  -4 -12   16.40    2.00
   4  -4 -12   31.70   25.00
  -4   4  12  -25.10   43.30
   3  -4 -12  -12.30   21.50
   3  -4 -12   31.10    2.20
  -3   4  12   33.00   28.40
   2  -4 -12  457.65   41.50
  -2   4  12  477.85   49.50
   1  -4 -12   54.99   23.80
  -1   4  12   18.30   26.60
  -1   4  12   58.49    3.20
   0   4  12  204.68    9.10
   0   4  12  252.67   34.50
   0   4  12  229.88   26.40
   1   4  12    3.50    1.80
   1   4  12  -15.30   23.80
   1   4  12   20.20   17.90
   2   4  12    6.40    1.90
   2   4  12  -14.90   26.00
   2   4  12   13.20   18.50
   3   4  12   49.40   27.50
   3   4  12   18.60   21.00
   4   4  12  115.79   31.50
   4   4  12   50.39   25.30
   5   4  12   99.79   30.50
   5   4  12   88.39   32.30
   6   4  12  190.28   34.30
   7   4  12   29.80   32.40
   8   4  12  102.59   40.00
  -9  -4 -12   -8.20   34.20
   9   4  12  -66.59   42.40
  11  -5 -12    2.30    3.40
  10  -5 -12    8.70    3.20
   9  -5 -12  -83.39   37.20
   9  -5 -12   12.00    2.90
  -9   5  12  -17.10   42.60
   8  -5 -12    8.00    2.70
   8  -5 -12   -1.00   35.70
  -8   5  12   44.90   41.40
   7  -5 -12   49.40    3.30
   7  -5 -12   28.80   30.90
  -7   5  12   48.50   39.50
   6  -5 -12  134.99    6.30
   6  -5 -12  133.09   32.60
  -6   5  12   91.99   37.50
   5  -5 -12   95.59    4.80
   5  -5 -12   80.39   28.50
  -5   5  12   57.09   35.50
   4  -5 -12    5.20   25.00
   4  -5 -12   -1.30    2.00
  -4   5  12  -32.50   30.80
   3  -5 -12  116.69   27.60
  -3   5  12  159.98   36.20
  -2   5  12   37.20   28.50
  -1   5  12  304.67   39.90
  -1   5  12  243.38   10.70
  -1   5  12  274.77   32.40
   0   5  12  166.28   25.00
   0   5  12  156.18   32.20
   0   5  12  135.19    6.40
   1   5  12   81.39   22.90
   1   5  12   71.09    4.10
   1   5  12   24.90   27.80
   2   5  12   30.50   22.30
   2   5  12  -14.00   26.30
   2   5  12    6.20    2.10
   3   5  12   -8.40   28.40
   3   5  12   22.60   23.70
   4   5  12   39.90   27.40
   4   5  12  149.88   37.30
   5   5  12   -6.50   28.70
   6   5  12    4.60   31.90
   7   5  12   -0.90   35.60
  -8  -5 -12   15.40   35.20
   8   5  12   22.70   42.40
  -9  -5 -12   11.80   37.30
   9   5  12   -3.80   46.50
  11  -6 -12    1.10    3.90
  10  -6 -12   -7.20    3.30
   9  -6 -12   26.80    3.30
   8  -6 -12    1.60    2.70
   8  -6 -12   -9.30   36.90
  -8   6  12  -78.99   39.80
   7  -6 -12   44.00    3.40
   7  -6 -12   70.39   32.80
  -7   6  12   17.40   41.50
   6  -6 -12   -5.10   30.20
   6  -6 -12    3.40    2.40
  -6   6  12  -14.80   39.40
   5  -6 -12   36.30   27.70
  -5   6  12   15.90   36.80
   4  -6 -12   40.80   27.20
  -4   6  12   45.70   35.50
  -3   6  12   24.20   31.70
  -2   6  12   65.99   23.60
  -2   6  12   51.19    3.40
  -2   6  12   47.60   32.50
  -1   6  12   12.80    2.30
  -1   6  12  -21.10   20.40
   0   6  12   38.60   31.50
   0   6  12   33.40    2.70
   0   6  12   27.40   22.00
   1   6  12  222.28   31.60
   1   6  12  244.48   10.20
   1   6  12  209.48   37.90
   2   6  12    1.10    2.50
   2   6  12   32.50   29.60
   2   6  12  -11.20   23.70
   3   6  12  229.48   35.70
   3   6  12  348.07   44.40
   4   6  12    4.50   29.30
   4   6  12   25.50   35.30
   5   6  12   61.49   33.90
   6   6  12    9.30   35.30
  -7  -6 -12   43.30   35.20
   7   6  12    4.60   41.80
  -8  -6 -12  -71.69   37.00
   8   6  12  -24.90   42.10
  10  -7 -12    3.60    3.60
   9  -7 -12   -4.80    3.20
   8  -7 -12    5.80    3.20
   7  -7 -12   -3.70   33.90
  -7   7  12    2.30   42.80
   6  -7 -12  109.79   35.90
  -6   7  12   53.59   43.90
  -5   7  12    6.20   40.50
  -4   7  12    6.90   21.90
  -4   7  12   -1.10   37.20
  -3   7  12   29.40   25.10
  -3   7  12   34.10   34.40
  -2   7  12   17.20   33.80
  -2   7  12  -17.50   24.20
  -2   7  12   -6.70    2.60
  -1   7  12   22.20    2.70
  -1   7  12    6.30   31.90
  -1   7  12   -3.00   23.80
   0   7  12    9.20   32.10
   0   7  12   -6.60    2.40
   0   7  12   11.50   24.90
   1   7  12  -16.90   34.80
   1   7  12   19.30    2.70
   1   7  12   11.30   26.10
   2   7  12  351.86   55.69
   2   7  12  332.77   40.50
   3   7  12    3.70   37.90
   3   7  12   16.00   30.90
   4   7  12   40.60   38.40
   4   7  12   55.79   41.00
   5   7  12   64.39   36.90
   6   7  12   43.10   41.80
  -7  -7 -12    1.70   37.50
   7   7  12  -49.50   42.40
  -8  -7 -12  -22.70   41.70
   8   7  12   14.40   51.19
  -6   8  12   28.00   30.30
  -6   8  12  -12.10   46.90
  -5   8  12   55.79   29.20
  -5   8  12   96.79   46.20
  -4   8  12   30.10   30.50
  -4   8  12   -9.30   41.70
  -3   8  12  -24.80   26.70
  -3   8  12    3.70   37.50
  -2   8  12  -21.30   33.80
  -2   8  12   19.30   26.60
  -2   8  12   21.60    3.10
  -1   8  12  -30.20   37.30
  -1   8  12    3.40    2.80
  -1   8  12   -5.20   27.00
   0   8  12  118.89    6.30
   0   8  12   96.59   33.40
   0   8  12  138.39   40.40
   1   8  12  -44.60   27.70
   1   8  12  -13.40   36.20
   1   8  12   -0.70    2.80
   2   8  12    1.80   38.00
   2   8  12   14.40   30.10
   3   8  12   -3.20   32.30
   3   8  12  -53.69   41.20
   4   8  12   68.99   63.99
   4   8  12   19.10   45.10
   5   8  12   22.40   44.40
   6   8  12  116.99   50.29
  -7  -8 -12  -45.20   42.30
   7   8  12   -8.80   49.20
  -8  -8 -12  -18.00   48.70
   8   8  12  -69.09   58.09
  -5   9  12  -36.70   29.30
  -5   9  12   65.79   51.59
  -4   9  12  -19.10   29.50
  -4   9  12  -40.40   45.20
  -3   9  12   -8.10   46.30
  -3   9  12   25.20   30.40
  -2   9  12  -32.80   31.80
  -2   9  12   12.10    3.20
  -2   9  12   14.50   42.90
  -1   9  12   40.60   44.20
  -1   9  12   57.29    4.00
  -1   9  12   40.00   35.30
   0   9  12   -0.10    3.10
   0   9  12  -32.30   31.50
   0   9  12    7.00   42.50
   1   9  12   51.29    3.90
   1   9  12   42.30   45.60
   1   9  12   -2.60   33.70
   2   9  12   10.20   45.20
   2   9  12  149.39   42.30
   3   9  12   -2.30   37.40
   4   9  12  107.59   54.89
   5   9  12   45.20   47.40
   6   9  12   22.80   52.89
   7   9  12   86.19   57.29
  -3  10  12   33.20   52.39
  -2  10  12    4.20    3.50
  -2  10  12   16.20   50.09
  -1  10  12  -72.79   33.90
  -1  10  12   55.69   50.09
  -1  10  12    8.60    3.50
   0  10  12   40.80   35.20
   0  10  12   33.30   49.20
   1  10  12   -2.20   51.19
   1  10  12   21.80   38.00
   1  10  12   13.40    3.60
   2  10  12   50.49   39.80
   2  10  12   34.00   54.49
   3  10  12   19.00   59.19
   3  10  12   34.80   54.99
   4  10  12   12.40   63.09
  -2  11  12    6.50    3.90
  -1  11  12   19.90    4.20
   0  11  12  -39.90   56.89
   0  11  12   12.30    3.90
   1  11  12   31.30   60.49
   1  11  12    7.80    4.10
   2  11  12   82.19   64.79
   2  11  12   43.80    4.80
   3  11  12   25.00   68.79
   4  11  12    9.50   73.49
  -2  12  12    9.00    4.40
  -1  12  12    0.20    4.20
   0  12  12   14.60    4.40
   1  12  12   40.30    4.90
   2  12  12    3.70    4.90
  -3  11 -13   18.40   32.90
   3 -11  13   18.10   28.20
  -4  11 -13   51.19   25.90
   4 -11  13   23.70   22.10
  -1 -10  13   11.70   42.50
   0  10 -13    2.20   38.20
   0 -10  13  -56.39   35.70
  -1  10 -13   54.79   38.70
   1 -10  13   70.19   34.60
  -2  10 -13  -45.70   34.20
   2 -10  13   11.20   29.90
  -3  10 -13   42.90   31.60
   3 -10  13   23.70   26.80
  -4  10 -13    9.20   23.60
   4 -10  13   28.70   20.90
   4   9 -13   73.39   62.39
  -4  -9  13  -31.30   46.00
   3   9 -13   95.79   53.19
  -3  -9  13   48.30   43.50
   2   9 -13 -102.69   39.80
   1   9 -13   48.90   43.10
  -1  -9  13  -34.40   36.20
   0   9 -13   -9.30   37.70
   0  -9  13   12.10   33.50
  -1   9 -13    7.90   34.50
   1  -9  13   39.00   31.60
  -2   9 -13   31.70   31.70
   2  -9  13    0.70   28.40
  -3   9 -13   74.79   29.10
  -3   9 -13   93.39    5.20
   3  -9  13  140.89   29.50
  -4   9 -13   52.79   21.60
   4  -9  13  -23.40   19.80
   6   8 -13  187.48   61.79
  -6  -8  13   35.10   52.09
   5   8 -13    9.40   52.59
  -5  -8  13  -22.90   46.80
   4   8 -13   69.09   49.30
  -4  -8  13  160.08   46.70
   3   8 -13   17.80   45.20
  -3  -8  13   30.00   39.80
   2   8 -13  -27.30   36.40
   1   8 -13    4.40   36.30
  -1  -8  13  -27.20   33.10
   0   8 -13  -13.70   33.10
   0  -8  13  -15.00   29.20
  -1   8 -13  137.19   34.50
   1  -8  13   62.79   30.90
  -2   8 -13   46.80   28.80
   2  -8  13   25.80   26.10
  -3   8 -13   27.80    2.10
  -3   8 -13   42.40   24.50
   3  -8  13   24.00   22.90
  -4   8 -13    5.80   24.70
   4  -8  13   18.70   19.60
   5  -8  13   24.20   11.60
   5  -8  13    4.40   12.60
   8   7 -13  -52.09   63.29
  -8  -7  13  -66.79   56.69
   7   7 -13  -26.80   56.69
  -7  -7  13   53.49   52.49
   6   7 -13    5.30   49.00
  -6  -7  13   20.50   48.80
   5   7 -13   64.69   50.29
  -5  -7  13   34.10   44.90
   4   7 -13   -9.70   41.20
  -4  -7  13  -15.90   39.10
   3   7 -13   32.90   40.80
  -3  -7  13   29.80   37.30
   2   7 -13  -27.50   31.90
  -2  -7  13   -9.60   30.00
   1   7 -13   37.90   32.20
  -1  -7  13   13.90   28.50
   0   7 -13  319.57   41.90
   0  -7  13  378.76   42.70
  -1   7 -13   57.09   30.30
   1  -7  13    9.00   25.50
  -2   7 -13    6.20   25.40
   2  -7  13  -22.00   22.70
  -3   7 -13   11.50   21.70
  -3   7 -13    7.10    1.70
   3  -7  13   -9.50   21.20
  -4   7 -13    3.40   18.30
   4  -7  13    3.40   19.00
   5  -7  13    6.50   12.80
   5  -7  13  -15.60   15.00
  10   6 -13  154.98   78.79
 -10  -6  13  -81.69   70.59
   9   6 -13   75.29   67.79
  -9  -6  13  -15.60   61.69
   8   6 -13   59.79   57.89
  -8  -6  13   34.50   52.19
   7   6 -13   33.30   53.39
  -7  -6  13  -81.39   47.80
   6   6 -13  -18.80   46.40
  -6  -6  13   -8.90   43.70
   5   6 -13   -0.10   42.90
  -5  -6  13    2.80   39.80
   4   6 -13   42.80   37.50
  -4  -6  13   50.39   36.70
   3   6 -13   84.89   36.10
  -3  -6  13   71.79   37.00
   2   6 -13  160.18   38.40
  -2  -6  13  156.08   37.80
   1   6 -13  396.26   53.59
   0   6 -13   -6.10   27.30
   0  -6  13  -21.60   26.80
  -1   6 -13  155.98   31.40
   1  -6  13  171.38   30.60
  -2   6 -13   -4.50   21.30
   2  -6  13  -12.20   22.40
  -3   6 -13   85.79   23.60
  -3   6 -13  109.69    4.80
   3  -6  13   58.69   23.80
  -4   6 -13    5.10   18.00
   4  -6  13   18.60   20.40
   5  -6  13   18.90   13.80
   6  -6  13    1.10   11.90
   6  -6  13   -7.50   14.30
  10   5 -13  -29.20   70.09
 -10  -5  13   23.30   66.39
   9   5 -13  -65.79   59.89
  -9  -5  13    2.70   60.09
   8   5 -13   80.89   54.09
  -8  -5  13   69.89   53.99
   7   5 -13    9.10   45.60
  -7  -5  13  -30.00   46.70
   6   5 -13   37.60   42.80
  -6  -5  13   59.79   42.00
   5   5 -13   53.59   41.70
  -5  -5  13   54.39   39.80
   4   5 -13   13.50   36.20
  -4  -5  13  -17.30   34.00
   3   5 -13  836.52   67.49
  -3  -5  13  761.02   66.69
   2   5 -13  116.79   33.70
  -2  -5  13  109.39   33.60
   1   5 -13  -16.50   24.60
  -1  -5  13   22.60   27.80
   0   5 -13   22.60   24.40
   0  -5  13   27.00   23.50
  -1   5 -13   24.90   22.40
   1  -5  13   45.50   24.10
  -2   5 -13    2.50   20.20
  -2   5 -13   16.30    1.80
   2  -5  13    2.50   21.10
  -3   5 -13  480.25   38.90
  -3   5 -13  417.96   17.60
   3  -5  13  436.66   40.80
  -4   5 -13  272.67   32.00
   4  -5  13  350.46   36.40
   5  -5  13  124.69   17.60
   5  -5  13  135.09   23.80
   6  -5  13    4.10   14.30
   7  -5  13   32.60   15.30
   7  -5  13   70.19   20.50
   8  -5  13   23.70   14.20
   8  -5  13   21.60   16.60
  11   4 -13  -99.89   77.89
 -11  -4  13   23.70   74.59
  10   4 -13  -39.40   63.79
 -10  -4  13  -59.59   62.39
   9   4 -13   85.09   57.79
  -9  -4  13   95.69   57.59
   8   4 -13   18.40   49.40
  -8  -4  13  -31.40   46.40
   7   4 -13  -12.80   73.59
  -7  -4  13  -10.50   45.40
   6   4 -13   38.60   41.20
  -6  -4  13   62.39   41.10
   5   4 -13  183.88   43.30
  -5  -4  13  151.48   40.50
   4   4 -13  467.55   56.39
  -4  -4  13  471.25   51.89
   3   4 -13   12.90   28.80
  -3  -4  13  -19.90   27.30
   2   4 -13  208.98   33.60
  -2  -4  13  174.48   34.70
   1   4 -13   34.90   25.60
  -1  -4  13   18.10   23.60
   0   4 -13   29.10   21.20
  -1   4 -13   92.89   23.20
   1  -4  13  104.19   27.20
  -2   4 -13   98.99    4.80
  -2   4 -13  125.49   24.20
   2  -4  13  155.38   27.50
  -3   4 -13   14.80   17.40
  -3   4 -13   31.90    2.10
   3  -4  13   62.29   23.40
  -4   4 -13  144.29   23.40
   4  -4  13  125.29   25.40
   5  -4  13   -6.90   14.20
   5  -4  13  -19.00   21.50
   6  -4  13  111.29   19.00
   6  -4  13  128.49   24.90
   7  -4  13   25.60   24.30
   7  -4  13   43.90   18.20
   8  -4  13   34.10   19.80
   8  -4  13   30.60   25.60
   9  -4  13   -1.20   21.30
   9  -4  13   16.00   26.90
  10  -4  13   -4.70   27.90
  11  -4  13  -67.89   29.40
  11   3 -13  -32.50   75.19
 -11  -3  13   73.09   96.89
  10   3 -13  -28.90   57.79
 -10  -3  13   26.80   60.49
   9   3 -13  141.99   55.99
  -9  -3  13  108.29   56.09
   8   3 -13  217.78   54.69
  -8  -3  13  158.18   49.90
   7   3 -13   31.50   42.40
   6   3 -13  453.65   55.39
  -6  -3  13  497.95   64.19
   5   3 -13   25.50   32.20
  -5  -3  13   40.90   35.60
   4   3 -13   32.60   31.20
  -4  -3  13   51.79   32.70
   3   3 -13   12.90   26.90
  -3  -3  13   31.20   27.10
   2   3 -13  339.87   44.20
  -2  -3  13  341.77   41.60
   1   3 -13   65.19   25.00
  -1  -3  13   38.00   25.00
   0   3 -13  639.34   49.00
   0  -3  13  657.93   55.89
  -1   3 -13  100.39    4.60
  -1   3 -13   93.59   23.40
   1  -3  13   80.49   24.30
  -2   3 -13  169.88    7.00
  -2   3 -13  137.59   24.20
   2  -3  13  146.79   26.90
  -3   3 -13   17.20   17.30
   3  -3  13   25.60   22.20
   4  -3  13   52.99   23.00
   5  -3  13   77.59   25.30
   5  -3  13   55.39   16.80
   6  -3  13   76.49   18.90
   6  -3  13   53.29   24.10
   7  -3  13   -0.50   23.10
   7  -3  13   -2.20   18.10
   8  -3  13    8.00    2.10
   8  -3  13   29.00   26.90
   8  -3  13   28.10   22.30
   9  -3  13   52.49   31.80
   9  -3  13   36.50    2.80
   9  -3  13   48.20   25.70
  10  -3  13  -46.80   31.10
  10  -3  13   -4.10    2.40
  11  -3  13    1.50    2.70
  10   2 -13   64.89   57.89
 -10  -2  13   28.90   58.19
   9   2 -13   91.99   52.29
  -9  -2  13   53.99   52.29
   8   2 -13   -2.20   41.90
  -8  -2  13   67.39   45.00
   7   2 -13  163.18   45.60
  -7  -2  13  159.78   44.00
   6   2 -13   65.79   36.40
  -6  -2  13   77.49   37.20
   5   2 -13  203.18   37.70
  -5  -2  13  102.99   37.10
   4   2 -13  193.68   35.00
  -4  -2  13  186.28   36.50
   3   2 -13   36.00   27.70
  -3  -2  13   38.90   28.10
   2   2 -13  144.99   30.30
  -2  -2  13  146.99   31.30
   1   2 -13  892.61   57.59
  -1  -2  13  921.31   60.79
   0   2 -13    6.00   20.90
   0  -2  13   16.90   22.00
  -1   2 -13  704.73   48.90
  -1   2 -13  711.13   28.70
  -2   2 -13    2.30   17.40
  -2   2 -13   13.00    1.60
   2  -2  13  -32.00   18.30
  -3   2 -13  291.37   32.10
   3  -2  13  237.78   32.30
   4  -2  13   31.50   22.50
   4  -2  13   42.20   15.80
   5  -2  13   30.60   23.10
   5  -2  13   38.90    2.50
   5  -2  13   28.50   16.80
   6  -2  13   -8.30   17.30
   6  -2  13    5.20    1.90
   6  -2  13  -31.20   21.90
   7  -2  13   23.90    2.30
   7  -2  13  -13.70   19.60
   7  -2  13   43.90   26.00
   8  -2  13   -8.40   26.30
   8  -2  13   41.80   24.80
   8  -2  13   53.59    3.00
   9  -2  13   55.89   28.90
   9  -2  13   27.30    2.70
   9  -2  13   57.49   31.10
  10  -2  13   12.90    2.60
  11  -2  13   10.00    2.90
  10   1 -13   44.40   50.79
 -10  -1  13   46.40   57.09
   9   1 -13   93.69   47.30
  -9  -1  13   47.40   53.29
   8   1 -13  156.48   46.60
  -8  -1  13  158.68   47.10
   7   1 -13  104.79   41.80
  -7  -1  13   65.09   39.60
   6   1 -13   -3.00   31.40
  -6  -1  13   44.60   35.20
   5   1 -13   29.90   29.80
  -5  -1  13   56.89   31.80
   4   1 -13   58.79   28.20
  -4  -1  13   19.30   28.80
   3   1 -13  646.54   54.19
  -3  -1  13  676.63   53.99
   2   1 -13   51.99   24.90
  -2  -1  13  114.29   28.90
   1   1 -13  120.69   27.40
  -1  -1  13  193.78   31.20
   0   1 -13  687.13   47.80
   0   1 -13  618.14   26.00
   0  -1  13  665.73   50.29
  -1   1 -13    2.00    1.50
  -1   1 -13   18.00   19.10
   1  -1  13  -19.90   20.30
  -2   1 -13  136.89   24.10
   3  -1  13  596.74   45.50
   4  -1  13   17.50   16.40
   4  -1  13   32.30    2.20
   4  -1  13   -1.30   21.00
   5  -1  13  220.88   28.60
   5  -1  13  201.58    8.70
   5  -1  13  202.68   30.30
   6  -1  13   42.10   20.30
   6  -1  13   29.90   23.30
   6  -1  13   55.39    3.00
   7  -1  13   26.70   25.50
   7  -1  13   47.30    2.90
   7  -1  13   19.00   21.60
   8  -1  13   -2.60   27.40
   8  -1  13    5.70    2.20
   8  -1  13   -6.60   25.00
   9  -1  13   13.10   30.10
   9  -1  13   -5.40    2.40
   9  -1  13   40.20   30.20
  10   0 -13  -31.70   46.70
 -10   0  13 -123.29   54.19
   9   0 -13   83.49   47.10
  -9   0  13   99.89   50.29
   8   0 -13  -54.49   35.50
  -8   0  13  -32.80   40.50
   7   0 -13  -16.80   32.80
  -7   0  13  -35.60   38.80
  -6   0  13  205.08   45.30
   5   0 -13    2.50   27.00
  -5   0  13   20.30   30.00
   4   0 -13  282.27   39.20
  -4   0  13  316.77   42.90
   3   0 -13   65.19   26.80
  -3   0  13   48.50   27.50
   2   0 -13  386.46   41.70
  -2   0  13  372.26   44.80
   1   0 -13   -5.20   19.70
  -1   0  13  -18.90   23.20
   0   0 -13  179.18   29.20
   0   0 -13  273.47   10.60
   0   0  13  222.48   33.10
  -1   0 -13   44.70    2.50
  -1   0 -13   38.80   20.90
   1   0  13   53.19   23.80
  -2   0 -13  262.47   32.90
   2   0  13  244.48   32.00
   3   0  13   -6.80   27.80
   3   0  13    3.30    1.70
   4   0  13  418.36   17.20
   4   0  13  430.66   34.20
   5   0  13   29.00   23.00
   5   0  13   32.50    2.40
   5   0  13   48.80   19.20
   6   0  13  271.47   11.70
   6   0  13  321.57   41.40
   6   0  13  296.67   36.50
   7   0  13   52.59   23.70
   7   0  13   19.90    2.50
   7   0  13   -8.90   26.30
   8   0  13   -9.60   30.20
   8   0  13   20.60   28.00
   9   0  13   -7.70   31.10
   9   0  13  100.99   35.90
 -10   1  13   77.99   57.49
   9  -1 -13   -6.10   40.20
  -9   1  13  -15.10   48.80
   8  -1 -13  169.98   43.00
  -8   1  13  356.06   55.19
   7  -1 -13  119.09   37.70
  -7   1  13   95.99   40.30
   6  -1 -13  -44.10   29.00
  -6   1  13  -19.80   33.20
   5  -1 -13   55.69   28.50
  -5   1  13   27.70   32.40
   4  -1 -13  142.09   31.50
  -4   1  13  164.88   35.30
   3  -1 -13   37.50   24.40
  -3   1  13   51.59   28.40
   2  -1 -13  126.39    5.90
   2  -1 -13  163.68   28.80
  -2   1  13  156.48   32.30
   1  -1 -13   88.69   25.30
   1  -1 -13   58.19    3.00
  -1   1  13   19.00   25.10
   0  -1 -13  997.00   60.39
   0  -1 -13 1074.19   42.00
   0   1  13 1016.40   64.69
  -1  -1 -13  -21.00   18.80
   1   1  13   10.90   22.10
   2   1  13  500.95   45.60
   2   1  13  499.25   20.30
   3   1  13  220.58   31.40
   3   1  13  223.18    9.30
   3   1  13  212.18   27.60
   4   1  13    7.70    1.80
   4   1  13   10.20   20.30
   4   1  13    3.60   17.50
   5   1  13  161.48   27.50
   5   1  13  206.88    8.60
   6   1  13  -13.90   21.40
   6   1  13  -16.30   21.50
   7   1  13  120.79   28.50
   7   1  13   50.09   30.60
   8   1  13    8.20   31.80
   8   1  13   46.80   32.30
   9   1  13  -50.09   35.10
   9   1  13  -12.80   33.70
  10  -2 -13   -7.50   48.70
 -10   2  13  -52.59   50.19
   9  -2 -13    3.70   39.90
  -9   2  13  -59.39   49.70
   8  -2 -13   98.49   40.50
  -8   2  13   37.20   41.80
   7  -2 -13  340.37   46.40
  -7   2  13  333.27   49.50
   6  -2 -13   99.29   33.80
  -6   2  13  160.08   38.20
  -5   2  13   46.70   34.70
   4  -2 -13   78.29   26.70
   4  -2 -13   64.39    3.70
  -4   2  13   30.30   28.90
   3  -2 -13  -47.10   21.20
   3  -2 -13   45.50    2.60
  -3   2  13   74.99   30.30
   2  -2 -13    6.70    1.70
   2  -2 -13   13.60   22.00
  -2   2  13    4.40   26.80
   1  -2 -13  541.95   42.80
   1  -2 -13  490.65   20.80
  -1   2  13  578.44   50.49
   0  -2 -13   40.70   21.20
   0   2  13   66.79   25.50
  -1  -2 -13  605.34   45.00
   1   2  13  535.85   48.10
   1   2  13  524.25   22.00
   2   2  13   18.70    2.00
   2   2  13  -13.40   21.80
   2   2  13   32.20   17.70
   3   2  13  224.88   33.40
   3   2  13  181.18   25.60
   3   2  13  242.48    9.70
   4   2  13   85.39   28.90
   4   2  13   87.49   22.40
   4   2  13  107.99    5.10
   5   2  13   -6.30   25.40
   5   2  13   21.80   21.80
   6   2  13   23.50   27.10
   6   2  13  -18.20   24.90
   7   2  13   66.59   30.10
   8   2  13   28.60   31.90
   8   2  13   47.10   50.69
   9   2  13   12.80   37.20
   9  -3 -13   20.50   41.00
  -9   3  13  -27.20   46.80
   8  -3 -13  -12.00   33.90
  -8   3  13   17.10   44.10
   7  -3 -13  113.79   35.00
  -7   3  13    5.80   37.80
   6  -3 -13  347.07   44.40
  -6   3  13  266.07   46.20
   5  -3 -13  382.56   47.70
   5  -3 -13  281.07   12.10
  -5   3  13  282.97   43.70
   4  -3 -13  194.48    8.40
   4  -3 -13  223.88   34.00
  -4   3  13  177.68   36.70
   3  -3 -13  231.38    9.90
   3  -3 -13  236.58   33.10
  -3   3  13  270.17   39.80
   2  -3 -13   36.70   24.40
   2  -3 -13   29.30    2.20
  -2   3  13   30.20   27.60
   1  -3 -13  256.37   32.90
  -1   3  13  261.67   37.30
   0  -3 -13  141.59   26.70
   0   3  13  100.29   28.70
   0   3  13   63.29    3.60
   1   3  13    2.90   17.30
   1   3  13   14.60   25.00
   2   3  13  197.68    8.20
   2   3  13  198.78   32.10
   2   3  13  149.79   25.50
   3   3  13   64.29   21.60
   3   3  13   47.00   27.20
   3   3  13   50.39    3.00
   4   3  13   67.99   24.70
   4   3  13   62.89    4.00
   4   3  13   10.10   28.20
   5   3  13  103.19   29.20
   5   3  13  115.19   33.10
   6   3  13  -16.70   26.60
   6   3  13    2.80   32.00
   7   3  13    8.20   30.40
   7   3  13   87.89   36.50
   8   3  13    2.60   35.40
   8   3  13   12.40   37.90
   9   3  13   18.50   47.70
   9  -4 -13   80.09   44.60
  -9   4  13   18.70   49.30
   8  -4 -13    4.80    2.80
   8  -4 -13   36.70   37.80
  -8   4  13  -58.19   40.80
   7  -4 -13    0.20    2.50
   7  -4 -13    2.60   34.10
  -7   4  13  -45.00   39.20
   6  -4 -13   43.50    3.00
   6  -4 -13   -5.90   28.40
  -6   4  13   58.69   36.80
   5  -4 -13  148.99    7.00
   5  -4 -13  194.28   35.70
  -5   4  13  153.28   41.20
   4  -4 -13  232.68    9.50
   4  -4 -13  174.68   32.60
  -4   4  13  202.28   39.60
   3  -4 -13   62.29    3.40
   3  -4 -13  106.49   27.50
  -3   4  13   57.59   31.70
   2  -4 -13  460.95   43.90
  -2   4  13  513.15   51.89
   1  -4 -13   34.50   23.90
  -1   4  13   21.30   27.30
   0   4  13  164.78   33.90
   0   4  13  248.98   28.40
   0   4  13  244.68   10.10
   1   4  13   36.40    2.60
   1   4  13   42.60   20.30
   1   4  13   74.89   28.70
   2   4  13    0.80    2.00
   2   4  13   16.60   20.20
   2   4  13  -13.40   25.10
   3   4  13   10.50   21.40
   3   4  13   31.70   29.50
   4   4  13  461.45   51.29
   4   4  13  545.85   48.30
   5   4  13  144.69   36.50
   5   4  13  102.59   29.70
   6   4  13   50.59   35.40
   6   4  13  112.69   34.30
   7   4  13  -17.20   38.70
   7   4  13  -23.70   32.80
   8   4  13   49.30   40.80
  11  -5 -13   27.70    3.80
  10  -5 -13    1.30    3.40
   9  -5 -13   -3.10    3.10
   8  -5 -13   29.80   37.10
   8  -5 -13   35.00    3.30
  -8   5  13   38.70   45.80
   7  -5 -13   66.79    4.00
   7  -5 -13   63.39   34.30
  -7   5  13  104.09   46.90
   6  -5 -13   26.80   30.60
  -6   5  13   50.29   40.70
   5  -5 -13   -0.30   27.40
   5  -5 -13   18.30    2.40
  -5   5  13  -24.00   34.00
   4  -5 -13   30.10   27.80
  -4   5  13   20.20   34.80
   3  -5 -13  102.89   30.10
  -3   5  13  130.49   38.30
  -2   5  13   51.09   32.20
  -1   5  13  157.28    7.20
  -1   5  13  150.68   25.00
  -1   5  13  184.48   35.80
   0   5  13  102.99    5.30
   0   5  13  100.29   23.70
   0   5  13  120.79   32.30
   1   5  13  164.08    7.20
   1   5  13  154.28   26.30
   1   5  13  139.39   34.00
   2   5  13   44.90   30.80
   2   5  13   78.79    4.40
   2   5  13   52.19   23.90
   3   5  13  161.18    9.50
   3   5  13  236.28   40.80
   3   5  13  234.08   33.70
   4   5  13   91.69   37.60
   4   5  13  102.09   32.00
   5   5  13   56.19   39.10
   5   5  13   69.09   34.40
   6   5  13   -6.60   38.20
   6   5  13   26.20   34.10
   7   5  13   40.30   38.20
   8   5  13  -30.50   41.60
  10  -6 -13    1.50    3.60
   9  -6 -13    3.00    3.20
   8  -6 -13   14.30   38.00
  -8   6  13    5.50   46.30
   7  -6 -13  -25.00   31.40
  -7   6  13   17.70   46.80
   6  -6 -13  106.69    5.70
   6  -6 -13  115.19   37.60
  -6   6  13   59.59   45.10
   5  -6 -13   64.89   31.70
  -5   6  13   18.30   39.40
   4  -6 -13   39.10   28.00
  -4   6  13  -17.80   34.90
  -3   6  13   -5.10   34.20
  -2   6  13   30.50   22.60
  -2   6  13   19.10   34.50
  -1   6  13   11.70   32.60
  -1   6  13    8.70   22.90
  -1   6  13   36.10    2.90
   0   6  13   36.40   24.50
   0   6  13    0.00   30.80
   0   6  13    4.60    2.40
   1   6  13  364.66   46.60
   1   6  13  258.97   11.70
   1   6  13  304.57   36.20
   2   6  13   10.60   26.10
   2   6  13  -24.90   33.10
   2   6  13    1.80    2.90
   3   6  13  238.28   41.80
   3   6  13  195.98   35.50
   4   6  13   -4.20   37.30
   4   6  13   -5.90   30.20
   5   6  13   21.30   33.10
   5   6  13   46.70   40.20
   6   6  13    9.40   44.80
   6   6  13  102.29   41.80
   7   6  13   30.60   42.70
   8   6  13   82.39   49.20
  10  -7 -13  -10.00    3.90
   9  -7 -13  -11.50    3.50
   8  -7 -13   -3.90    3.30
   7  -7 -13   24.30   37.20
  -7   7  13   11.50   47.60
   6  -7 -13   22.50   34.50
  -6   7  13   34.70   45.60
  -5   7  13   80.59   43.70
  -4   7  13  -23.90   40.50
  -4   7  13   30.60   26.60
  -3   7  13   30.50   25.40
  -3   7  13   55.69   40.40
  -2   7  13    6.90    2.90
  -2   7  13   40.00   37.80
  -2   7  13   19.70   26.70
  -1   7  13  -14.80   26.30
  -1   7  13   16.40    2.80
  -1   7  13   17.40   35.30
   0   7  13   39.50   26.40
   0   7  13   11.30   34.10
   0   7  13   54.49    3.50
   1   7  13   23.70   28.00
   1   7  13   20.70   33.90
   1   7  13    2.50    2.70
   2   7  13   22.30   29.80
   2   7  13   50.09    3.60
   2   7  13   50.69   68.59
   3   7  13   39.40   40.20
   3   7  13   32.50   31.70
   4   7  13  -10.60   41.90
   4   7  13  -23.00   32.50
   5   7  13   -2.80   45.20
   5   7  13   33.20   38.50
   6   7  13   19.90   42.00
   7   7  13  -46.30   47.80
   8   7  13   72.89   56.59
  -6   8  13   -0.20   48.10
  -6   8  13   21.10   30.30
  -5   8  13   21.50   46.70
  -5   8  13   30.60   30.00
  -4   8  13   90.79   33.40
  -4   8  13  187.38   50.79
  -3   8  13  -30.00   31.10
  -3   8  13   -1.70   43.60
  -2   8  13  116.19    6.50
  -2   8  13  118.59   44.00
  -2   8  13  105.89   31.90
  -1   8  13   11.00    3.00
  -1   8  13   -4.70   40.80
  -1   8  13   43.70   30.60
   0   8  13   59.99   41.10
   0   8  13   26.30    3.20
   0   8  13   59.69   32.30
   1   8  13    1.00   31.00
   1   8  13    0.50   39.50
   2   8  13   79.59   44.00
   2   8  13    0.10    3.10
   2   8  13  -43.80   32.50
   3   8  13   32.00   38.30
   3   8  13   25.30   45.10
   4   8  13   46.80   48.30
   4   8  13  -28.60   36.30
   5   8  13  -11.40   51.49
   5   8  13   35.30   44.50
   6   8  13   53.29   49.30
   7   8  13  -37.10   52.19
   8   8  13   72.79   67.79
  -5   9  13   -1.80   66.39
  -4   9  13   21.40   50.29
  -4   9  13    0.10   35.80
  -3   9  13   67.99   32.80
  -3   9  13   88.39   49.30
  -2   9  13   25.90   49.20
  -2   9  13   25.70    3.60
  -2   9  13    5.30   31.80
  -1   9  13   29.30   45.80
  -1   9  13   -0.10   33.80
   0   9  13  -19.50   34.70
   0   9  13   94.99   48.30
   1   9  13   15.50   35.30
   1   9  13    7.50    3.30
   1   9  13   31.40   49.20
   2   9  13    0.10    3.50
   2   9  13   95.79   51.99
   2   9  13   20.00   38.80
   3   9  13   55.99   53.39
   3   9  13   18.60   41.10
   4   9  13   39.00   56.99
   4   9  13  100.49   47.00
   5   9  13   12.70   50.99
   5   9  13  -17.60   59.29
   6   9  13   29.60   54.29
   7   9  13   13.10   91.29
  -3  10  13  -18.10   60.09
  -2  10  13   33.70    4.10
  -2  10  13  -40.50   54.19
  -1  10  13   89.49   54.99
   0  10  13   76.69   53.49
   1  10  13   89.29    5.40
   1  10  13   53.59   57.29
   2  10  13    6.30    3.90
   2  10  13   29.70   59.09
   3  10  13  -35.30   61.19
   4  10  13   -2.00   65.09
   5  10  13   49.90   74.39
  -2  11  13   -2.60    4.10
  -1  11  13    1.10    4.00
   0  11  13   14.60    4.10
   1  11  13   84.49   64.89
   2  11  13  -36.40   67.19
   2  11  13  -15.90    4.40
   3  11  13   50.49   74.39
   4  11  13   36.70   75.29
  -2  12  13    7.30    5.80
  -1  12  13   -6.80    4.50
   0  12  13   14.40    4.60
   3 -11  14  -40.30   34.10
  -4  11 -14   -0.70   26.70
   4 -11  14  -32.90   23.60
   0 -10  14  -40.10   45.50
  -1  10 -14  -15.60   39.00
   1 -10  14  -33.30   36.00
  -2  10 -14  -22.00   35.50
   2 -10  14  -27.20   30.70
  -3  10 -14    0.40   31.40
   3 -10  14   38.70   30.50
  -4  10 -14   23.30   25.20
   4 -10  14   -8.40   22.60
   3   9 -14  -83.19   78.99
  -3  -9  14   28.90   48.70
   2   9 -14   19.50   42.50
   1   9 -14   33.00   41.20
  -1  -9  14   15.40   37.60
   0   9 -14   -3.90   37.10
   0  -9  14   21.50   34.90
  -1   9 -14  -61.69   35.50
   1  -9  14    0.50   31.80
  -2   9 -14   43.80   35.50
   2  -9  14   89.49   32.00
  -3   9 -14  -24.50   28.40
  -4   9 -14   40.90   24.30
   4  -9  14  -22.40   22.30
   5  -9  14   19.20   12.90
  -6  -8  14  -66.19   93.19
   5   8 -14  135.49   54.59
  -5  -8  14   16.30   46.80
   4   8 -14   17.40   50.49
  -4  -8  14   52.19   47.20
   3   8 -14    6.70   46.10
  -3  -8  14    9.90   41.20
   2   8 -14   21.80   39.60
   1   8 -14  -15.30   39.10
  -1  -8  14  -13.00   34.90
   0   8 -14  -25.40   34.00
   0  -8  14  -42.40   30.90
  -1   8 -14   22.80   32.70
   1  -8  14  -33.80   29.10
  -2   8 -14   -2.30   29.00
   2  -8  14  -14.60   27.40
  -3   8 -14    5.60    2.50
  -3   8 -14   25.40   26.00
   3  -8  14  -36.40   24.20
  -4   8 -14   31.60   23.10
   4  -8  14   32.10   23.50
   5  -8  14   35.90   17.20
  -8  -7  14   -9.70   86.79
   7   7 -14   91.69   61.49
  -7  -7  14   63.29   56.69
   6   7 -14   43.90   54.19
  -6  -7  14  -65.49   50.59
   5   7 -14  -61.99   46.80
  -5  -7  14   28.30   45.30
   4   7 -14  -47.30   44.70
  -4  -7  14  -41.30   40.80
   3   7 -14  -34.10   39.60
  -3  -7  14  -40.20   37.80
   2   7 -14  131.09   40.50
  -2  -7  14  110.69   35.80
   1   7 -14   29.70   32.90
  -1  -7  14  -21.50   29.10
   0   7 -14  138.79   36.40
   0  -7  14  137.29   36.20
  -1   7 -14   84.89   32.00
   1  -7  14   84.99   31.30
  -2   7 -14  142.09   31.30
   2  -7  14  163.48   30.80
  -3   7 -14   11.50   25.00
  -3   7 -14   25.70    2.10
   3  -7  14   -1.70   24.50
  -4   7 -14   49.80   21.80
   4  -7  14    1.30   22.70
   5  -7  14  -18.00   18.80
   5  -7  14   13.20   15.70
   6  -7  14   34.60   11.30
   9   6 -14  -50.89   69.29
  -9  -6  14    3.40   67.89
   8   6 -14  -48.30   60.59
  -8  -6  14 -100.39   57.19
   7   6 -14  -30.80   54.29
  -7  -6  14   -2.30   53.69
   6   6 -14  -40.50   50.59
  -6  -6  14   24.60   48.60
   5   6 -14   19.70   43.70
  -5  -6  14  -21.00   43.20
   4   6 -14  134.19   46.50
  -4  -6  14  140.79   44.00
   3   6 -14  113.19   39.50
  -3  -6  14   40.90   37.70
   2   6 -14   65.69   36.10
  -2  -6  14   81.99   35.30
   0   6 -14   25.40   28.60
   0  -6  14    6.70   29.90
  -1   6 -14   10.90   26.80
   1  -6  14   18.20   28.10
  -2   6 -14   45.90    2.80
  -2   6 -14   33.30   24.90
   2  -6  14   52.79   27.70
  -3   6 -14    4.60    1.80
  -3   6 -14  -21.20   21.90
   3  -6  14   -9.70   25.00
  -4   6 -14   -9.80   19.90
   4  -6  14  -19.80   23.10
   5  -6  14   55.19   17.00
   5  -6  14    6.50   31.60
   6  -6  14   -5.90   14.50
   6  -6  14  -14.40   19.30
  10   5 -14 -134.19   70.29
 -10  -5  14   -7.30   71.99
   9   5 -14   22.90   64.89
  -9  -5  14  -69.19   62.29
   8   5 -14   58.09   56.59
  -8  -5  14  -46.50   52.89
   7   5 -14    2.70   56.49
  -7  -5  14    8.40   48.70
   6   5 -14  -13.80   45.00
  -6  -5  14   11.40   43.60
   5   5 -14  162.48   46.50
  -5  -5  14  102.09   46.20
   4   5 -14   74.19   37.60
  -4  -5  14   18.20   36.90
   3   5 -14  378.96   48.50
  -3  -5  14  283.77   45.10
   2   5 -14  161.48   36.80
  -2  -5  14  188.48   37.80
   1   5 -14  -21.00   30.10
  -1  -5  14   26.30   26.80
   0   5 -14   32.00   26.80
   0  -5  14   24.40   26.50
  -1   5 -14  117.09   27.60
   1  -5  14  107.69   29.20
  -2   5 -14    3.70    1.80
  -2   5 -14   37.80   23.30
   2  -5  14  -33.30   22.80
  -3   5 -14   60.29   21.90
  -3   5 -14   52.19    2.80
   3  -5  14   26.00   25.40
  -4   5 -14   14.30   20.80
   4  -5  14   52.99   23.70
   5  -5  14   49.90   24.90
   5  -5  14   39.50   17.50
   6  -5  14   11.50   16.80
   6  -5  14   -1.50   38.00
   7  -5  14   10.30   22.80
   7  -5  14   19.80   17.40
   8  -5  14    3.70   17.40
   8  -5  14  -25.10   20.20
   9  -5  14  -11.00   14.70
   9  -5  14   33.20   17.10
  10   4 -14   33.90   69.29
 -10  -4  14   -8.50   69.89
   9   4 -14   13.50   59.29
  -9  -4  14   21.30   62.39
   8   4 -14  -37.60   50.09
  -8  -4  14   97.79   53.59
   7   4 -14   13.80   78.99
  -7  -4  14  -46.10   87.39
   6   4 -14  126.59   46.30
  -6  -4  14   54.49   44.20
   5   4 -14   -5.80   38.50
  -5  -4  14    9.70   37.90
   4   4 -14  378.26   49.90
  -4  -4  14  304.97   48.20
   3   4 -14   96.89   33.50
  -3  -4  14   16.00   32.90
   2   4 -14   86.59   30.90
  -2  -4  14  146.69   34.40
   1   4 -14   37.90   28.40
  -1  -4  14   54.39   29.50
   0   4 -14   21.20   36.10
  -1   4 -14   30.30   24.00
  -1   4 -14    7.50    1.90
   1  -4  14  -15.70   24.40
  -2   4 -14   66.19    3.50
  -2   4 -14   55.69   23.40
   2  -4  14   19.10   25.40
  -3   4 -14    6.40    1.70
  -3   4 -14    8.60   19.30
   3  -4  14   30.50   24.10
  -4   4 -14  247.88   29.30
   4  -4  14  199.48   30.80
   5  -4  14   30.70   17.20
   5  -4  14   36.30   25.10
   6  -4  14   55.09   26.30
   6  -4  14   83.29   19.20
   7  -4  14  -16.50   18.40
   7  -4  14  -10.30   27.30
   8  -4  14  -22.40   27.80
   8  -4  14   30.30   21.40
   9  -4  14   -3.90   30.30
  10  -4  14  -37.80   30.30
  10   3 -14   48.40   63.69
 -10  -3  14  -94.29   68.19
   9   3 -14   51.49   54.59
  -9  -3  14   84.79   56.19
   8   3 -14   16.70   48.50
  -8  -3  14   34.50   51.89
   7   3 -14   33.60   43.60
  -7  -3  14  -24.30   44.20
   6   3 -14   35.90   39.20
  -6  -3  14  -14.30   39.90
   5   3 -14  150.88   40.20
  -5  -3  14   89.09   41.30
   4   3 -14   45.10   31.60
  -4  -3  14   27.40   32.80
   3   3 -14    4.00   27.40
  -3  -3  14  -28.70   28.40
   2   3 -14  160.08   33.20
  -2  -3  14  154.78   36.20
   1   3 -14    9.00   23.90
  -1  -3  14  -26.70   26.10
   0  -3  14  640.84   49.60
  -1   3 -14   37.30   21.60
  -1   3 -14   48.70    2.70
   1  -3  14   51.79   22.60
  -2   3 -14  308.97   11.80
  -2   3 -14  256.27   31.70
   2  -3  14  197.98   32.40
  -3   3 -14   -2.70   19.90
   3  -3  14   18.90   22.50
   4  -3  14  -22.80   23.00
   5  -3  14   65.39   19.00
   5  -3  14   80.29   27.10
   6  -3  14    6.40   18.40
   6  -3  14   42.90   27.20
   7  -3  14   16.20   21.30
   7  -3  14   -4.60   28.00
   8  -3  14   68.79   31.80
   8  -3  14   28.10   25.40
   9  -3  14  -17.80   31.70
   9  -3  14   13.70    2.40
  10  -3  14   45.60   37.00
  11  -3  14   13.90    2.90
  10   2 -14    1.20   57.89
 -10  -2  14   54.49   64.09
   9   2 -14   76.89   52.99
  -9  -2  14   28.80   59.19
   8   2 -14   17.50   46.30
  -8  -2  14   12.60   46.60
   7   2 -14  134.69   44.90
  -7  -2  14   34.10   43.60
   6   2 -14   48.80   37.10
  -6  -2  14    3.70   39.50
   5   2 -14   72.69   33.20
  -5  -2  14   55.39   35.40
   4   2 -14  211.48   39.30
  -4  -2  14  122.09   37.50
   3   2 -14   53.09   29.40
  -3  -2  14   20.70   28.50
   2   2 -14   78.29   27.30
  -2  -2  14   64.29   29.00
   1   2 -14  329.77   41.60
  -1  -2  14  344.27   40.80
   0   2 -14   36.30    2.30
   0   2 -14   11.90   22.40
   0  -2  14   23.90   25.40
  -1   2 -14 1056.29   41.60
  -1   2 -14  973.90   60.69
  -2   2 -14  162.08   26.20
  -2   2 -14  105.89    5.10
   2  -2  14  111.99   27.10
  -3   2 -14  129.39   24.30
   3  -2  14  168.38   30.60
   4  -2  14  -19.40   23.20
   4  -2  14    5.40   16.50
   5  -2  14   18.60   17.90
   5  -2  14   20.50   25.60
   6  -2  14   33.20   25.50
   6  -2  14   11.60   19.80
   7  -2  14   45.50    2.80
   7  -2  14  -15.80   21.80
   7  -2  14   55.19   28.90
   8  -2  14   33.80   26.70
   8  -2  14   31.70    2.70
   8  -2  14   17.90   29.30
   9  -2  14   76.59    4.10
   9  -2  14   69.09   34.90
  10  -2  14   13.20    2.70
  11  -2  14   25.40    3.20
  10   1 -14   58.49   56.99
 -10  -1  14   43.40   59.89
   9   1 -14  118.19   51.09
  -9  -1  14   32.90   52.09
   8   1 -14   83.89   44.60
  -8  -1  14  -36.70   43.60
   7   1 -14  -46.20   36.70
  -7  -1  14   35.10   43.90
   6   1 -14  160.08   41.40
  -6  -1  14  162.98   42.50
   5   1 -14  255.47   43.20
  -5  -1  14  156.78   39.70
   4   1 -14   55.49   27.80
  -4  -1  14   -7.10   29.40
   3   1 -14  337.47   40.90
  -3  -1  14  355.76   43.60
   2   1 -14  193.78   32.60
  -2  -1  14  120.49   32.50
   1   1 -14  144.59    6.20
   1   1 -14  124.99   28.10
  -1  -1  14   97.79   30.60
   0   1 -14   47.90   23.20
   0  -1  14   26.40   25.60
  -1   1 -14   28.10   22.30
  -1   1 -14   29.40    2.10
   1  -1  14   51.79   25.30
  -2   1 -14  276.47   31.40
   3  -1  14  250.17   32.40
   4  -1  14  101.29    4.60
   4  -1  14   76.69   20.20
   4  -1  14   27.60   25.20
   5  -1  14  120.89    5.90
   5  -1  14  129.69   22.00
   5  -1  14  202.08   32.60
   6  -1  14   25.70   26.80
   6  -1  14    6.40   20.00
   6  -1  14    7.80    2.20
   7  -1  14  -19.40   27.50
   7  -1  14    2.80    2.20
   7  -1  14  -11.30   23.50
   8  -1  14  123.89   30.40
   8  -1  14  102.59   32.30
   8  -1  14   78.79    4.30
   9  -1  14    4.20    2.60
   9  -1  14    5.40   34.10
  10  -1  14   34.20    3.20
  11  -1  14   12.50    3.20
  10   0 -14   52.09   53.49
 -10   0  14    6.20   57.49
   9   0 -14  -12.00   44.40
  -9   0  14  144.29   52.59
   8   0 -14   14.90   40.50
  -8   0  14   19.90   45.10
   7   0 -14    7.60   37.00
  -7   0  14   84.59   42.80
   6   0 -14   36.00   33.70
  -6   0  14   48.70   67.19
   5   0 -14   14.80   28.90
  -5   0  14  -15.40   32.80
   4   0 -14  400.66   49.10
  -4   0  14  384.56   50.59
   3   0 -14   18.10   24.70
  -3   0  14   46.30   28.80
   2   0 -14  451.75   19.50
   2   0 -14  569.04   46.80
  -2   0  14  513.25   50.49
   1   0 -14    4.90   22.70
   1   0 -14   23.80    2.00
  -1   0  14   46.60   26.40
   0   0 -14   25.60   22.10
   0   0 -14    9.00    1.60
   0   0  14  -41.30   23.80
  -1   0 -14   91.09   23.50
  -1   0 -14   92.89    4.40
   1   0  14   78.29   27.80
  -2   0 -14  322.77   38.50
   2   0  14  334.77   38.40
   3   0  14   14.90    2.00
   3   0  14   30.40   21.70
   3   0  14   20.40   17.40
   4   0  14  309.17   13.20
   4   0  14  355.46   33.10
   5   0  14   26.10   20.90
   5   0  14    2.40   25.30
   6   0  14  218.28   30.80
   6   0  14  218.68    9.20
   6   0  14  184.28   32.80
   7   0  14  -13.20   29.40
   7   0  14  -12.90   24.20
   7   0  14    5.60    2.20
   8   0  14   28.20   30.40
   8   0  14   29.90   33.30
   8   0  14   42.60    3.20
   9   0  14    4.20    2.90
   9   0  14   11.60   35.80
  10  -1 -14   86.79   54.69
 -10   1  14  -41.40   54.59
   9  -1 -14  105.79   44.70
  -9   1  14    3.50   54.49
   8  -1 -14    7.20   39.30
  -8   1  14   60.59   50.09
   7  -1 -14  -31.30   34.50
  -7   1  14   75.09   42.40
   6  -1 -14  191.28   39.00
  -6   1  14  178.08   42.30
   5  -1 -14   13.40   29.00
  -5   1  14   31.80   35.20
   4  -1 -14   55.99   29.00
  -4   1  14   35.20   30.80
   3  -1 -14  241.48   34.00
   3  -1 -14  188.98    8.50
  -3   1  14  230.58   37.90
   2  -1 -14  239.38    9.90
   2  -1 -14  244.28   34.00
  -2   1  14  201.08   35.70
   1  -1 -14   64.49   24.90
   1  -1 -14   30.60    2.20
  -1   1  14   40.00   28.30
   0  -1 -14  661.43   25.60
   0  -1 -14  566.54   48.30
   0   1  14  592.74   52.39
  -1  -1 -14   31.30   23.10
   1   1  14   16.60   24.70
   2   1  14  345.47   41.10
   2   1  14  388.76   15.70
   3   1  14  119.79    5.50
   3   1  14  124.29   29.30
   3   1  14   97.69   21.60
   4   1  14   -3.70   19.00
   4   1  14  -22.90   21.70
   4   1  14    6.20    1.90
   5   1  14  205.58   28.50
   5   1  14  232.38    9.70
   6   1  14   29.70   24.90
   6   1  14    5.40   30.70
   6   1  14   30.40    2.60
   7   1  14   28.60    2.90
   7   1  14   13.10   27.30
   7   1  14   40.90   31.90
   8   1  14   66.09   32.80
   8   1  14  -11.80   35.80
  10  -2 -14   63.79   64.09
 -10   2  14    0.80   77.09
   9  -2 -14   23.20   43.50
  -9   2  14    3.60   54.39
   8  -2 -14   31.30   39.00
  -8   2  14    8.50   47.00
   7  -2 -14  -62.59   32.60
  -7   2  14   38.10   42.70
   6  -2 -14   84.19   34.40
  -6   2  14   54.29   38.50
   5  -2 -14  298.27   42.50
  -5   2  14  320.97   55.49
   4  -2 -14   52.39    3.00
   4  -2 -14  -10.20   25.40
  -4   2  14   37.50   33.10
   3  -2 -14   14.90   25.40
   3  -2 -14   30.80    2.40
  -3   2  14   33.20   30.70
   2  -2 -14    7.10    1.80
   2  -2 -14    4.10   21.60
  -2   2  14   38.70   28.90
   1  -2 -14  555.14   47.50
   1  -2 -14  505.75   21.20
  -1   2  14  558.04   52.19
   0  -2 -14  147.79   28.60
   0   2  14  102.09   29.20
  -1  -2 -14  453.75   43.80
   1   2  14  413.26   17.60
   1   2  14  493.95   48.10
   2   2  14   40.20   27.50
   2   2  14   59.49    3.40
   2   2  14  105.49   22.20
   3   2  14  191.18    8.10
   3   2  14  144.09   33.10
   4   2  14   15.40   29.30
   4   2  14   -6.00   20.40
   5   2  14   31.20   29.70
   5   2  14    9.10    2.20
   5   2  14  -21.60   23.70
   6   2  14  -19.70   24.80
   6   2  14   -1.60    2.50
   6   2  14    5.10   28.60
   7   2  14  155.68   34.10
   8   2  14   15.40   36.30
   8   2  14   -1.90   55.39
   9  -3 -14   -8.10   45.70
  -9   3  14   35.70   50.99
   8  -3 -14  -48.40   37.40
  -8   3  14  -34.50   47.40
   7  -3 -14  105.99   37.60
  -7   3  14   85.89   44.80
   6  -3 -14   13.40    2.60
   6  -3 -14   11.70   32.30
  -6   3  14   35.60   39.80
   5  -3 -14   16.90   30.60
   5  -3 -14   73.29    3.80
  -5   3  14   98.69   39.70
   4  -3 -14   37.90    2.70
  -4   3  14   29.60   35.80
   3  -3 -14  191.38   33.10
   3  -3 -14  155.38    7.00
  -3   3  14  168.68   38.40
   2  -3 -14   24.40   24.30
   2  -3 -14   23.50    2.20
  -2   3  14   32.00   30.60
   1  -3 -14   52.99   25.10
  -1   3  14    7.20   27.70
   0  -3 -14  164.88   29.60
   0   3  14  109.09   31.60
   0   3  14   76.39    4.60
   1   3  14   -2.40    1.90
   1   3  14  -19.40   26.30
   1   3  14   13.00   19.60
   2   3  14  283.87   11.80
   2   3  14  267.37   33.50
   2   3  14  268.77   38.80
   3   3  14   53.19   26.20
   3   3  14   84.59    4.50
   3   3  14  101.29   30.10
   4   3  14    6.40   23.60
   4   3  14   24.10   29.10
   4   3  14   -4.00    2.10
   5   3  14  212.88   39.90
   5   3  14  160.68   31.60
   5   3  14  152.18    7.40
   6   3  14    2.80   28.70
   6   3  14    2.40   32.10
   7   3  14   19.60   32.10
   7   3  14    2.40   34.10
   8   3  14   57.79   42.10
   8   3  14   -3.40   38.00
   9  -4 -14  -57.99   41.50
   9  -4 -14   51.19    3.90
  -9   4  14   53.59   50.19
   8  -4 -14   34.60    3.30
   8  -4 -14   70.69   41.10
  -8   4  14  -24.00   46.40
   7  -4 -14    1.40    2.70
   7  -4 -14    0.70   34.30
  -7   4  14  -44.20   40.40
   6  -4 -14  104.99    5.50
   6  -4 -14  140.59   35.20
  -6   4  14   70.19   42.80
   5  -4 -14  -30.20   27.60
   5  -4 -14    1.10    2.30
  -5   4  14  -19.30   35.40
   4  -4 -14  234.38   10.00
   4  -4 -14  235.88   38.90
  -4   4  14  213.88   43.60
   3  -4 -14   18.20    2.20
  -3   4  14   28.00   35.50
   2  -4 -14   95.29   28.90
  -2   4  14  105.89   34.00
   1  -4 -14   48.70   26.70
  -1   4  14   65.69   31.50
   0   4  14  -26.20   18.70
   0   4  14    5.10   28.50
   0   4  14   -1.10    2.20
   1   4  14    1.00    2.10
   1   4  14  -12.70   20.30
   2   4  14  104.99   24.60
   2   4  14   72.99   31.40
   2   4  14   77.49    4.40
   3   4  14   11.40   23.80
   3   4  14   -5.80   30.60
   3   4  14   -7.80    2.20
   4   4  14  241.58   35.90
   4   4  14  245.28   41.90
   4   4  14  276.17   11.50
   5   4  14  -49.40   27.20
   5   4  14   23.30   34.50
   6   4  14   95.59   40.40
   6   4  14  141.59   35.30
   7   4  14   64.69   36.90
   7   4  14  -37.10   38.30
   8   4  14  -12.20   41.00
  11  -5 -14   15.70    4.00
  10  -5 -14   15.10    3.70
   9  -5 -14   61.39    4.30
   8  -5 -14   39.80    3.50
   8  -5 -14  -12.10   39.90
  -8   5  14   47.70   52.29
   7  -5 -14  -38.90   32.50
   7  -5 -14   10.60    2.80
  -7   5  14    2.50   44.40
   6  -5 -14    5.70   33.00
  -6   5  14   -5.60   43.20
   5  -5 -14   14.60    2.60
   5  -5 -14   31.30   31.50
  -5   5  14   56.29   40.20
   4  -5 -14   16.50   28.10
  -4   5  14   13.10   35.90
   3  -5 -14  300.97   40.90
  -3   5  14  226.78   44.80
   2  -5 -14   66.59   29.70
  -1   5  14  122.49   35.50
  -1   5  14   87.19   24.60
  -1   5  14   80.59    4.40
   0   5  14   86.79   35.40
   0   5  14  104.59   26.00
   0   5  14   92.69    5.20
   1   5  14   87.39   25.70
   1   5  14  115.69    5.80
   1   5  14  158.48   38.20
   2   5  14  128.29   29.40
   2   5  14  247.28   40.80
   2   5  14  135.99    8.00
   3   5  14  170.08    7.80
   3   5  14  143.79   31.70
   3   5  14  202.98   41.50
   4   5  14  -32.80   34.90
   4   5  14   40.20   30.40
   5   5  14  222.88   47.70
   5   5  14  216.48   40.70
   6   5  14    3.00   33.50
   6   5  14  -19.20   41.20
   7   5  14   -2.50   38.40
   7   5  14   24.20   46.20
   8   5  14   23.10   46.40
  10  -6 -14    8.20    3.70
   9  -6 -14   33.80    3.70
   8  -6 -14   15.20    3.20
  -8   6  14  -56.59   82.89
   7  -6 -14   64.69   39.40
   7  -6 -14   81.69    4.60
  -7   6  14   55.79   49.30
   6  -6 -14   11.70    2.80
   6  -6 -14   34.80   34.90
  -6   6  14   23.90   47.50
   5  -6 -14   96.59   35.10
  -5   6  14   15.40   42.80
   4  -6 -14   15.40   31.30
  -4   6  14   -3.90   38.50
  -3   6  14  -35.60   37.20
  -2   6  14    6.30   35.50
  -2   6  14   19.10   25.50
  -1   6  14   14.80   34.30
  -1   6  14   39.10   26.00
   0   6  14   54.89   26.70
   0   6  14   -1.60   54.79
   0   6  14   64.89    3.80
   1   6  14   71.39    4.10
   1   6  14  101.39   29.50
   1   6  14   77.19   38.20
   2   6  14   72.49    4.20
   2   6  14   59.89   29.10
   2   6  14   70.89   38.00
   3   6  14   21.70   30.50
   3   6  14   74.49    4.30
   3   6  14   92.79   42.00
   4   6  14   13.20   38.80
   4   6  14  -10.60   31.20
   5   6  14  -34.70   42.50
   6   6  14  -64.59   42.90
   6   6  14   -8.10   38.30
   7   6  14   43.40   66.49
   7   6  14   20.60   44.80
   8   6  14   46.40   52.59
   9  -7 -14   -9.20    3.70
   8  -7 -14   20.00    3.70
   7  -7 -14   67.69   41.40
  -7   7  14   88.39   53.09
   6  -7 -14  120.79   40.60
  -6   7  14   79.79   50.59
  -5   7  14   86.69   49.30
  -4   7  14   76.99   46.90
  -3   7  14   15.70   28.50
  -3   7  14   59.69   43.40
  -2   7  14  -36.60   37.70
  -2   7  14   10.30   26.20
  -1   7  14   18.60   27.90
  -1   7  14   33.10    3.30
  -1   7  14   24.90   41.10
   0   7  14  134.99   43.40
   0   7  14  111.09    6.20
   0   7  14  119.09   31.10
   1   7  14  -47.90   27.40
   1   7  14    1.90    2.80
   1   7  14   19.60   37.10
   2   7  14  228.98   48.80
   2   7  14  166.78    8.20
   2   7  14  179.38   36.40
   3   7  14    6.90   58.99
   3   7  14  -69.69   30.60
   3   7  14    6.70    3.20
   4   7  14   42.50   38.50
   4   7  14   74.99   45.70
   5   7  14   22.30   47.50
   5   7  14   20.90   39.70
   6   7  14   73.49   47.60
   6   7  14    2.50   51.59
   7   7  14  -39.10   50.99
   8   7  14   44.80   60.79
  -6   8  14   34.30   60.19
  -5   8  14   15.20   53.79
  -5   8  14   37.40   48.50
  -4   8  14   33.50   51.19
  -4   8  14  -37.10   29.30
  -3   8  14   40.70   44.60
  -3   8  14   23.80   31.00
  -2   8  14   26.40   46.80
  -2   8  14  -15.80   30.10
  -2   8  14   54.19    4.00
  -1   8  14   31.10   31.50
  -1   8  14    9.20    3.20
  -1   8  14  -73.89   43.30
   0   8  14   96.19   44.40
   0   8  14   14.20   32.20
   0   8  14   63.49    6.20
   1   8  14  -26.50   32.70
   1   8  14   66.09   44.60
   1   8  14   15.80    3.20
   2   8  14   12.20    3.30
   2   8  14  -11.60   36.00
   2   8  14   44.10   46.00
   3   8  14   27.60   47.40
   3   8  14  -41.40   35.90
   3   8  14   -9.40    3.50
   4   8  14  113.59   43.50
   4   8  14   40.70   51.59
   5   8  14  107.39   47.50
   5   8  14  -34.30   53.29
   6   8  14   43.30   53.39
   6   8  14   46.60   79.19
   7   8  14  -37.80   60.59
  -4   9  14  -53.79   49.80
  -3   9  14   38.10   36.40
  -3   9  14  -29.70   53.49
  -2   9  14   38.00    4.10
  -2   9  14   64.69   36.20
  -2   9  14  100.79   52.69
  -1   9  14  -56.39   48.70
  -1   9  14   18.90   36.70
  -1   9  14   19.70    6.00
   0   9  14  -21.20   37.40
   0   9  14   20.30    3.60
   0   9  14   64.59   50.79
   1   9  14  -48.00   37.00
   1   9  14   62.69   52.09
   1   9  14   -4.00    3.40
   2   9  14   31.50    3.90
   2   9  14   13.10   41.00
   2   9  14    3.10   54.09
   3   9  14   14.20    4.00
   3   9  14   51.89   55.99
   3   9  14  -40.20   44.20
   4   9  14   24.70   60.39
   4   9  14  -72.39   44.20
   5   9  14  -48.10   52.79
   5   9  14   25.70   67.49
   6   9  14   75.69   60.09
  -2  10  14  -93.19   55.69
  -2  10  14   13.70    4.20
  -1  10  14   15.90    3.90
  -1  10  14  -25.00   56.69
   0  10  14   -3.30    3.70
   0  10  14    9.60   56.19
   1  10  14   11.20    4.00
   1  10  14  -70.99   56.39
   2  10  14  -91.69   61.09
   2  10  14   11.60    4.10
   3  10  14   -2.90   62.99
   3  10  14   11.70    4.50
   4  10  14   73.59   71.19
  -2  11  14   12.40    4.60
  -1  11  14    0.20    4.20
   0  11  14   23.40    4.40
   1  11  14    2.00    4.40
   2  11  14   28.10    4.90
   2  11  14   24.20   76.89
   3  11  14   -0.60    5.00
   3  11  14  -15.30   73.69
  -4  11 -15   -9.90   43.60
   4 -11  15  -38.00   26.70
   2 -10  15   25.60   38.40
  -3  10 -15  -47.60   30.10
   3 -10  15   59.29   32.20
  -4  10 -15   28.10   27.00
   4 -10  15   -3.50   26.70
   1   9 -15   -4.10   41.10
  -1  -9  15  -77.79   39.90
   0   9 -15  -14.90   41.00
   0  -9  15   -7.70   36.50
  -1   9 -15   53.09   39.20
   1  -9  15   24.60   35.60
  -2   9 -15   38.50   36.10
   2  -9  15   24.00   33.80
  -3   9 -15   40.20   35.80
  -3   9 -15   32.20    2.50
  -4   9 -15   -4.50   24.20
   4  -9  15    9.80   26.10
   5  -9  15   -1.50   17.60
  -5  -8  15   42.50   73.79
   4   8 -15  -81.79   47.70
  -4  -8  15    1.00   48.50
   3   8 -15    9.20   49.00
  -3  -8  15   31.20   45.30
   2   8 -15  -14.10   41.60
   1   8 -15   21.30   39.10
  -1  -8  15   26.80   40.00
   0   8 -15  127.19   43.50
   0  -8  15  184.68   39.60
  -1   8 -15   31.70   35.50
   1  -8  15  115.89   35.30
  -2   8 -15  106.79   34.30
   2  -8  15  110.89   33.00
  -3   8 -15   62.99   29.70
  -3   8 -15   32.10    2.40
   3  -8  15   -2.60   28.20
  -4   8 -15   38.80   25.40
   4  -8  15  -25.80   24.20
   5  -8  15   32.20   20.80
   7   7 -15  -58.69   66.09
  -7  -7  15   41.80   65.79
   6   7 -15   20.40   58.49
  -6  -7  15   32.50   54.59
   5   7 -15  -24.50   50.89
  -5  -7  15  -17.00   48.80
   4   7 -15   24.50   48.30
  -4  -7  15   76.79   45.70
   3   7 -15  -20.70   41.50
  -3  -7  15   75.89   41.00
   2   7 -15   15.80   41.00
  -2  -7  15  136.39   40.70
   1   7 -15   64.99   36.30
  -1  -7  15   39.40   31.20
   0   7 -15   98.69   37.30
   0  -7  15  111.09   38.40
  -1   7 -15    5.80   31.50
   1  -7  15  -21.00   31.00
  -2   7 -15  -15.00   27.50
   2  -7  15  -15.50   28.60
  -3   7 -15   64.59   27.60
   3  -7  15  -14.50   28.00
  -4   7 -15   10.10   23.00
   4  -7  15   18.30   26.20
   5  -7  15  -47.50   21.70
   6  -7  15   32.80   15.90
   6  -7  15   10.20   17.40
   9   6 -15  -58.59   80.79
  -9  -6  15   73.89   84.59
   8   6 -15    7.70   66.79
  -8  -6  15    1.80   63.79
   7   6 -15   -8.70   57.29
  -7  -6  15  -96.69   52.59
   6   6 -15   27.10   50.99
  -6  -6  15   71.49   51.49
   5   6 -15    4.10   47.00
  -5  -6  15  -17.20   44.80
   4   6 -15   24.40   41.20
  -4  -6  15   68.19   43.40
   3   6 -15   75.09   41.10
  -3  -6  15   84.79   41.50
   2   6 -15   20.70   36.20
  -2  -6  15  -14.60   34.80
   0   6 -15   93.29   34.00
   0  -6  15   51.69   32.50
  -1   6 -15   41.60   30.80
   1  -6  15   57.69   32.40
  -2   6 -15  173.18    8.60
  -2   6 -15  179.48   32.50
   2  -6  15  169.48   35.50
  -3   6 -15   53.29   27.40
  -3   6 -15   68.49    3.80
   3  -6  15   52.29   29.40
  -4   6 -15    0.10   22.80
   4  -6  15  -11.70   25.90
   5  -6  15    9.10   18.10
   5  -6  15   44.20   32.30
   6  -6  15   -8.20   23.50
   6  -6  15   11.10   17.60
   7  -6  15   30.90   16.80
   7  -6  15   47.80   19.60
  10   5 -15   34.20   81.59
 -10  -5  15   91.59   81.09
   9   5 -15   21.80   66.29
  -9  -5  15  -15.60   64.99
   8   5 -15   34.40   60.59
  -8  -5  15  -67.19   56.99
  -7  -5  15  -48.90   64.59
   6   5 -15   55.29   47.40
  -6  -5  15  -21.20   45.40
   5   5 -15   38.90   44.00
  -5  -5  15  -62.89   40.50
   4   5 -15   11.90   39.10
  -4  -5  15   -1.10   39.30
   3   5 -15   92.49   37.60
  -3  -5  15  104.19   42.00
   2   5 -15   72.09   33.80
  -2  -5  15  -13.30   34.20
   1   5 -15   12.90   49.10
  -1  -5  15   49.99   27.80
   0   5 -15   23.70   29.00
   0  -5  15   13.90   25.80
  -1   5 -15   96.69   30.10
   1  -5  15   63.49   31.60
  -2   5 -15   76.49   27.20
  -2   5 -15   69.19    3.90
   2  -5  15   66.29   29.20
  -3   5 -15  170.28    7.50
  -3   5 -15  209.88   30.50
   3  -5  15  153.68   30.80
  -4   5 -15    6.00   21.80
   4  -5  15   -0.40   25.40
   5  -5  15   78.09   28.60
   5  -5  15   30.40   18.70
   6  -5  15   13.40   18.70
   6  -5  15   -1.80   43.00
   7  -5  15   -3.90   26.50
   7  -5  15  -18.00   19.40
   8  -5  15   28.60   25.80
   8  -5  15   15.10   20.40
   9  -5  15  -10.70   22.00
  10   4 -15   81.19   75.69
 -10  -4  15   76.19   79.59
   9   4 -15   84.59   65.89
  -9  -4  15   45.00   64.99
   8   4 -15   40.90   57.29
  -8  -4  15   30.30   54.09
   7   4 -15   43.80   50.09
  -7  -4  15   22.90   56.79
   6   4 -15   61.89   45.80
  -6  -4  15   75.89   45.20
   5   4 -15  -30.40   37.30
  -5  -4  15  -49.00   40.60
   4   4 -15   73.99   39.20
  -4  -4  15   83.99   40.00
   3   4 -15   54.79   34.60
  -3  -4  15   53.99   35.70
   2   4 -15   -8.50   31.20
  -2  -4  15   -5.50   31.10
   1   4 -15  187.28   34.40
  -1  -4  15  156.08   36.50
  -1   4 -15   75.49   27.40
  -1   4 -15  110.19    5.20
   1  -4  15  146.89   33.10
  -2   4 -15   71.99    3.90
  -2   4 -15   76.19   26.10
   2  -4  15   73.59   28.40
  -3   4 -15   49.60   23.50
   3  -4  15   42.90   28.70
  -4   4 -15  348.97   39.30
   4  -4  15  355.86   45.00
   5  -4  15   88.69   28.70
   5  -4  15   49.40   19.50
   6  -4  15    1.80   19.10
   6  -4  15  -21.60   27.30
   7  -4  15   -3.40   21.20
   7  -4  15   28.80   30.50
   8  -4  15  -10.40   23.90
   8  -4  15  -56.69   30.40
   9  -4  15   11.50   33.50
  10  -4  15  -21.20   34.40
  10   3 -15   11.80   67.99
 -10  -3  15   11.10   71.59
   9   3 -15   58.49   57.19
  -9  -3  15  -30.30   57.79
   8   3 -15  -57.59   48.70
  -8  -3  15  -16.30   50.99
   7   3 -15   18.20   46.40
  -7  -3  15   49.00   47.80
   6   3 -15   -3.30   37.60
  -6  -3  15   62.79   45.70
   5   3 -15    6.20   36.60
  -5  -3  15   66.59   42.70
   4   3 -15   56.29   35.10
  -4  -3  15  163.68   41.60
   3   3 -15  -12.10   29.70
  -3  -3  15  -15.40   31.50
   2   3 -15  585.74   56.09
  -2  -3  15  594.24   58.99
   1   3 -15   42.70   28.40
  -1  -3  15   47.60   31.40
   0   3 -15  180.78   32.40
   0  -3  15  170.28   32.70
  -1   3 -15   12.80    1.90
  -1   3 -15  -17.90   21.20
   1  -3  15   44.60   32.80
  -2   3 -15  184.18    7.60
  -2   3 -15  157.18   28.70
   2  -3  15  124.59   31.10
  -3   3 -15  251.47   32.10
   3  -3  15  265.17   36.50
   4  -3  15   93.89   30.90
   5  -3  15   30.80   28.10
   5  -3  15   35.10   18.80
   6  -3  15  110.19   32.90
   6  -3  15   75.89   31.10
   7  -3  15   55.79   32.10
   7  -3  15  106.89   26.30
   8  -3  15   -5.70   25.40
   8  -3  15   13.70   33.00
   9  -3  15   67.39   36.20
  10  -3  15  -11.10    2.70
  10   2 -15  -26.10   62.79
 -10  -2  15  -26.20   63.19
   9   2 -15   65.59   55.19
  -9  -2  15  -52.09   56.79
   8   2 -15    6.00   46.40
  -8  -2  15   -4.50   51.59
   7   2 -15   49.40   44.60
  -7  -2  15   47.90   49.70
   6   2 -15  -67.09   35.60
  -6  -2  15   50.29   43.30
   5   2 -15   12.60   34.60
  -5  -2  15    3.50   34.30
   4   2 -15  119.59   35.90
  -4  -2  15  132.89   38.50
   3   2 -15  246.48   39.60
  -3  -2  15  255.77   42.10
   2   2 -15   34.60   27.70
  -2  -2  15   10.80   31.10
   1   2 -15  736.33   57.29
  -1  -2  15  681.63   60.19
   0   2 -15   12.40    2.00
   0   2 -15   14.00   25.00
   0  -2  15   40.70   26.90
  -1   2 -15  153.08    6.50
  -1   2 -15  153.38   34.80
   1  -2  15   89.29   26.70
  -2   2 -15   20.60   21.00
  -2   2 -15   19.40    2.00
   2  -2  15   -4.40   22.40
  -3   2 -15    6.30   20.30
   3  -2  15   45.20   26.40
   4  -2  15  -13.00   18.70
   4  -2  15    6.80   28.30
   5  -2  15   60.59   29.10
   5  -2  15   46.70   20.00
   6  -2  15    9.20   20.80
   6  -2  15   23.30   30.40
   7  -2  15   34.30   24.40
   7  -2  15   23.00    2.60
   7  -2  15   60.39   33.50
   8  -2  15    7.40   32.80
   8  -2  15   13.70   29.20
   8  -2  15   17.50    2.60
   9  -2  15   13.00   38.90
   9  -2  15   21.20    2.90
  10  -2  15   15.80    3.00
  10   1 -15   61.69   59.19
 -10  -1  15  -21.70   66.29
   9   1 -15 -116.79   48.30
  -9  -1  15    5.00   55.99
   8   1 -15   82.59   47.80
  -8  -1  15   41.60   52.69
   7   1 -15  -49.90   38.60
  -7  -1  15   37.80   45.40
  -6  -1  15  124.19   47.20
   5   1 -15  315.77   47.40
  -5  -1  15  465.45   54.39
   4   1 -15    4.90   30.40
  -4  -1  15  -15.30   31.80
   3   1 -15   29.40   28.10
  -3  -1  15   13.10   32.50
   2   1 -15  153.68   32.90
  -2  -1  15  100.69   33.40
   1   1 -15   18.20   24.80
   1   1 -15   10.00    1.90
  -1  -1  15   47.30   30.20
   0   1 -15  495.35   46.20
   0   1 -15  411.46   17.40
   0  -1  15  441.36   48.70
  -1   1 -15  280.77   33.90
  -1   1 -15  194.78    8.70
   1  -1  15  238.48   35.60
  -2   1 -15   18.90   23.80
   2  -1  15  -13.50   21.60
   3  -1  15    7.50   25.90
   4  -1  15  -11.90   18.30
   4  -1  15   -0.70   24.80
   5  -1  15  132.59   23.60
   5  -1  15  100.79    5.10
   5  -1  15   63.19   28.90
   6  -1  15   45.20   23.60
   6  -1  15   29.00    2.70
   6  -1  15   67.29   29.40
   7  -1  15   16.40   31.40
   7  -1  15    1.90   25.50
   7  -1  15    7.30    2.40
   8  -1  15  -41.80   31.50
   8  -1  15  -23.40   28.70
   8  -1  15   19.50    2.60
   9  -1  15  -67.19   42.10
   9  -1  15   31.00    3.00
  10  -1  15   18.50    3.10
  10   0 -15   16.50   55.69
 -10   0  15   53.99   62.89
   9   0 -15  -33.10   49.50
  -9   0  15  -57.09   58.19
   8   0 -15  103.79   45.30
  -8   0  15   64.09   49.40
   7   0 -15   98.79   41.50
  -7   0  15   13.80   43.70
   6   0 -15   84.69   38.20
  -6   0  15   16.30   42.60
   5   0 -15  -47.10   29.00
  -5   0  15   -7.90   36.00
   4   0 -15  185.68   37.60
  -4   0  15  175.98   42.70
   3   0 -15   -4.10   27.00
  -3   0  15   26.30   31.90
   2   0 -15   26.80    2.30
   2   0 -15   38.30   26.30
  -2   0  15   -6.20   28.20
   1   0 -15   70.89   26.60
   1   0 -15  131.79    5.80
  -1   0  15  134.09   33.10
   0   0 -15   26.60    2.10
   0   0 -15  -10.30   21.70
   0   0  15  129.29   31.10
  -1   0 -15  -33.70   20.80
  -1   0 -15    5.70    1.80
   1   0  15    7.10   27.70
  -2   0 -15  573.34   47.90
   2   0  15  536.85   51.79
   3   0  15   10.50   24.50
   3   0  15   10.50    2.10
   3   0  15  -13.00   18.50
   4   0  15  627.84   45.40
   5   0  15   33.40   27.50
   5   0  15   10.80   21.40
   5   0  15   24.10    2.50
   6   0  15   32.60   29.60
   6   0  15   74.89    4.30
   6   0  15   68.99   24.70
   7   0  15   24.60   33.80
   7   0  15   -6.80   29.00
   7   0  15    4.20    2.40
   8   0  15   10.20    2.70
   8   0  15   44.10   32.20
   8   0  15   22.20   35.60
   9   0  15    1.70    2.80
  10   0  15   20.10    3.30
  10  -1 -15  112.39   57.69
 -10   1  15   56.49   58.49
   9  -1 -15   39.90   47.90
  -9   1  15  -47.00   62.79
   8  -1 -15   -4.20   41.20
  -8   1  15   56.29   53.29
   7  -1 -15   21.60   37.40
  -7   1  15  -79.89   43.60
   6  -1 -15   70.99   36.90
  -6   1  15   -4.90   38.50
   5  -1 -15   16.60   50.39
  -5   1  15   75.89   37.40
   4  -1 -15   18.50   29.20
  -4   1  15    7.70   34.60
   3  -1 -15    9.20    2.10
   3  -1 -15   15.10   25.80
  -3   1  15   20.70   32.00
   2  -1 -15  104.89   29.70
   2  -1 -15  130.79    5.90
  -2   1  15  113.19   35.50
   1  -1 -15    1.80   23.10
   1  -1 -15    3.60    1.80
  -1   1  15    0.00   28.10
   0  -1 -15  366.96   14.90
   0  -1 -15  327.37   41.60
   0   1  15  370.56   44.30
  -1  -1 -15   89.19   27.90
   1   1  15  119.19   33.20
   2   1  15   52.99    3.10
   2   1  15   40.10   28.40
   3   1  15  320.47   36.40
   3   1  15  328.27   40.40
   3   1  15  297.87   12.70
   4   1  15   18.00   27.80
   4   1  15    5.20    2.20
   4   1  15  -41.80   20.80
   5   1  15  194.38   29.00
   5   1  15  185.28    8.30
   6   1  15   87.89    4.50
   6   1  15   89.99   27.90
   7   1  15   65.89    3.90
   7   1  15   51.09   34.00
   7   1  15   39.30   31.60
   8   1  15    5.10    2.80
   8   1  15    5.10   34.20
   8   1  15  -18.40   36.70
   9   1  15   -3.00    3.20
   9  -2 -15  100.09   52.89
  -9   2  15   40.10   55.79
   8  -2 -15   63.59   42.20
  -8   2  15  122.89   50.69
   7  -2 -15  136.99   42.40
  -7   2  15   93.79   49.00
   6  -2 -15   35.00   38.00
  -6   2  15   68.09   42.50
   5  -2 -15    2.80    2.40
   5  -2 -15   13.90   30.80
  -5   2  15   18.40   37.80
   4  -2 -15   10.20    2.20
   4  -2 -15  -40.00   27.50
  -4   2  15   26.70   34.10
   3  -2 -15   84.49    4.50
   3  -2 -15   62.89   29.40
  -3   2  15   77.69   34.20
   2  -2 -15   45.70   25.60
   2  -2 -15    0.80    1.90
  -2   2  15   17.30   32.00
   1  -2 -15  310.57   39.90
   1  -2 -15  288.97   11.90
  -1   2  15  225.78   39.50
   0  -2 -15   18.00   24.60
   0   2  15   -2.90   27.60
  -1  -2 -15  440.96   47.80
   1   2  15  463.15   18.80
   1   2  15  441.16   51.89
   2   2  15  -35.30   19.20
   2   2  15   -4.10    2.00
   2   2  15   12.60   27.40
   3   2  15    2.50   29.20
   3   2  15    2.50   22.30
   4   2  15    8.20   28.80
   4   2  15    9.00    2.30
   4   2  15   28.50   23.20
   5   2  15   85.29   32.60
   5   2  15   67.99   27.70
   5   2  15   46.60    3.30
   6   2  15   23.00   29.50
   6   2  15   52.59    3.40
   6   2  15   56.99   32.80
   7   2  15  108.79   33.50
   7   2  15  101.19    5.30
   8   2  15  -13.70   37.30
   8   2  15   62.69   61.29
   9  -3 -15  -73.49   46.90
  -9   3  15  -43.60   55.49
   8  -3 -15   30.70   40.40
  -8   3  15   40.40   50.89
   7  -3 -15   87.39   39.80
  -7   3  15   95.39   46.40
   6  -3 -15   60.09   36.00
   6  -3 -15   73.09    4.10
  -6   3  15  100.19   45.20
   5  -3 -15  131.09    6.10
   5  -3 -15   61.99   33.60
  -5   3  15  116.99   43.00
   4  -3 -15  113.89    5.50
   4  -3 -15   63.29   33.00
  -4   3  15   93.39   45.70
   3  -3 -15   92.69    4.80
   3  -3 -15   85.89   30.00
  -3   3  15  140.99   38.50
   2  -3 -15  229.58   35.20
   2  -3 -15  148.99    7.10
  -2   3  15  192.48   40.30
   1  -3 -15  -14.40   24.80
  -1   3  15    3.70   30.10
   0  -3 -15  321.37   37.90
   0   3  15  254.97   42.20
   1   3  15  121.09   24.90
   1   3  15   89.59    4.80
   1   3  15   23.70   31.60
   2   3  15   16.10   22.10
   2   3  15   12.70    2.30
   2   3  15  -13.60   28.00
   3   3  15  355.86   44.00
   3   3  15  242.38   32.30
   3   3  15  259.27   11.20
   4   3  15   94.59   33.30
   4   3  15   64.79    3.80
   4   3  15   64.89   27.10
   5   3  15   77.79   29.60
   5   3  15   32.00   34.00
   5   3  15   71.29    4.00
   6   3  15   94.69    5.00
   6   3  15  155.08   41.00
   6   3  15   65.69   32.90
   7   3  15  -10.20   37.30
   7   3  15   14.10   34.70
   8   3  15  105.39   44.20
  10  -4 -15   11.50    4.00
   9  -4 -15   20.60    3.50
   8  -4 -15  -66.59   39.30
   8  -4 -15   16.50    3.20
  -8   4  15   51.99   52.59
   7  -4 -15    7.80    2.90
   7  -4 -15  -22.60   35.80
  -7   4  15  -30.60   45.20
   6  -4 -15   22.40   34.30
   6  -4 -15    9.10    2.70
  -6   4  15  -35.90   41.40
   5  -4 -15  -18.90   30.90
   5  -4 -15   22.80    2.70
  -5   4  15   50.79   42.30
   4  -4 -15  301.17   41.40
   4  -4 -15  318.47   13.30
  -4   4  15  321.07   49.00
   3  -4 -15   18.50    2.40
   3  -4 -15    5.20   28.80
  -3   4  15  -16.70   41.50
   2  -4 -15   46.30   28.90
  -2   4  15   47.10   35.80
   1  -4 -15   -2.40   26.40
  -1   4  15   -1.90   32.70
   0   4  15   -8.00   32.50
   0   4  15    6.60    2.50
   1   4  15   46.90   24.10
   1   4  15   31.70   33.30
   2   4  15  197.88   40.20
   2   4  15  140.59    7.80
   2   4  15  172.98   29.80
   3   4  15  -26.20   32.90
   3   4  15   11.10    2.50
   3   4  15   32.00   26.30
   4   4  15  100.49   38.60
   4   4  15   63.09   30.80
   4   4  15   67.59    4.00
   5   4  15   -9.80    2.70
   5   4  15  -59.09   35.20
   5   4  15    8.90   31.10
   6   4  15  125.49   43.30
   6   4  15  120.09   37.80
   7   4  15  -27.30   36.50
   7   4  15  -31.20   42.30
   8   4  15  -79.19   42.90
  10  -5 -15    2.90    3.80
   9  -5 -15   31.70    3.90
   8  -5 -15  -10.40   43.50
   8  -5 -15    9.30    3.20
  -8   5  15  -98.59   49.80
   7  -5 -15   24.00    3.10
   7  -5 -15  -31.30   37.30
  -7   5  15  -36.90   48.30
   6  -5 -15  -20.30   33.70
   6  -5 -15    1.10    2.70
  -6   5  15  -51.99   43.80
   5  -5 -15   25.70   34.30
   5  -5 -15   12.90    2.80
  -5   5  15  -17.90   42.90
   4  -5 -15   28.10   31.50
   4  -5 -15   18.70    2.80
  -4   5  15   -3.50   41.00
   3  -5 -15   65.69   32.60
  -3   5  15   64.89   40.20
   2  -5 -15   48.90   32.30
  -2   5  15   28.90   36.80
  -1   5  15   53.09   37.70
  -1   5  15   40.80   24.90
   0   5  15   79.89    4.20
   0   5  15    5.70   36.00
   0   5  15   64.09   26.50
   1   5  15   52.19    5.10
   1   5  15   40.70   33.90
   1   5  15   37.70   27.40
   2   5  15   51.79   36.70
   2   5  15   21.30   26.20
   2   5  15   12.60    2.70
   3   5  15   63.49   31.00
   3   5  15  158.08   42.30
   3   5  15  126.39    6.30
   4   5  15   28.10   39.70
   4   5  15   24.60   31.20
   4   5  15   23.10    3.10
   5   5  15   90.89   44.10
   5   5  15   94.79   35.90
   6   5  15    9.70   36.20
   6   5  15   40.90   45.40
   7   5  15   -6.80   60.99
   7   5  15    5.50   41.30
   8   5  15  -21.90   50.59
  10  -6 -15  -12.50    3.90
   9  -6 -15    2.70    3.60
   8  -6 -15   -1.10    3.30
   7  -6 -15  -19.40   39.20
   7  -6 -15    8.30    3.20
  -7   6  15  -19.90   51.29
   6  -6 -15   -4.80   34.80
   6  -6 -15   -1.60    3.00
  -6   6  15   -2.90   49.00
   5  -6 -15    0.50   34.40
  -5   6  15    1.60   43.80
   4  -6 -15   38.50   33.10
  -4   6  15   55.59   45.20
  -3   6  15  100.99   43.90
  -2   6  15   15.50   38.90
  -2   6  15   56.19   27.70
  -1   6  15   95.49   28.40
  -1   6  15   64.89   40.40
  -1   6  15   84.99    4.70
   0   6  15   10.60    2.90
   0   6  15  -62.09   25.00
   0   6  15   -4.90   38.10
   1   6  15  262.57   47.10
   1   6  15  216.48   10.00
   1   6  15  244.48   35.50
   2   6  15   27.20    3.20
   2   6  15   52.19   42.00
   2   6  15   48.40   29.90
   3   6  15   13.90    2.90
   3   6  15  -42.90   37.60
   3   6  15  -22.80   30.60
   4   6  15  102.99    6.30
   4   6  15   75.99   44.90
   4   6  15  188.58   39.70
   5   6  15   25.70   38.30
   5   6  15   28.50   45.70
   6   6  15  -22.80   41.20
   6   6  15  -65.39   45.80
   7   6  15  122.59   53.69
   9  -7 -15   -4.70    4.00
   8  -7 -15   34.20    4.20
   6  -7 -15  -60.29   38.20
  -6   7  15   15.80   55.99
  -5   7  15   96.59   55.59
  -4   7  15  -13.40   49.10
  -3   7  15   60.19   44.40
  -3   7  15   38.10   29.80
  -2   7  15   22.60   30.00
  -2   7  15    3.30   46.10
  -1   7  15   35.60   42.20
  -1   7  15  -54.19   28.20
  -1   7  15    6.70    3.10
   0   7  15   91.29    5.30
   0   7  15  120.89   33.30
   0   7  15  137.89   45.60
   1   7  15  104.49   45.40
   1   7  15   15.20   31.10
   1   7  15   29.20    3.30
   2   7  15   51.19   34.60
   2   7  15   44.90   42.30
   2   7  15   42.90    3.70
   3   7  15  -43.40   34.00
   3   7  15    9.40   52.39
   4   7  15   -5.10   36.80
   4   7  15   24.60   50.29
   4   7  15   11.70    3.60
   5   7  15   -9.60   43.20
   5   7  15  -47.10   48.70
   6   7  15  -26.10   61.29
   6   7  15   94.39   49.40
   7   7  15  -37.10   57.49
  -5   8  15   31.80   57.59
  -4   8  15  114.39   57.89
  -4   8  15   23.20   32.80
  -3   8  15   61.39   34.40
  -3   8  15   32.20   51.69
  -2   8  15   -2.80   33.50
  -2   8  15  -41.30   46.70
  -1   8  15   86.39   51.19
  -1   8  15   27.70    6.60
  -1   8  15   78.59   35.20
   0   8  15   20.10   34.40
   0   8  15    8.60   44.00
   0   8  15    9.80    3.40
   1   8  15    5.00    3.30
   1   8  15  104.29   49.70
   1   8  15   -6.10   35.20
   2   8  15   87.79    5.20
   2   8  15   83.09   49.60
   2   8  15   81.69   39.20
   3   8  15  -49.10   47.00
   3   8  15   -0.50    3.50
   3   8  15   -9.10   39.80
   4   8  15   -4.60   54.29
   4   8  15   12.00   43.40
   4   8  15   42.90    4.40
   5   8  15   64.49   59.09
   5   8  15   -4.50   46.60
   6   8  15  -86.89   52.59
   7   8  15  -59.19   64.99
  -4   9  15   33.80   74.89
  -3   9  15   91.49   57.69
  -2   9  15   -0.40    6.30
  -2   9  15  -29.30   55.39
  -1   9  15   50.39    4.40
  -1   9  15   48.60   36.70
  -1   9  15   41.40   56.09
   0   9  15   16.40    3.70
   0   9  15   39.90   55.69
   0   9  15   29.20   40.90
   1   9  15    8.10    3.70
   1   9  15   42.30   52.99
   1   9  15   35.10   39.20
   2   9  15   65.49   40.80
   2   9  15   13.90    4.00
   2   9  15   15.30   57.59
   3   9  15  -44.50   55.39
   3   9  15    7.80    4.00
   3   9  15   47.00   45.90
   4   9  15  -79.39   43.90
   4   9  15  -12.30   62.49
   4   9  15   -5.60    4.40
   5   9  15   17.70   72.09
   5   9  15   39.00  103.09
  -2  10  15   30.70    4.50
  -1  10  15   29.50    4.30
  -1  10  15 -101.79   57.59
   0  10  15    1.20    4.00
   0  10  15 -149.19   60.09
   1  10  15  147.69   64.19
   2  10  15  109.09   67.29
   3  10  15    0.60   66.79
   3  10  15   22.60    4.60
   4  10  15    2.90   74.19
   4  10  15   24.80    5.30
  -2  11  15   -4.80    4.70
  -1  11  15    9.40    4.70
   0  11  15    9.00    4.60
   1  11  15    3.30    4.60
   2  11  15   27.30    5.20
   3 -10  16    0.00   44.50
  -4  10 -16   -3.50   26.20
   4 -10  16   -6.30   28.40
   0  -9  16  -27.50   43.60
  -1   9 -16   13.30   38.60
   1  -9  16  -71.09   38.60
  -2   9 -16   -1.80   36.20
   2  -9  16   41.10   35.70
  -3   9 -16   17.00    2.30
  -3   9 -16   41.20   48.40
   3  -9  16   18.30   49.80
  -4   9 -16   45.30   27.70
   4  -9  16   -1.80   29.00
   5  -9  16  -17.80   21.90
   3   8 -16    3.40   50.59
  -3  -8  16   62.19   49.20
   2   8 -16  -44.40   44.70
   1   8 -16   70.49   44.10
  -1  -8  16   34.00   39.70
   0   8 -16   22.70   41.40
   0  -8  16   27.00   37.70
  -1   8 -16   72.19   38.50
   1  -8  16   -7.80   36.40
  -2   8 -16   32.10   35.40
   2  -8  16   46.90   34.80
  -3   8 -16    7.50    2.10
  -3   8 -16  -45.70   28.60
   3  -8  16   19.30   31.20
  -4   8 -16   -3.20   25.90
   4  -8  16   31.20   29.60
   5  -8  16  -13.80   23.30
   6   7 -16   33.10   65.79
  -6  -7  16   23.80   65.09
   5   7 -16   -8.10   53.49
  -5  -7  16   13.10   53.59
   4   7 -16   82.99   52.29
  -4  -7  16  148.99   51.99
   3   7 -16  -48.70   46.30
  -3  -7  16  -11.10   44.40
   2   7 -16  102.79   46.60
  -2  -7  16  102.29   41.70
   1   7 -16   27.00   36.70
  -1  -7  16  -28.90   35.10
   0   7 -16   29.80   38.80
   0  -7  16   63.09   38.00
  -1   7 -16   13.90   32.70
   1  -7  16   -8.60   32.60
  -2   7 -16   27.70    2.60
  -2   7 -16   53.79   33.30
   2  -7  16  -23.90   32.10
  -3   7 -16  -32.10   27.50
  -3   7 -16    6.10    2.00
   3  -7  16  -43.60   30.10
  -4   7 -16    1.00   24.50
   4  -7  16   67.29   30.70
   5  -7  16   -2.30   26.50
   6  -7  16    6.10   18.80
   6  -7  16    2.60   22.50
   8   6 -16   86.59   72.59
  -8  -6  16   80.79   77.49
  -7  -6  16   68.29   71.49
   6   6 -16  -32.50   54.49
  -6  -6  16   62.79   54.79
   5   6 -16   90.89   51.29
  -5  -6  16   -5.60   47.50
   4   6 -16  -75.39   44.90
  -4  -6  16  102.19   47.30
   3   6 -16  112.59   43.90
  -3  -6  16  163.58   46.70
   2   6 -16   27.80   38.30
  -2  -6  16   -7.50   38.10
   1   6 -16  127.99   44.10
   0   6 -16  -12.50   32.80
   0  -6  16   50.79   37.20
  -1   6 -16   -3.40   30.40
   1  -6  16    0.70   34.30
  -2   6 -16   54.79    3.30
  -2   6 -16   83.79   31.20
   2  -6  16   68.99   34.00
  -3   6 -16   92.79   29.80
  -3   6 -16   89.29    4.70
   3  -6  16  130.99   34.00
  -4   6 -16   29.10   25.40
   4  -6  16   26.60   30.50
   5  -6  16  111.59   37.80
   5  -6  16   88.29   22.00
   6  -6  16    5.20   20.50
   6  -6  16   57.19   27.90
   7  -6  16   28.50   24.90
   7  -6  16   58.39   21.50
   9   5 -16  -17.00   74.49
  -9  -5  16   -5.50   75.59
   8   5 -16  -20.10   63.89
  -8  -5  16  101.29   63.39
   7   5 -16  108.09   59.29
  -7  -5  16   51.89   82.59
   6   5 -16  -85.89   48.40
  -6  -5  16   16.50   48.90
   5   5 -16  156.58   51.89
  -5  -5  16  164.78   50.29
   4   5 -16  -28.50   40.30
  -4  -5  16   48.60   43.50
   3   5 -16   65.59   41.90
  -3  -5  16   11.50   42.80
   2   5 -16   99.49   38.90
  -2  -5  16   97.19   42.50
   1   5 -16  151.68   37.90
  -1  -5  16   87.09   34.20
   0   5 -16   -0.20   29.10
   0  -5  16    7.40   27.40
  -1   5 -16  182.68   36.10
  -1   5 -16  142.69    6.70
   1  -5  16  142.49   36.40
  -2   5 -16  113.69   32.60
  -2   5 -16  146.19    6.50
   2  -5  16  114.89   34.50
  -3   5 -16  141.79   30.00
  -3   5 -16  151.28    7.20
   3  -5  16  210.18   36.20
  -4   5 -16   60.89   26.00
   4  -5  16   28.40   30.80
   5  -5  16   17.60   30.40
   5  -5  16  -27.90   20.00
   6  -5  16   -5.10   20.70
   7  -5  16   46.70   23.40
   7  -5  16   34.90   30.50
   8  -5  16   14.10   29.00
   9  -5  16   12.70   26.70
  10   4 -16   -2.20   77.59
 -10  -4  16  -30.50   75.69
   9   4 -16 -177.88   64.89
  -9  -4  16   36.80   67.29
   8   4 -16   86.99   60.89
  -8  -4  16   30.30   59.39
   7   4 -16  -53.69   50.39
  -7  -4  16   24.30   53.39
   6   4 -16   91.59   50.39
  -6  -4  16   90.99   51.79
   5   4 -16   -1.00   41.10
  -5  -4  16  -54.59   42.30
   4   4 -16  170.28   44.40
  -4  -4  16   71.09   41.40
   3   4 -16   68.49   38.20
  -3  -4  16  119.69   42.80
   2   4 -16   -9.00   32.20
  -2  -4  16    0.10   33.80
   1   4 -16   21.70   30.50
  -1  -4  16   64.99   34.80
   0   4 -16  290.07   39.00
  -1   4 -16   34.70   28.10
  -1   4 -16   42.10    3.20
   1  -4  16   71.19   31.50
  -2   4 -16  256.17   38.00
   2  -4  16  316.97   41.30
  -3   4 -16  -10.10   24.00
   3  -4  16   53.09   32.10
  -4   4 -16   77.29   27.80
   4  -4  16  152.78   35.60
   5  -4  16   20.60   31.10
   5  -4  16  -25.10   21.50
   6  -4  16   32.10   31.70
   6  -4  16   -3.80   22.00
   7  -4  16   27.20   24.30
   7  -4  16   -8.50   35.00
   8  -4  16    5.60   34.20
   9  -4  16  -39.00   35.30
  10   3 -16  182.88   74.49
 -10  -3  16   22.60   74.49
   9   3 -16   10.10   61.79
  -9  -3  16   45.10   67.39
   8   3 -16  -26.50   56.39
  -8  -3  16   28.10   56.29
   7   3 -16   40.60   50.29
  -7  -3  16  122.69   53.89
   6   3 -16   53.29   44.00
  -6  -3  16   26.90   46.50
   5   3 -16  -32.40   37.00
  -5  -3  16   17.50   43.60
   4   3 -16  100.39   41.90
  -4  -3  16  107.19   42.90
   3   3 -16   59.99   36.50
  -3  -3  16   33.60   37.90
   2   3 -16  341.27   44.80
  -2  -3  16  352.76   47.20
   1   3 -16    9.00   28.20
  -1  -3  16   62.39   34.70
   0   3 -16  280.87   38.20
   0  -3  16  221.78   38.00
  -1   3 -16   21.70   23.50
  -1   3 -16    6.40    2.40
  -2   3 -16  127.59    5.90
  -2   3 -16   90.89   28.00
   2  -3  16   68.79   32.30
  -3   3 -16   61.49   26.30
   3  -3  16   58.19   32.00
   4  -3  16  108.19   34.30
   5  -3  16   64.39   21.60
   5  -3  16   62.89   34.00
   6  -3  16  141.59   36.80
   6  -3  16  115.59   24.90
   7  -3  16  -35.60   24.40
   7  -3  16   37.40   35.70
   8  -3  16   34.90   37.40
   9  -3  16  -46.20   39.50
  10   2 -16  -17.60   65.59
 -10  -2  16   54.79   71.39
   9   2 -16   66.99   56.59
  -9  -2  16  -53.39   58.49
   8   2 -16   45.20   52.09
  -8  -2  16   28.90   53.59
   7   2 -16  -26.70   43.70
  -7  -2  16  -49.00   50.29
   6   2 -16  -60.99   39.80
  -6  -2  16  -15.70   45.50
   5   2 -16  -68.09   35.60
  -5  -2  16   13.10   41.10
   4   2 -16   98.99   37.90
  -4  -2  16  108.49   40.50
   3   2 -16  276.97   42.10
  -3  -2  16  212.88   42.60
   2   2 -16    1.60   29.10
  -2  -2  16   -5.70   32.10
   1   2 -16  226.08   38.30
  -1  -2  16  236.68   43.30
   0   2 -16  180.28    7.90
   0   2 -16  200.78   34.70
   0  -2  16  184.08   37.50
  -1   2 -16  298.67   44.00
  -1   2 -16  316.27   12.70
   1  -2  16  237.88   38.10
  -2   2 -16  282.37   36.90
  -3   2 -16   50.99   26.40
   3  -2  16   49.20   30.80
   4  -2  16   42.20   20.40
   4  -2  16   11.50   30.70
   5  -2  16  244.78   39.70
   5  -2  16  174.68   26.70
   6  -2  16   58.39   34.10
   6  -2  16   92.49   25.60
   7  -2  16  218.88   40.80
   7  -2  16  187.78   32.80
   8  -2  16    9.10    2.70
   8  -2  16  -18.10   36.90
   9  -2  16   -0.60    2.80
  10  -2  16    8.30    3.10
  10   1 -16  -53.39   63.69
 -10  -1  16  -37.60   69.39
   9   1 -16  -40.00   53.99
  -9  -1  16   58.59   61.49
   8   1 -16    7.20   49.00
  -8  -1  16    1.80   54.49
   7   1 -16    1.40   41.80
  -7  -1  16   60.59   48.40
   6   1 -16    8.90   38.00
  -6  -1  16   37.20   60.99
   5   1 -16   54.79   37.00
  -5  -1  16  102.39   42.60
   4   1 -16  -61.79   29.20
  -4  -1  16   43.40   37.80
   3   1 -16   75.89   31.30
  -3  -1  16   10.30   34.90
   2   1 -16   63.19   31.00
  -2  -1  16   26.30   33.20
   1   1 -16   27.80    2.40
   1   1 -16   -1.80   25.60
  -1  -1  16   46.40   31.90
   0   1 -16   21.50    2.20
   0   1 -16    1.70   26.00
   0  -1  16   31.40   31.20
  -1   1 -16  624.34   51.29
  -1   1 -16  540.35   22.30
   1  -1  16  499.65   55.59
  -2   1 -16   10.30   36.00
   2  -1  16   57.19   28.60
   4  -1  16   34.10   30.50
   4  -1  16   -8.00   21.20
   5  -1  16    3.90   32.60
   5  -1  16   45.10   22.80
   5  -1  16   39.90    2.90
   6  -1  16    8.60   32.90
   6  -1  16   12.70    2.60
   6  -1  16   22.90   23.60
   7  -1  16   52.99    3.50
   7  -1  16   65.09   29.50
   7  -1  16   54.79   35.40
   8  -1  16   60.89   37.80
   8  -1  16   82.39    4.50
   9  -1  16    4.60    2.90
  10  -1  16   36.70    4.20
  10   0 -16   70.79   61.79
 -10   0  16   37.30   65.89
   9   0 -16  104.29   52.99
  -9   0  16 -114.69   60.09
   8   0 -16  -15.50   45.80
  -8   0  16  -52.59   51.19
   7   0 -16   78.29   46.10
  -7   0  16  136.39   49.99
   6   0 -16  139.69   43.70
  -6   0  16  196.28   48.30
   5   0 -16  121.49   38.90
  -5   0  16   94.29   43.40
   4   0 -16   89.69   35.70
  -4   0  16  127.29   41.50
   3   0 -16   22.50   29.20
  -3   0  16   25.10   34.80
   2   0 -16    5.20    2.10
   2   0 -16  -28.30   26.20
  -2   0  16  -12.60   31.10
   1   0 -16   55.89   28.50
  -1   0  16   61.09   33.60
   0   0 -16  361.06   41.80
   0   0 -16  332.77   14.10
   0   0  16  410.56   52.69
  -1   0 -16   58.79    3.30
  -1   0 -16   45.90   26.30
   1   0  16   50.29   33.70
  -2   0 -16  746.73   54.69
   2   0  16  650.03   57.79
   3   0  16   -6.60   25.50
   3   0  16   -1.70   19.90
   4   0  16  493.15   20.30
   4   0  16  506.55   42.70
   5   0  16   21.60    2.60
   5   0  16   19.80   23.30
   5   0  16   52.29   32.10
   6   0  16   87.69    4.50
   6   0  16   34.70   34.40
   6   0  16   99.59   28.30
   7   0  16  -57.39   28.80
   7   0  16  -23.40   35.60
   7   0  16    7.10    2.60
   8   0  16   25.80    3.00
   8   0  16    2.00   40.90
   9   0  16   25.10    3.30
  10   0  16    9.70    3.40
   9  -1 -16  -34.30   52.29
  -9   1  16  -65.79   61.59
   8  -1 -16  -32.80   45.30
  -8   1  16   23.00   50.39
   7  -1 -16    8.00   40.00
  -7   1  16   36.30   47.70
   6  -1 -16   28.70   37.30
  -6   1  16  -35.90   43.20
   5  -1 -16   69.99   38.80
   4  -1 -16   65.59    3.80
   4  -1 -16  139.79   36.40
  -4   1  16   18.60   38.50
   3  -1 -16   55.09    3.30
   3  -1 -16   57.69   31.10
  -3   1  16   54.79   36.50
   2  -1 -16  658.43   56.89
   2  -1 -16  636.54   25.60
  -2   1  16  563.04   58.69
   1  -1 -16   25.90   28.20
   1  -1 -16   14.90    2.10
  -1   1  16   50.99   34.00
   0  -1 -16  480.35   46.30
   0  -1 -16  472.95   19.10
   0   1  16  403.76   52.19
  -1  -1 -16  144.99   31.60
   1   1  16  100.99   35.40
   2   1  16   34.40   31.60
   3   1  16  162.48    7.10
   3   1  16  126.39   26.10
   3   1  16  145.69   36.80
   4   1  16   66.19   32.40
   4   1  16   55.29    3.40
   4   1  16   64.19   24.70
   5   1  16  117.79    5.80
   5   1  16   95.79   27.60
   5   1  16   96.39   30.40
   6   1  16   57.79   30.30
   6   1  16   62.49    3.70
   7   1  16  -39.80   31.10
   7   1  16   20.20   34.90
   7   1  16   12.90    2.80
   8   1  16  112.19   63.39
   9   1  16    3.20    3.30
  10   1  16    0.80    3.60
   9  -2 -16   52.39   51.49
  -9   2  16   60.59   63.09
   8  -2 -16   52.29   45.00
  -8   2  16   14.30   53.69
   7  -2 -16  -21.40   39.40
  -7   2  16 -102.39   45.10
   6  -2 -16  -14.60   35.30
  -6   2  16   40.60   44.10
   5  -2 -16  -43.90   32.20
   5  -2 -16    9.70    2.60
  -5   2  16  -23.90   41.20
   4  -2 -16   38.00   31.60
   4  -2 -16   -5.20    2.30
  -4   2  16  -18.70   38.50
   3  -2 -16  358.76   15.80
   3  -2 -16  466.95   52.79
  -3   2  16  520.85   60.09
   2  -2 -16   87.99    4.50
   2  -2 -16   45.60   28.20
  -2   2  16   49.40   37.30
   1  -2 -16  245.98   35.80
   1  -2 -16  137.49    6.60
  -1   2  16  128.69   38.60
   0  -2 -16   41.80   27.70
   0   2  16   66.59   34.80
  -1  -2 -16  183.58   35.80
   1   2  16  229.48   40.70
   2   2  16    2.30   30.20
   2   2  16   15.10    3.10
   2   2  16   10.90   23.00
   3   2  16   66.59    3.60
   3   2  16   63.79   34.60
   3   2  16   24.00   24.50
   4   2  16  -38.80   31.90
   4   2  16   11.30   25.00
   4   2  16   14.50    2.50
   5   2  16  179.18   38.30
   5   2  16  146.89   32.50
   5   2  16  128.69    6.50
   6   2  16   -5.20    2.70
   6   2  16   12.40   34.30
   6   2  16  -10.00   31.60
   7   2  16  155.18   64.59
   7   2  16  108.79   39.00
   7   2  16  110.89    6.30
   8   2  16    3.10    3.20
   9   2  16   18.90    4.10
   9  -3 -16   25.90   51.89
  -9   3  16   49.60   60.79
   8  -3 -16   17.90   44.20
  -8   3  16   61.69   55.59
   7  -3 -16  -32.80   36.90
   7  -3 -16   11.10    3.00
  -7   3  16   20.80   49.00
   6  -3 -16  -30.60   35.40
   6  -3 -16   15.90    2.90
  -6   3  16   50.29   46.40
   5  -3 -16   90.99   36.50
   5  -3 -16  146.29    6.80
  -5   3  16  140.19   45.90
   4  -3 -16   55.49   32.60
   4  -3 -16   29.10    2.80
  -4   3  16   10.70   38.70
   3  -3 -16   65.59   30.90
  -3   3  16   31.90   38.00
   2  -3 -16   38.90    2.80
   2  -3 -16   45.40   29.60
  -2   3  16  -39.00   34.30
   1  -3 -16   49.60   29.90
  -1   3  16  130.29   39.80
   0  -3 -16  149.59   34.00
   0   3  16   95.29   37.00
   1   3  16  529.65   59.59
   1   3  16  459.65   20.20
   1   3  16  519.25   43.30
   2   3  16  274.07   11.40
   2   3  16  221.28   45.80
   2   3  16  258.47   39.70
   3   3  16   25.90   26.30
   3   3  16   31.90   34.40
   3   3  16   49.20    3.30
   4   3  16  106.49    5.70
   4   3  16   66.79   30.40
   4   3  16  201.08   40.60
   5   3  16   40.80   29.40
   5   3  16   54.89   37.90
   5   3  16   65.79    3.90
   6   3  16   66.79   33.50
   6   3  16   30.50   39.80
   6   3  16   64.19    4.00
   7   3  16  -10.30   42.40
   7   3  16    4.50    3.20
   7   3  16  -40.20   35.50
  10  -4 -16   18.20    4.10
   9  -4 -16   34.80    6.50
   8  -4 -16   16.90    3.60
   8  -4 -16  -27.50   44.70
  -8   4  16  -58.49   54.39
   7  -4 -16   -6.70    3.00
   7  -4 -16   11.10   40.20
  -7   4  16    8.00   54.89
   6  -4 -16   56.39   38.20
   6  -4 -16  117.49    6.10
  -6   4  16  186.48   51.49
   5  -4 -16  135.59   36.40
   5  -4 -16   79.99    4.50
  -5   4  16   45.00   44.50
   4  -4 -16   33.90    3.00
   4  -4 -16   39.70   33.40
  -4   4  16   19.80   42.10
   3  -4 -16    6.00    2.50
   3  -4 -16   -3.20   29.90
  -3   4  16    8.80   38.10
   2  -4 -16  -22.80   30.80
  -2   4  16   18.30   37.50
   1  -4 -16   34.90   29.80
  -1   4  16   11.70   36.00
   0   4  16   54.39   37.00
   0   4  16   20.90    2.90
   1   4  16   30.50   24.20
   1   4  16   15.50   37.40
   1   4  16   11.40    2.90
   2   4  16  653.83   27.60
   2   4  16  791.72   69.69
   3   4  16  114.49   30.50
   3   4  16  143.39   40.70
   3   4  16  175.08    7.70
   4   4  16  272.37   40.10
   4   4  16  224.88   45.40
   4   4  16  266.27   11.40
   5   4  16    4.50    2.90
   5   4  16   15.10   33.90
   5   4  16    2.30   40.10
   6   4  16  -80.59   33.20
   6   4  16   10.80    3.20
   6   4  16    4.40   41.70
   7   4  16   80.99   41.50
  10  -5 -16    7.20    5.00
   9  -5 -16   36.70    4.60
   8  -5 -16  119.49   53.19
   8  -5 -16   41.70    4.00
  -8   5  16   66.39   65.19
   7  -5 -16  -34.70   40.70
   7  -5 -16   23.40    3.30
  -7   5  16   22.10   55.69
   6  -5 -16    2.50   37.20
   6  -5 -16   10.00    3.00
  -6   5  16   52.09   50.19
   5  -5 -16   36.00    3.20
   5  -5 -16  -19.40   34.30
  -5   5  16   46.10   46.30
   4  -5 -16   69.09   35.20
   4  -5 -16   73.79    4.40
  -4   5  16  136.69   48.80
   3  -5 -16   31.80   33.50
  -3   5  16   56.69   43.50
   2  -5 -16   91.29   35.40
  -2   5  16   52.59   42.40
  -1   5  16   -1.40   25.10
   0   5  16   13.00    5.20
   0   5  16    6.60   25.70
   0   5  16  -38.70   37.20
   1   5  16  191.68    8.70
   1   5  16  187.88   45.90
   1   5  16  176.78   33.20
   2   5  16  104.79    5.80
   2   5  16  119.29   42.70
   2   5  16  100.89   35.30
   3   5  16  239.98   46.30
   3   5  16  161.08    8.20
   3   5  16  242.38   38.30
   4   5  16   48.20    3.80
   4   5  16  137.59   43.30
   4   5  16   67.69   35.90
   5   5  16   60.29   36.90
   5   5  16   48.00   45.80
   6   5  16  -61.39   45.80
   6   5  16  -38.00   39.30
   6   5  16    4.10    3.60
   7   5  16   23.80   48.10
   9  -6 -16   84.89    5.40
   8  -6 -16   55.99    4.50
   7  -6 -16   61.29   43.90
   7  -6 -16   20.20    3.60
  -7   6  16   13.30   53.49
   6  -6 -16   46.00   41.00
   6  -6 -16   13.40    3.30
  -6   6  16   31.90   54.29
   5  -6 -16   42.00   37.20
  -5   6  16   44.60   52.19
   4  -6 -16   58.29   37.50
  -4   6  16   42.40   50.39
  -3   6  16   40.90   46.30
  -2   6  16   28.80   28.80
  -2   6  16    1.30   42.30
  -1   6  16  139.59   46.40
  -1   6  16  165.48   33.40
   0   6  16   30.90   29.70
   0   6  16   -6.20   40.90
   0   6  16   26.00    3.30
   1   6  16   57.19    3.90
   1   6  16   72.79   69.09
   1   6  16   43.90   29.10
   2   6  16   29.30   32.00
   2   6  16   24.50    3.20
   2   6  16   67.49   43.00
   3   6  16   -4.70   34.60
   3   6  16    6.00    3.10
   3   6  16   46.40   43.40
   4   6  16   66.09   46.90
   4   6  16   21.20   36.10
   4   6  16   78.39    4.60
   5   6  16   21.90    3.60
   5   6  16  -31.80   48.80
   5   6  16  -40.80   39.80
   6   6  16  -91.59   41.10
   6   6  16   70.19   63.99
   7   6  16   58.89   54.29
   9  -7 -16   17.80    4.50
   8  -7 -16    2.90    4.20
   6  -7 -16   44.40   45.20
  -6   7  16   66.59   56.29
  -5   7  16   61.49   57.79
  -4   7  16   28.10   54.89
  -3   7  16   79.29   51.89
  -3   7  16  -27.90   32.20
  -2   7  16   67.79   31.90
  -2   7  16   93.89   49.80
  -1   7  16   10.00   46.50
  -1   7  16  -21.10   31.70
  -1   7  16    9.50    3.40
   0   7  16  -48.00   43.50
   0   7  16   43.30    3.70
   0   7  16   18.50   32.70
   1   7  16   46.90    3.90
   1   7  16   57.99   34.10
   1   7  16   -4.20   47.40
   2   7  16   18.70    3.30
   2   7  16  -12.60   34.40
   2   7  16   78.59   46.80
   3   7  16   21.40   38.40
   3   7  16    3.60    3.40
   3   7  16  102.19   49.00
   4   7  16    9.00    3.60
   4   7  16  -45.10   38.40
   5   7  16   49.90   56.29
   5   7  16  -33.60   44.10
   5   7  16    1.90    4.00
   6   7  16   45.90   52.09
   7   7  16  -65.79   61.99
  -5   8  16    6.40   59.39
  -4   8  16   41.10   59.39
  -3   8  16   -9.70   60.89
  -3   8  16   39.30   35.90
  -2   8  16   31.00   53.49
  -2   8  16   61.69   36.40
  -1   8  16   21.30   51.09
  -1   8  16  -47.10   32.80
  -1   8  16    1.20    3.60
   0   8  16  -29.20   50.89
   0   8  16   -7.00    3.40
   0   8  16   69.39   40.00
   1   8  16   79.99   55.79
   1   8  16   79.29   40.70
   2   8  16    2.80    3.50
   2   8  16   41.90   51.69
   2   8  16    8.70   40.20
   3   8  16   14.80    3.80
   3   8  16   29.60   42.90
   3   8  16   32.70   55.69
   4   8  16  212.88   62.19
   4   8  16  105.09    6.30
   4   8  16  134.09   49.20
   5   8  16   -1.50   77.49
   5   8  16    8.10    4.50
   5   8  16  -74.39   48.50
   6   8  16   95.99   59.09
  -3   9  16 -104.39   56.89
  -2   9  16   79.59   60.79
  -1   9  16   15.10    4.00
  -1   9  16  -56.09   57.69
   0   9  16   -8.20    3.80
   0   9  16   -1.60   57.89
   1   9  16   35.70   56.19
   1   9  16   22.40    4.10
   1   9  16   98.29   59.49
   2   9  16    6.00    4.10
   2   9  16   42.60   60.79
   2   9  16   45.20   58.29
   3   9  16   95.89    6.00
   3   9  16  142.79   68.39
   4   9  16  -72.99   64.49
   4   9  16   -3.30    4.50
   5   9  16   30.50    5.30
  -1  10  16  -76.99  102.99
  -1  10  16   27.80    4.70
   0  10  16   15.70    4.40
   0  10  16   10.70   66.69
   1  10  16   35.80    4.70
   1  10  16    3.60   71.09
   2  10  16   -7.10   71.49
   2  10  16  -17.10    4.40
   3  10  16   -0.20    4.70
   3  10  16   37.00   75.39
  -1  11  16   13.90    5.00
   0  11  16   46.20    5.30
  -3  10 -17    7.50    2.40
  -2   9 -17   15.80    2.80
   2  -9  17  -22.00   49.90
  -3   9 -17   13.10    2.40
   3  -9  17   15.50   44.80
  -4   9 -17  -26.30   28.30
   4  -9  17   35.00   32.00
   5  -9  17   12.90   26.10
   1   8 -17   41.60   41.50
  -1  -8  17  149.29   52.09
   0   8 -17   15.70   42.10
   0  -8  17   96.89   44.20
  -1   8 -17  -72.49   34.80
   1  -8  17    8.50   39.90
  -2   8 -17   31.40   35.10
  -2   8 -17   45.70    3.20
   2  -8  17   52.59   38.10
  -3   8 -17   24.10    2.40
  -3   8 -17  -25.30   31.20
   3  -8  17   10.90   33.60
  -4   8 -17   10.80   28.70
   4  -8  17   23.80   33.10
   5  -8  17   22.40   28.00
   6  -8  17   -4.10   19.60
  -5  -7  17   14.20   68.59
   4   7 -17   -5.30   50.79
  -4  -7  17  100.39   55.69
   3   7 -17   44.30   52.39
  -3  -7  17  -30.10   48.00
   2   7 -17  101.09   47.20
  -2  -7  17   67.39   45.80
   1   7 -17  -49.70   37.90
  -1  -7  17   17.20   37.90
   0   7 -17   21.20   40.50
   0  -7  17   16.40   40.40
  -1   7 -17   50.69   38.50
   1  -7  17  -12.40   38.30
  -2   7 -17   70.49   33.70
   2  -7  17   34.90   36.70
  -3   7 -17   57.69   31.50
   3  -7  17   27.70   35.10
  -4   7 -17  115.29   30.20
   4  -7  17   75.29   34.50
   5  -7  17    4.20   31.10
   6  -7  17    4.70   26.80
   7  -7  17  -15.00   17.30
   7   6 -17  -29.10   75.79
   6   6 -17   55.09   59.19
  -6  -6  17    2.20   55.19
   5   6 -17    8.30   51.09
  -5  -6  17   60.19   52.49
   4   6 -17  106.79   51.39
  -4  -6  17  -27.50   48.70
   3   6 -17  110.49   48.90
  -3  -6  17  154.48   48.60
   2   6 -17   54.49   44.60
  -2  -6  17   16.30   41.10
   1   6 -17   54.09   39.50
   0   6 -17   53.99   39.40
   0  -6  17   37.80   42.20
  -1   6 -17    9.30   34.50
   1  -6  17   24.20   38.80
  -2   6 -17   30.50   30.50
  -2   6 -17    1.10    2.30
   2  -6  17    2.10   33.60
  -3   6 -17   13.60   28.00
  -3   6 -17    4.00    2.10
   3  -6  17   36.70   35.50
  -4   6 -17   -4.10   27.30
   4  -6  17   27.50   33.40
   5  -6  17   24.70   22.30
   5  -6  17   85.89   50.69
   6  -6  17   35.50   31.80
   7  -6  17   51.79   29.30
   8  -6  17  -52.19   22.70
   9   5 -17  -14.30   90.59
  -9  -5  17   -9.70   95.19
   8   5 -17   23.90   68.19
  -8  -5  17  111.59   68.09
   7   5 -17   -3.10   58.69
  -7  -5  17   50.59   58.29
   6   5 -17   -2.90   54.09
  -6  -5  17   70.69   54.79
   5   5 -17   54.99   48.60
  -5  -5  17   67.69   50.59
   4   5 -17    9.50   44.70
  -4  -5  17   11.50   45.60
   3   5 -17   98.09   42.10
  -3  -5  17  -19.00   43.50
   2   5 -17  -11.10   39.60
  -2  -5  17  -38.70   39.80
   1   5 -17   94.99   38.30
  -1  -5  17  166.38   39.80
   0   5 -17   18.70   31.70
   0  -5  17  -27.80   32.10
  -1   5 -17  317.87   42.10
  -1   5 -17  343.07   14.30
   1  -5  17  368.36   49.60
  -2   5 -17   60.29   32.80
  -2   5 -17   13.80    2.30
   2  -5  17  -29.80   32.20
  -3   5 -17   92.59   29.70
  -3   5 -17  129.29    6.00
   3  -5  17  125.39   35.80
  -4   5 -17  -15.10   25.80
   4  -5  17  -15.90   32.30
   5  -5  17    7.80   22.50
   5  -5  17   22.50   34.00
   6  -5  17  -50.99   21.90
   7  -5  17   84.19   35.10
   8  -5  17  -76.39   32.90
   9  -5  17  -60.79   30.80
   9   4 -17  -61.69   67.99
  -9  -4  17  126.99   72.79
   8   4 -17  -19.60   62.29
  -8  -4  17   41.10   63.19
   7   4 -17   -7.90   55.69
  -7  -4  17  -13.20   53.69
   6   4 -17   11.80   50.69
  -6  -4  17   -0.90   52.29
   5   4 -17   32.20   45.90
  -5  -4  17  -15.80   47.70
   4   4 -17   72.69   42.60
  -4  -4  17  -21.00   43.60
   3   4 -17  122.79   42.70
  -3  -4  17  163.08   46.00
   2   4 -17  110.89   39.30
  -2  -4  17   93.39   41.80
   1   4 -17  259.27   42.40
  -1  -4  17  286.57   45.90
   0   4 -17   77.89   33.10
  -1   4 -17   11.00    2.30
  -1   4 -17   14.80   30.10
   1  -4  17  -50.39   31.20
  -2   4 -17  847.92   34.10
  -2   4 -17  865.01   62.69
   2  -4  17  786.12   68.19
  -3   4 -17   25.80   26.80
   3  -4  17   -7.70   33.70
  -4   4 -17  112.99   31.20
   4  -4  17  141.59   37.10
   5  -4  17   -7.20   33.30
   5  -4  17   -1.60   22.40
   6  -4  17   -2.20   34.90
   6  -4  17  -10.00   22.80
   7  -4  17   70.89   49.10
   8  -4  17   86.19   39.80
   9  -4  17  -62.49   51.29
  10   3 -17  116.89   78.59
 -10  -3  17   30.70   79.79
   9   3 -17   -0.40   64.89
  -9  -3  17   49.00   73.19
   8   3 -17   65.09   57.39
  -8  -3  17   12.10   57.99
   7   3 -17  126.69   55.09
  -7  -3  17  -29.30   53.39
   6   3 -17    8.90   44.90
  -6  -3  17   90.79   51.69
   5   3 -17  -27.70   40.80
  -5  -3  17   92.69   48.60
   4   3 -17  192.18   45.00
  -4  -3  17  197.68   48.10
   3   3 -17   59.19   36.00
  -3  -3  17    1.70   40.70
   2   3 -17  387.66   49.30
  -2  -3  17  436.76   55.19
   1   3 -17   26.90   30.70
  -1  -3  17   64.99   36.40
   0   3 -17  200.78   37.50
   0   3 -17  192.18    8.40
   0  -3  17  153.08   39.30
  -1   3 -17    4.50    2.20
  -2   3 -17   22.70   27.30
  -2   3 -17   24.80    2.50
   2  -3  17   55.99   34.70
  -3   3 -17   47.30   27.00
   3  -3  17   25.30   32.50
   4  -3  17  170.48   40.00
   5  -3  17   57.39   35.60
   5  -3  17   18.20   22.90
   6  -3  17  167.88   41.00
   6  -3  17  178.28   29.70
   7  -3  17   -4.80   39.00
   7  -3  17  -36.60   28.60
   8  -3  17   55.99   42.80
  10   2 -17  160.28   77.29
 -10  -2  17  -61.09   73.69
   9   2 -17   91.99   63.49
  -9  -2  17   71.39   69.79
   8   2 -17  -35.80   53.19
  -8  -2  17   11.90   59.69
   7   2 -17   22.40   49.00
  -7  -2  17  -24.00   51.79
   6   2 -17  -18.10   78.49
  -6  -2  17  -29.00   61.09
   5   2 -17  184.08   44.40
  -5  -2  17  124.99   48.40
   4   2 -17  -16.00   34.00
  -4  -2  17   92.69   45.20
   3   2 -17  286.47   44.80
  -3  -2  17  240.38   47.90
   2   2 -17  -24.00   28.90
  -2  -2  17   16.80   37.30
   1   2 -17  376.46   45.40
   1   2 -17  397.76   16.40
  -1  -2  17  411.96   52.89
   0   2 -17   -5.80   27.50
   0   2 -17    6.30    2.20
   0  -2  17   -8.80   32.40
  -1   2 -17  537.65   51.29
  -1   2 -17  649.93   25.20
   1  -2  17  575.54   57.59
  -2   2 -17    9.40   26.50
  -2   2 -17   12.30    2.30
  -3   2 -17  331.77   41.00
   3  -2  17  281.47   44.40
   4  -2  17   13.90   21.30
   4  -2  17   65.69   36.90
   5  -2  17  169.58   43.00
   5  -2  17  160.78   28.10
   6  -2  17   35.30   26.50
   6  -2  17   -5.00   36.00
   7  -2  17   75.09   39.60
   7  -2  17   58.79   30.80
   8  -2  17   43.90   44.00
   9  -2  17    5.10    3.00
  10  -2  17    5.60    3.30
  10   1 -17  -47.00   67.99
 -10  -1  17   23.30   72.19
   9   1 -17  -57.59   57.99
  -9  -1  17   74.29   63.09
   8   1 -17  114.79   54.49
  -8  -1  17  171.28   61.89
   7   1 -17   69.59   48.30
  -7  -1  17    7.00   51.89
   6   1 -17   35.10   41.40
  -6  -1  17  -14.30   48.20
   5   1 -17   93.79   40.60
  -5  -1  17  130.19   47.10
   4   1 -17   58.59   36.50
  -4  -1  17   26.00   42.10
   3   1 -17   61.29   34.80
  -3  -1  17   31.90   41.20
   2   1 -17   18.00    2.50
   2   1 -17   -3.30   29.90
  -2  -1  17   41.90   37.00
   1   1 -17   87.89   32.70
   1   1 -17   68.89    4.10
  -1  -1  17   96.89   38.10
   0   1 -17   68.09    3.80
   0   1 -17  164.48   34.80
   0  -1  17   78.19   36.40
  -1   1 -17  722.63   57.39
  -1   1 -17  634.74   26.40
   1  -1  17  635.44   63.19
  -2   1 -17   31.90   26.10
   2  -1  17   76.79   34.10
   4  -1  17   88.39   34.90
   4  -1  17   47.70   23.90
   5  -1  17   35.00   35.20
   5  -1  17    5.10   23.00
   6  -1  17  116.29   38.60
   6  -1  17   95.49   28.70
   6  -1  17   93.69    5.40
   7  -1  17   26.50   30.40
   7  -1  17  -75.69   36.90
   7  -1  17    1.90    2.70
   8  -1  17   38.30    3.40
   9  -1  17   58.09    4.20
  10  -1  17   18.80    3.60
   9   0 -17   39.60   54.59
  -9   0  17 -137.59   61.59
   8   0 -17  -33.20   48.50
  -8   0  17   87.79   61.39
   7   0 -17   62.59   46.50
  -7   0  17   -6.90   50.49
   6   0 -17   16.70   41.10
  -6   0  17  100.69   51.29
   5   0 -17   95.79   47.40
  -5   0  17   57.99   45.00
   4   0 -17   47.80   35.60
  -4   0  17   16.10   39.90
   3   0 -17   23.70   31.70
  -3   0  17   48.90   41.70
   2   0 -17   31.90    4.40
   2   0 -17   45.60   31.50
  -2   0  17   20.40   35.70
   1   0 -17  -31.50   28.00
  -1   0  17    8.90   34.80
   0   0 -17  295.87   13.00
   0   0 -17  351.36   44.40
   0   0  17  356.16   48.20
  -1   0 -17  361.66   14.50
  -1   0 -17  310.37   41.20
   1   0  17  303.87   46.40
  -2   0 -17 1586.54   90.39
   2   0  17 1656.33   96.99
   3   0  17   -5.90   22.70
   3   0  17   69.89   32.80
   4   0  17   81.39   25.80
   5   0  17   56.19   31.90
   5   0  17  -52.99   24.50
   5   0  17    4.20    2.60
   6   0  17   29.20   30.20
   6   0  17   13.60   37.00
   7   0  17  -46.30   31.50
   7   0  17   12.00    2.90
   7   0  17   16.40   38.70
   8   0  17   34.70    3.50
   9   0  17    3.10    3.40
  10   0  17   58.49    4.40
   9  -1 -17  -50.09   53.89
  -9   1  17   23.80   67.29
   8  -1 -17  115.19   50.69
  -8   1  17   54.69   56.39
   7  -1 -17   77.99   43.80
  -7   1  17   44.70   52.79
   6  -1 -17   -4.00   39.80
  -6   1  17    6.90   48.90
   5  -1 -17   72.59   38.80
  -5   1  17   56.79   44.10
   4  -1 -17  138.89    7.30
   4  -1 -17   96.09   38.20
  -4   1  17  229.68   48.10
   3  -1 -17   53.29   31.90
  -3   1  17   71.69   40.90
   2  -1 -17  193.98   38.80
  -2   1  17  111.59   40.40
   1  -1 -17   50.89   30.50
  -1   1  17   72.19   38.00
   0  -1 -17  644.14   56.99
   0  -1 -17  617.74   25.40
   0   1  17  592.04   64.19
  -1  -1 -17   77.79   30.00
   1   1  17   31.40   34.50
   2   1  17  180.28   40.10
   3   1  17  301.97   12.70
   3   1  17  328.87   40.20
   3   1  17  250.87   44.70
   4   1  17  267.27   35.20
   4   1  17  325.67   45.80
   4   1  17  275.57   11.90
   5   1  17   30.40   27.90
   5   1  17  -16.30   31.90
   5   1  17   54.69    3.50
   6   1  17  231.18   10.30
   6   1  17  236.48   38.80
   7   1  17   14.60   34.60
   7   1  17   -2.50    2.90
   7   1  17  -23.80   40.20
   8   1  17   10.80    3.20
   9   1  17    1.70    3.50
   9  -2 -17   58.09   59.49
  -9   2  17   50.99   65.69
   8  -2 -17 -101.79   45.30
  -8   2  17 -129.39   54.29
   7  -2 -17   47.80   44.90
  -7   2  17  -25.00   50.59
   6  -2 -17   94.19   42.30
   6  -2 -17   32.10    3.40
  -6   2  17   38.00   47.40
   5  -2 -17   15.00   34.40
   5  -2 -17    8.50    3.30
  -5   2  17   44.40   44.50
   4  -2 -17    6.30   37.40
   3  -2 -17  234.78   41.60
   3  -2 -17  219.38   11.50
  -3   2  17  326.27   51.99
   2  -2 -17   63.69   30.90
  -2   2  17   55.09   40.10
   1  -2 -17  537.75   55.49
  -1   2  17  570.54   65.99
   0  -2 -17   46.60   30.40
   0   2  17  121.29   39.90
  -1  -2 -17   77.99   33.00
   1   2  17   75.09   38.20
   2   2  17  168.38   40.40
   2   2  17  171.48   31.60
   2   2  17  228.88    9.50
   3   2  17  -25.50   25.20
   3   2  17   20.10    2.70
   3   2  17   79.39   37.10
   4   2  17   36.40    3.20
   4   2  17   37.40   36.10
   4   2  17   36.90   29.00
   5   2  17  261.87   11.60
   5   2  17  347.67   50.59
   5   2  17  257.67   38.60
   6   2  17   25.10   36.20
   6   2  17   17.40    3.00
   6   2  17   27.00   33.70
   7   2  17  -16.70   39.30
   7   2  17  107.59   47.60
   7   2  17  114.09    5.50
   8   2  17    1.90    3.40
   9   2  17   15.10    3.80
   8  -3 -17  -33.60   47.20
   8  -3 -17    2.20    3.40
  -8   3  17   47.20   60.49
   7  -3 -17   90.79   46.10
  -7   3  17   87.59   54.49
   6  -3 -17   34.70    3.50
   6  -3 -17   12.30   39.70
  -6   3  17    4.80   50.89
   5  -3 -17    7.00   38.20
  -5   3  17   70.09   47.70
   4  -3 -17   63.89    5.50
   4  -3 -17   41.30   34.60
  -4   3  17   27.20   43.90
   3  -3 -17   51.39    5.30
  -3   3  17   50.19   45.50
   2  -3 -17  132.49   34.90
  -2   3  17  118.59   45.50
   1  -3 -17  164.08   36.10
  -1   3  17  191.78   45.70
   0  -3 -17   64.49   33.20
   0   3  17   70.19   39.20
   1   3  17   -6.00   28.10
   1   3  17   47.20   39.20
   2   3  17    7.60    2.70
   2   3  17   22.70   37.30
   2   3  17   39.50   27.20
   3   3  17  510.85   20.90
   3   3  17  486.25   62.79
   4   3  17  -16.10   35.80
   4   3  17   12.20    2.80
   4   3  17   13.80   29.70
   5   3  17    7.60    2.80
   5   3  17   13.30   30.90
   5   3  17   25.70   40.90
   6   3  17   77.19    4.60
   6   3  17   49.00   35.70
   6   3  17   85.19   43.10
   7   3  17   13.80    3.40
   7   3  17   21.90   40.70
   8   3  17   43.90    4.20
   9   3  17   17.70    5.50
  10  -4 -17   -5.20    4.20
   9  -4 -17    3.80    3.80
   8  -4 -17  104.79   49.30
  -8   4  17  117.19   62.39
   7  -4 -17  -19.30   43.90
   7  -4 -17   49.50    4.00
  -7   4  17   42.60   59.39
   6  -4 -17   62.09    6.40
   6  -4 -17  108.99   42.20
  -6   4  17   31.20   51.39
   5  -4 -17   90.29   39.80
  -5   4  17  -53.09   46.90
   4  -4 -17  109.99   40.80
  -4   4  17  111.69   48.00
   3  -4 -17   50.79   34.40
  -3   4  17   83.69   46.30
   2  -4 -17    8.80   38.80
  -2   4  17  100.39   71.79
   1  -4 -17   61.49   34.10
  -1   4  17    6.10   39.60
   0   4  17  200.88   46.50
   1   4  17   64.79   28.80
   1   4  17  117.29   43.50
   2   4  17   70.89   30.60
   2   4  17  134.29   44.50
   2   4  17  132.79    6.50
   3   4  17  -13.40   28.40
   3   4  17   13.60   40.30
   3   4  17   -5.40    2.80
   4   4  17  250.37   41.70
   4   4  17  192.68   48.80
   4   4  17  258.97   11.10
   5   4  17   -1.10   34.80
   5   4  17  -10.10    3.00
   5   4  17   23.50   41.60
   6   4  17   51.39   45.10
   6   4  17   -9.50   38.80
   6   4  17    6.20    3.30
   7   4  17   -1.50   42.80
   7   4  17   -2.40    3.60
   8   4  17   42.60    4.50
   9  -5 -17   -1.40    3.90
   8  -5 -17    7.30    3.70
   7  -5 -17    4.10    4.10
   7  -5 -17   49.70   44.60
  -7   5  17  -26.50   59.09
   6  -5 -17  -77.59   38.10
  -6   5  17   -8.10   53.39
   5  -5 -17  -11.70   36.90
  -5   5  17  -11.00   52.29
   4  -5 -17  148.49   41.60
  -4   5  17   93.79   50.69
   3  -5 -17  -31.80   34.20
  -3   5  17  -19.20   44.50
   2  -5 -17   -2.20   34.20
  -2   5  17   16.70   44.30
  -1   5  17   34.60   43.90
   0   5  17   75.09   30.60
   0   5  17   82.09   44.00
   0   5  17   56.99    4.10
   1   5  17   63.69    4.30
   1   5  17  158.08   35.10
   1   5  17   49.20   43.00
   2   5  17   59.19   31.60
   2   5  17   74.49    4.40
   2   5  17   25.80   41.30
   3   5  17  105.79   46.50
   3   5  17  109.89    6.40
   3   5  17  192.58   38.20
   4   5  17   18.60   45.90
   4   5  17   41.30    3.70
   4   5  17   60.99   38.30
   5   5  17   39.90    3.80
   5   5  17   42.50   45.50
   5   5  17   32.60   39.50
   6   5  17   43.30   45.00
   6   5  17   40.50    4.10
   6   5  17   53.09   77.29
   7   5  17    8.70    4.10
   7   5  17    8.00   51.19
   9  -6 -17    5.60    4.30
   8  -6 -17    7.10    4.10
   7  -6 -17    0.30    4.80
   6  -6 -17   34.70   43.70
   6  -6 -17   15.00    5.40
  -6   6  17  -53.79   58.49
   5  -6 -17   37.60   40.50
  -5   6  17  100.59   57.19
   4  -6 -17  -29.50   37.90
  -4   6  17   -7.90   52.29
  -3   6  17   92.09   52.79
  -2   6  17  -32.30   29.70
  -2   6  17   62.49   48.30
  -1   6  17   95.89   34.60
  -1   6  17   22.10   46.00
   0   6  17   93.09   46.50
   0   6  17   24.10    3.40
   0   6  17  -31.90   32.50
   1   6  17   22.80   45.50
   1   6  17  -14.80   32.10
   1   6  17   10.90    3.30
   2   6  17   37.40   35.20
   2   6  17  -43.90   45.70
   2   6  17   11.00    3.30
   3   6  17    5.10    3.20
   3   6  17   -1.80   35.60
   3   6  17   44.40   46.40
   4   6  17  -98.39   36.40
   4   6  17   40.80   47.50
   4   6  17    4.40    3.50
   5   6  17   92.59    5.50
   5   6  17   62.29   45.00
   5   6  17  132.79   55.19
   6   6  17  110.09   50.79
   7   6  17   51.79    4.90
   7   6  17   54.89   56.99
   8  -7 -17   61.59    5.60
  -5   7  17  102.49   60.29
  -4   7  17  -10.30   65.29
  -3   7  17  134.89   58.69
  -3   7  17   14.10   34.20
  -2   7  17   52.09   52.69
  -2   7  17   43.00   34.90
  -1   7  17   61.09   50.79
  -1   7  17  -54.99   32.40
   0   7  17  164.58    8.00
   0   7  17   83.79   37.70
   0   7  17  174.28   53.29
   1   7  17   41.60    4.10
   1   7  17   83.19   37.50
   1   7  17   54.59   51.19
   2   7  17   43.50   49.30
   2   7  17  -87.69   37.50
   2   7  17   21.20    3.60
   3   7  17   13.30   52.89
   3   7  17  -16.70   40.50
   3   7  17   27.30    3.70
   4   7  17    5.10   52.79
   4   7  17    4.30    3.70
   4   7  17  -29.10   43.40
   5   7  17   54.79   50.09
   5   7  17   24.00    4.20
   6   7  17  -49.00   55.89
  -4   8  17  -53.49   62.69
  -3   8  17   33.80   62.19
  -2   8  17   -4.00   55.59
  -2   8  17   45.40   38.60
  -1   8  17    4.10   38.60
  -1   8  17  -35.10   54.49
  -1   8  17    2.00    3.90
   0   8  17   37.70    4.10
   0   8  17  -43.10   37.70
   0   8  17   -0.30   53.59
   1   8  17  -51.79   41.90
   1   8  17   -2.50   57.09
   1   8  17    5.30    3.80
   2   8  17   97.89   60.49
   2   8  17   43.30   41.70
   2   8  17   75.69    5.10
   3   8  17    2.30    4.00
   3   8  17  -78.39   55.99
   3   8  17   -9.90   43.30
   4   8  17   46.20    4.80
   4   8  17   83.79   65.89
   4   8  17    0.40   49.20
   5   8  17    0.30    4.50
   5   8  17  -36.80   52.19
   6   8  17   96.99   63.69
  -2   9  17  -30.80   63.39
  -1   9  17  188.68   68.29
   0   9  17  -14.00   63.79
   0   9  17   35.60    4.50
   1   9  17  -38.40   66.59
   1   9  17   16.20    4.30
   2   9  17   73.39   65.99
   3   9  17   33.50    4.70
   3   9  17   -7.10   65.89
   4   9  17   -1.50    4.60
  -1  10  17   25.30    4.80
   0  10  17  -74.29   79.39
   0  10  17   23.80    4.80
   1  10  17   -4.00   75.49
   1  10  17   -0.90    4.60
   2  10  17   11.00   76.39
   2  10  17   28.30    4.90
  -2  10 -18   10.30    3.00
  -3  10 -18    4.60    2.50
  -2   9 -18    7.70    2.80
  -3   9 -18   10.30    2.50
   5  -9  18  -13.30   30.80
   1  -8  18  -31.30   44.20
  -2   8 -18   71.89   47.40
  -2   8 -18   13.80    2.70
   2  -8  18  -45.40   41.00
  -3   8 -18   68.09   34.70
   3  -8  18   81.19   41.90
  -4   8 -18  -42.60   27.90
   4  -8  18    0.80   36.80
   5  -8  18  -29.60   30.80
   6  -8  18  -18.70   24.40
   3   7 -18  -35.30   58.39
  -3  -7  18  -25.70   54.39
   2   7 -18   77.69   48.60
  -2  -7  18   57.09   51.69
   1   7 -18   -5.30   42.50
  -1  -7  18   12.90   42.70
   0   7 -18  -35.80   40.80
   0  -7  18  -49.99   44.00
  -1   7 -18   14.70   35.20
   1  -7  18  -69.09   40.90
  -2   7 -18   66.49    3.90
  -2   7 -18   75.59   37.00
   2  -7  18   72.19   41.50
  -3   7 -18   15.90    2.50
  -3   7 -18   36.30   31.90
   3  -7  18    5.80   38.10
  -4   7 -18   58.19   31.20
   4  -7  18   13.00   37.50
   5  -7  18  -13.00   35.30
   6  -7  18   -8.20   31.90
   7  -7  18   31.40   24.30
  -6  -6  18  -20.50   74.89
   5   6 -18  119.09   56.59
  -5  -6  18    1.60   57.49
   4   6 -18   35.00   50.89
  -4  -6  18  -61.59   49.50
   3   6 -18  103.49   51.69
  -3  -6  18   78.89   49.99
   2   6 -18  -71.59   44.70
  -2  -6  18  -25.40   43.00
   1   6 -18   -8.00   39.10
   0   6 -18  195.68   44.40
   0  -6  18  134.79   47.80
  -1   6 -18   17.80    2.80
  -1   6 -18  -18.10   34.10
   1  -6  18   -6.50   41.50
  -2   6 -18   19.20   33.40
  -2   6 -18   35.90    3.00
   2  -6  18   28.90   39.30
  -3   6 -18  108.39   34.50
  -3   6 -18  100.19    5.20
   3  -6  18  105.69   40.50
  -4   6 -18   -1.90   28.90
   4  -6  18   35.70   37.70
   6  -6  18  -36.70   34.50
   7  -6  18   29.10   34.30
   8  -6  18   -8.40   29.60
   8   5 -18 -100.89  100.29
  -8  -5  18   40.90   96.69
   7   5 -18  107.59   64.29
  -7  -5  18  -35.00   64.19
   6   5 -18   69.39   58.09
   5   5 -18  110.89   53.69
  -5  -5  18  -69.09   50.19
   4   5 -18   34.10   46.80
  -4  -5  18  -37.80   50.09
   3   5 -18  -60.09   42.90
  -3  -5  18  -27.80   46.10
   2   5 -18   30.70   40.90
  -2  -5  18   20.50   43.40
   1   5 -18   50.99   37.90
  -1  -5  18   55.09   39.80
   0   5 -18   79.09   35.00
  -1   5 -18  197.68   39.50
  -1   5 -18  186.88    8.60
   1  -5  18  256.87   46.20
  -2   5 -18   41.80    3.00
  -2   5 -18   78.89   35.10
   2  -5  18   54.99   38.40
  -3   5 -18   16.10   29.80
   3  -5  18  -17.10   37.60
  -4   5 -18   45.00   31.20
   4  -5  18  100.99   40.40
   5  -5  18  -45.80   36.00
   5  -5  18  -16.90   24.60
   7  -5  18   24.00   38.30
   8  -5  18    4.20   38.40
   9   4 -18   43.10   73.39
  -9  -4  18  -98.19   75.89
   8   4 -18  105.19   64.79
  -8  -4  18   -0.20   67.59
   7   4 -18   84.49   61.79
  -7  -4  18   78.69   60.79
   6   4 -18   36.70   52.79
  -6  -4  18   99.09   56.19
   5   4 -18   72.59   51.09
  -5  -4  18   -3.00   54.29
   4   4 -18  -33.50   43.30
  -4  -4  18   64.19   50.59
   3   4 -18  -49.70   38.60
  -3  -4  18   15.00   43.90
   2   4 -18    9.70   37.60
  -2  -4  18   77.49   42.90
   1   4 -18   60.29   38.70
  -1  -4  18   53.89   41.30
   0   4 -18   17.30    2.70
   0   4 -18   11.90   35.10
   0  -4  18    3.00   38.10
  -1   4 -18   26.50   32.40
   1  -4  18   27.70   36.00
  -2   4 -18  103.49    5.20
  -2   4 -18   43.60   33.20
   2  -4  18  114.39   41.20
  -3   4 -18   -1.10   30.50
   3  -4  18   48.90   38.60
  -4   4 -18  -44.30   28.90
   4  -4  18  -25.70   36.60
   5  -4  18  -24.20   36.90
   5  -4  18  -38.10   23.70
   6  -4  18  -17.60   39.30
   6  -4  18   -6.90   31.00
   8  -4  18  -92.09   49.80
   9   3 -18  -18.60   67.99
  -9  -3  18  145.39   76.59
   8   3 -18   -4.80   60.29
  -8  -3  18  -27.50   63.89
   7   3 -18   22.50   55.09
  -7  -3  18   50.99   57.79
   6   3 -18   55.09   59.49
  -6  -3  18   46.70   55.59
   5   3 -18   58.59   45.50
  -5  -3  18   87.39   50.59
   4   3 -18  223.38   49.30
  -4  -3  18  357.16   56.89
   3   3 -18  -19.60   36.20
  -3  -3  18   79.39   45.90
   2   3 -18  117.99   40.60
  -2  -3  18   35.20   41.70
   1   3 -18   44.40   34.50
  -1  -3  18   33.30   40.60
   0   3 -18   82.69   36.50
   0   3 -18  212.98    8.90
   0  -3  18  260.67   45.60
  -1   3 -18   83.99    4.80
  -1   3 -18  104.79   37.50
  -2   3 -18   57.39   29.10
  -2   3 -18   21.70    2.60
   2  -3  18   42.80   34.70
  -3   3 -18  -11.40   29.40
   3  -3  18    7.20   36.10
   4  -3  18   74.49   39.30
   5  -3  18   27.70   25.60
   5  -3  18   68.39   38.50
   6  -3  18   -7.60   41.80
   6  -3  18   23.40   28.00
   7  -3  18   -2.50   42.80
  10   2 -18  135.29   79.79
 -10  -2  18   67.89   85.19
   9   2 -18   14.90   64.79
  -9  -2  18  -32.20   70.69
   8   2 -18   27.40   56.79
  -8  -2  18 -168.28   60.89
   7   2 -18   38.20   54.49
  -7  -2  18   17.70   54.99
   6   2 -18  -18.50   46.00
  -6  -2  18   55.99   57.89
   5   2 -18  -23.20   41.50
  -5  -2  18   -1.10   45.90
   4   2 -18  -38.90   37.60
  -4  -2  18   57.59   46.20
   3   2 -18  218.78   45.30
  -3  -2  18  266.17   53.09
   2   2 -18   -0.90   32.70
  -2  -2  18  -44.80   39.70
   1   2 -18   28.80   32.30
   1   2 -18   -2.70    2.40
  -1  -2  18  -12.10   39.80
   0   2 -18   94.99    5.30
   0   2 -18  113.09   37.00
   0  -2  18  168.38   43.00
  -1   2 -18   34.40    2.80
  -1   2 -18   16.20   29.60
   1  -2  18   12.00   33.40
  -3   2 -18   43.60   30.20
   3  -2  18   40.20   37.70
   4  -2  18  -85.29   35.70
   4  -2  18   -4.50   23.10
   5  -2  18  238.08   45.80
   5  -2  18  145.19   29.60
   6  -2  18  -26.20   41.60
   6  -2  18  -36.00   28.30
   7  -2  18   69.39   46.60
   9   1 -18  100.59   64.59
  -9  -1  18  -85.19   69.39
   8   1 -18  103.49   58.59
  -8  -1  18    9.30   61.59
   7   1 -18  118.09   53.19
  -7  -1  18   -0.20   54.89
   6   1 -18  -65.99   42.30
  -6  -1  18    7.40   48.90
   5   1 -18   91.29   42.90
  -5  -1  18   65.69   47.60
   4   1 -18   50.49   37.70
  -4  -1  18  -94.29   40.40
   3   1 -18  -43.70   32.60
  -3  -1  18  -38.30   41.40
   2   1 -18  -11.20   32.00
   2   1 -18    4.30    2.40
  -2  -1  18   51.89   40.70
   1   1 -18  279.67   44.30
   1   1 -18  272.67   11.60
  -1  -1  18  269.07   47.10
   0   1 -18  133.99   35.30
   0   1 -18  126.39    6.00
   0  -1  18   82.09   39.20
  -1   1 -18 1020.30   72.99
  -1   1 -18 1066.79   43.00
   1  -1  18 1094.99   80.89
  -2   1 -18    1.00   29.50
   2  -1  18   27.70   35.80
   4  -1  18  201.88   31.20
   4  -1  18  257.97   45.70
   5  -1  18   89.99   29.90
   5  -1  18   11.60   39.30
   6  -1  18   35.50   29.10
   6  -1  18    0.60   39.00
   7  -1  18  128.29    6.50
   7  -1  18   68.29   45.00
   8  -1  18   19.00    3.20
   9  -1  18   -2.40    3.30
   9   0 -18  -78.19   58.89
  -9   0  18   46.80   69.49
   8   0 -18   23.40   52.39
  -8   0  18  -99.99   58.79
   7   0 -18   28.30   48.60
  -7   0  18   75.69   56.49
   6   0 -18   80.69   44.50
  -6   0  18    0.20   49.80
   5   0 -18   13.20   44.00
   4   0 -18   17.90   38.50
  -4   0  18   -3.30   43.50
   3   0 -18   62.59   37.70
   3   0 -18   83.69    4.50
  -3   0  18  107.39   44.60
   2   0 -18   85.29    4.90
   2   0 -18  119.29   38.00
  -2   0  18   77.19   42.60
   1   0 -18  -28.00   31.10
   1   0 -18   26.70    2.60
  -1   0  18   59.49   41.60
   0   0 -18   47.90   31.60
   0   0 -18   80.09    4.10
   0   0  18   87.29   40.00
  -1   0 -18   38.90   30.60
   1   0  18  -33.00   36.80
  -2   0 -18  572.54   59.49
   2   0  18  592.74   66.99
   3   0  18   21.70   36.50
   3   0  18   -5.90   23.70
   4   0  18  149.49   29.50
   5   0  18   73.79   38.00
   5   0  18   45.80   27.40
   5   0  18   48.80    3.60
   6   0  18  169.88   45.70
   6   0  18  111.59   33.60
   6   0  18  105.99    6.00
   7   0  18  100.99   54.59
   8   0  18   32.20    3.70
   9   0  18   30.40    3.90
   9  -1 -18   -7.90   59.69
  -9   1  18 -132.19   68.19
   8  -1 -18  -26.30   48.90
  -8   1  18   82.39   65.69
   7  -1 -18  111.29   53.29
  -7   1  18  120.49   59.09
   6  -1 -18   27.30   45.50
  -6   1  18   11.20   51.99
   5  -1 -18   66.39   41.00
   5  -1 -18   39.60    3.50
  -5   1  18   31.20   50.89
   4  -1 -18  234.18   44.40
   4  -1 -18  166.18    8.20
  -4   1  18  243.38   52.09
   3  -1 -18  -10.10   32.90
   3  -1 -18    5.60    2.60
  -3   1  18   36.50   42.60
   2  -1 -18  164.98   39.50
   2  -1 -18  149.69    7.20
  -2   1  18  196.28   50.09
   1  -1 -18   37.70    3.00
   1  -1 -18   67.19   33.70
  -1   1  18   45.80   41.30
   0  -1 -18  151.78   36.20
   0  -1 -18  126.09    6.30
   0   1  18  119.99   45.80
  -1  -1 -18 1025.80   71.49
   1   1  18  967.50   79.29
   2   1  18  223.58   46.10
   3   1  18    5.50   26.20
   3   1  18   43.40   38.50
   4   1  18  503.55   48.90
   4   1  18  501.15   58.09
   4   1  18  432.26   18.70
   5   1  18   -9.80   36.20
   5   1  18    7.00   29.60
   5   1  18   22.00    3.00
   6   1  18   34.10   34.40
   6   1  18   77.09    4.50
   7   1  18    7.50    3.20
   7   1  18  -69.39   60.59
   8   1  18   -5.80    3.40
   9   1  18   23.50    3.70
   9  -2 -18   -7.10   63.29
  -9   2  18  183.98   84.59
   8  -2 -18 -143.19   48.20
  -8   2  18  -34.80   61.09
   7  -2 -18    3.30   44.40
  -7   2  18 -106.39   54.29
  -6   2  18   65.59   53.09
   5  -2 -18  125.29   41.90
   5  -2 -18   54.69    3.90
  -5   2  18   73.39   49.10
   4  -2 -18  -26.70   34.80
   4  -2 -18    8.30    2.80
  -4   2  18  -31.30   43.70
   3  -2 -18   88.49    4.70
   3  -2 -18   96.89   37.70
  -3   2  18  118.59   45.80
   2  -2 -18   67.29   35.50
  -2   2  18   50.09   42.70
   1  -2 -18  517.85   55.89
   1  -2 -18  571.64   23.00
  -1   2  18  549.25   64.39
   0  -2 -18   79.49   35.50
   0   2  18   71.29   42.20
  -1  -2 -18   19.60   32.90
   1   2  18   36.20   39.30
   2   2  18   51.69   28.80
   2   2  18   43.00   37.20
   3   2  18  158.48   32.00
   3   2  18  201.58   46.80
   3   2  18  211.78    9.10
   4   2  18   26.50   41.20
   4   2  18   18.80    3.00
   4   2  18   30.20   28.50
   5   2  18  212.08   37.60
   5   2  18  263.97   47.50
   5   2  18  220.28   10.00
   6   2  18   48.50   37.00
   6   2  18  -24.10   44.70
   6   2  18   -1.80    3.00
   7   2  18   44.30   69.49
   7   2  18   66.29    4.40
   8   2  18    3.40    3.50
   9  -3 -18   22.60    4.30
   8  -3 -18   26.20    3.80
   8  -3 -18  -94.09   48.30
  -8   3  18  -70.29   62.99
   7  -3 -18   38.60    3.80
   7  -3 -18   20.20   45.20
  -7   3  18   17.50   59.99
   6  -3 -18    3.10   41.60
   6  -3 -18    3.20    3.10
  -6   3  18  -17.40   53.69
   5  -3 -18   72.89   41.40
   5  -3 -18   -1.20    2.90
  -5   3  18   11.90   47.40
   4  -3 -18  -14.40   35.80
   4  -3 -18   19.40    2.90
  -4   3  18  -50.29   45.90
   3  -3 -18   20.90    2.90
   3  -3 -18    7.00   35.40
  -3   3  18   34.40   49.80
   2  -3 -18  413.36   17.90
   2  -3 -18  514.15   55.29
  -2   3  18  479.35   62.39
   1  -3 -18   35.10   35.30
  -1   3  18   71.69   45.20
   0  -3 -18   15.60   33.30
   0   3  18   78.29   45.60
   1   3  18 1145.49   87.49
   1   3  18 1003.90   66.69
   2   3  18   65.19   29.40
   2   3  18   10.30   39.70
   2   3  18   27.50    3.20
   3   3  18  103.39    5.20
   3   3  18   91.19   33.50
   3   3  18   57.09   41.60
   4   3  18    7.90   30.10
   4   3  18    4.70   40.80
   5   3  18  -20.20   41.60
   5   3  18   12.70   35.00
   6   3  18  -12.40   37.90
   6   3  18   92.49    5.00
   6   3  18  133.89   50.99
   7   3  18   19.40   59.09
   7   3  18    9.50    3.60
   8   3  18   10.40    3.90
   9  -4 -18   14.70    4.20
   8  -4 -18   11.00    3.80
   8  -4 -18   48.40   59.89
  -8   4  18   46.40   76.29
   7  -4 -18  -84.19   46.30
   7  -4 -18   -2.20    3.40
  -7   4  18  -59.49   61.09
   6  -4 -18    4.40    3.20
   6  -4 -18  -64.79   40.60
  -6   4  18   38.50   56.69
   5  -4 -18   34.30    3.40
   5  -4 -18    8.90   39.30
  -5   4  18   30.50   50.19
   4  -4 -18  108.39   41.50
  -4   4  18   91.79   50.29
   3  -4 -18   64.29   38.60
   3  -4 -18   44.00    3.60
  -3   4  18   27.50   47.20
   2  -4 -18   19.00   34.90
  -2   4  18  -10.90   45.50
   1  -4 -18   15.70   36.20
  -1   4  18  -25.30   42.50
   0   4  18  337.57   55.59
   1   4  18   25.50    3.30
   1   4  18   27.30   30.30
   1   4  18   12.70   43.30
   2   4  18  117.29   46.80
   2   4  18  114.89    6.20
   2   4  18   69.29   33.30
   3   4  18  -22.40   30.80
   3   4  18    7.10    3.10
   3   4  18   17.30   45.70
   4   4  18  130.69   36.70
   4   4  18   62.89   45.20
   4   4  18   84.89    4.90
   5   4  18   12.80    3.30
   5   4  18   11.50   35.90
   5   4  18   57.19   49.90
   6   4  18  -21.70   40.30
   6   4  18   -2.10    3.50
   7   4  18   14.70    3.80
   9  -5 -18   16.40    4.40
   8  -5 -18    5.30    3.90
   7  -5 -18   67.19   51.19
   7  -5 -18    6.50    3.60
  -7   5  18  -64.59   61.29
   6  -5 -18   32.60   44.00
   6  -5 -18   16.40    3.60
  -6   5  18  101.99   64.39
   5  -5 -18   86.19    5.00
   5  -5 -18   78.39   44.90
  -5   5  18  124.19   56.99
   4  -5 -18    7.30    3.30
   4  -5 -18   99.29   41.00
  -4   5  18  -40.60   50.49
   3  -5 -18  -25.30   37.70
  -3   5  18  -61.09   47.40
   2  -5 -18  171.78   44.20
  -2   5  18  183.88   53.79
  -1   5  18  113.39   49.50
   0   5  18   51.59   32.40
   0   5  18   42.70   68.19
   1   5  18  121.79   46.80
   1   5  18   73.19   48.80
   1   5  18   87.19    5.00
   2   5  18    5.90   48.50
   2   5  18    5.90    3.20
   2   5  18  -41.90   32.20
   3   5  18  199.28   40.40
   3   5  18   90.79    5.40
   3   5  18  109.59   50.29
   4   5  18  -24.40   37.00
   4   5  18   50.19    4.00
   4   5  18   18.20   48.30
   5   5  18   33.60   50.29
   5   5  18   66.09   42.40
   5   5  18   34.30    3.90
   6   5  18   20.10    3.90
   6   5  18  -39.50   45.60
   7   5  18   23.00    4.20
   8  -6 -18   -6.90    4.20
   7  -6 -18   32.10    4.20
   6  -6 -18   11.60    3.90
   6  -6 -18  -85.29   45.10
  -6   6  18  -72.29   62.49
   5  -6 -18  -26.90   43.10
  -5   6  18   -7.20   60.29
   4  -6 -18   17.70   43.10
  -4   6  18   57.69   59.39
  -3   6  18   67.29   55.39
  -2   6  18 -100.39   49.99
  -2   6  18  -14.10   31.70
  -1   6  18  150.58   52.49
  -1   6  18   95.49   36.80
   0   6  18   -8.00   33.30
   0   6  18    7.70    3.60
   0   6  18   17.70   47.40
   1   6  18    0.90   49.00
   1   6  18    4.00    3.50
   2   6  18   32.60    3.90
   2   6  18   62.39   36.70
   3   6  18   21.30   42.00
   3   6  18   21.80    3.70
   3   6  18   48.90   51.79
   4   6  18   18.10   50.89
   4   6  18   13.10    3.50
   4   6  18  -90.79   39.70
   5   6  18    4.50   45.70
   6   6  18  -10.10    4.10
   6   6  18  -55.29   53.19
  -5   7  18   31.60   65.29
  -4   7  18   55.59   65.89
  -3   7  18   10.50   35.50
  -3   7  18  140.89   61.19
  -2   7  18   14.70   56.39
  -2   7  18  -55.39   35.70
  -1   7  18  -32.50   35.90
  -1   7  18  -37.20   53.29
   0   7  18  -18.90   37.10
   0   7  18   44.40   53.59
   0   7  18   -2.20    3.80
   1   7  18  -27.90   43.20
   1   7  18   65.59   57.79
   1   7  18   13.80    3.80
   2   7  18    1.80    3.70
   2   7  18  -17.20   55.09
   2   7  18  -60.89   39.50
   3   7  18   28.00    4.10
   3   7  18  106.79   46.40
   3   7  18   43.80   55.09
   4   7  18   -2.30   47.70
   4   7  18    5.20   59.09
   4   7  18    2.20    3.90
   5   7  18  -26.50   52.89
   5   7  18   44.90    4.80
   6   7  18   27.50    5.40
   6   7  18   23.80   58.89
  -4   8  18   77.39   66.69
  -3   8  18  -39.60   66.29
  -2   8  18  -32.00   62.39
  -1   8  18   -8.00   59.99
   0   8  18   91.49   62.39
   0   8  18   95.19   42.50
   1   8  18   39.70   62.49
   1   8  18   65.29   45.40
   1   8  18   17.80    4.10
   2   8  18   77.69   66.29
   2   8  18  -49.20   43.50
   2   8  18    2.40    4.10
   3   8  18  -29.30   45.90
   3   8  18    3.10    4.20
   3   8  18   75.99   66.09
   4   8  18   42.10   53.89
   4   8  18   25.80    4.70
   5   8  18   15.90    4.50
   5   8  18  -56.29   55.59
  -2   9  18  100.89   73.29
  -1   9  18  -37.00   71.89
  -1   9  18   16.40    4.60
   0   9  18   11.10    4.60
   0   9  18   12.30   68.99
   1   9  18   57.19   70.49
   2   9  18    3.90    4.50
   2   9  18    8.50   69.39
   3   9  18   11.10   77.69
   3   9  18   22.80    4.90
  -1  10  18   24.10    5.30
   0  10  18    4.50    5.10
   1  10  18   -6.60  102.79
   1  10  18    4.50    5.00
  -2   9 -19   -1.70    2.80
  -3   9 -19   -1.80    2.70
  -2   8 -19    9.50    2.80
  -3   8 -19   16.80    2.70
   6  -8  19  -67.19   30.50
  -1  -7  19   35.60   61.99
   0   7 -19   30.40   62.59
   0  -7  19   67.69   52.89
  -1   7 -19   -0.10    2.80
  -1   7 -19   24.30   44.20
   1  -7  19   24.80   48.40
  -2   7 -19   18.50    2.90
  -2   7 -19   60.89   38.40
   2  -7  19  -32.40   46.90
  -3   7 -19   27.40   35.40
  -3   7 -19    9.00    2.50
   3  -7  19  -82.29   43.40
  -4   7 -19   18.50   35.60
   4  -7  19  -37.10   45.40
   5  -7  19  -35.00   39.90
   6  -7  19  -42.10   36.50
   4   6 -19    0.10   57.79
  -4  -6  19   53.69   61.99
   3   6 -19   33.40   51.09
  -3  -6  19   20.70   53.09
   2   6 -19  104.99   50.69
  -2  -6  19   57.69   49.99
   1   6 -19   -8.80   44.90
   0   6 -19   16.20   41.40
   0  -6  19  -22.70   43.70
  -1   6 -19   56.29    3.90
  -1   6 -19  163.08   41.70
   1  -6  19   56.09   45.40
  -2   6 -19   -5.80    2.50
  -2   6 -19  -23.20   34.90
   2  -6  19   24.70   42.20
  -3   6 -19   35.00   32.70
  -3   6 -19   34.40    3.00
   3  -6  19   82.69   43.60
  -4   6 -19   14.40   31.00
   4  -6  19   76.99   43.60
   6  -6  19   71.69   41.40
   7  -6  19   25.80   40.70
   6   5 -19  148.39   60.09
  -6  -5  19  -74.09   59.39
   5   5 -19   -9.10   55.09
  -5  -5  19    6.60   57.59
   4   5 -19   73.99   52.29
  -4  -5  19  -81.99   52.49
   3   5 -19   92.59   50.09
  -3  -5  19  147.19   52.09
   2   5 -19   45.60   44.70
  -2  -5  19   89.89   49.10
   1   5 -19  136.49   47.10
  -1  -5  19  181.28   49.60
   0   5 -19    6.80   36.10
   0   5 -19   30.30    3.20
  -1   5 -19   71.79    4.00
  -1   5 -19   41.20   36.90
   1  -5  19   -8.50   43.70
  -2   5 -19   14.20    2.60
  -2   5 -19   86.59   37.30
   2  -5  19  -61.89   41.20
  -3   5 -19    2.10   32.20
   3  -5  19   16.30   42.50
  -4   5 -19   28.20   33.00
   4  -5  19   32.10   43.00
   5  -5  19   -4.80   41.70
   7  -5  19   98.89   54.29
   8   4 -19   26.10   68.79
  -8  -4  19   36.30   75.89
   7   4 -19  -23.80   61.19
  -7  -4  19  -22.50   61.39
   6   4 -19  121.49   58.99
  -6  -4  19   35.70   59.49
   5   4 -19   71.09   52.99
  -5  -4  19   99.19   57.39
   4   4 -19  103.99   49.30
  -4  -4  19  106.29   52.89
   3   4 -19  140.59   47.80
  -3  -4  19  115.79   52.69
   2   4 -19  283.57   51.79
  -2  -4  19  237.68   57.09
   1   4 -19   17.50   39.10
  -1  -4  19   71.29   45.80
   0   4 -19  323.47   13.70
   0  -4  19  326.37   50.29
  -1   4 -19   24.40    2.90
  -1   4 -19   69.39   37.70
   1  -4  19  -17.00   36.90
  -2   4 -19    1.40   30.90
   2  -4  19  -21.50   40.00
  -3   4 -19   34.50   34.50
   3  -4  19   69.89   41.60
   4  -4  19   90.09   43.80
   5  -4  19   40.90   43.80
   5  -4  19   22.60   28.50
   6  -4  19    0.40   42.50
   9   3 -19  149.39   81.29
  -9  -3  19 -126.79   75.69
   8   3 -19  130.99   67.29
  -8  -3  19   13.70   72.99
   7   3 -19  -14.50   57.79
  -7  -3  19   25.10   63.79
   6   3 -19   31.40   62.19
   5   3 -19    6.70   46.90
  -5  -3  19  -23.10   51.89
   4   3 -19  198.08   50.39
  -4  -3  19  140.39   54.09
   3   3 -19   33.00   42.30
  -3  -3  19   34.50   46.00
   2   3 -19   52.59   38.70
  -2  -3  19   90.89   45.10
   1   3 -19   63.29   37.70
   1   3 -19   57.59    3.80
  -1  -3  19   58.89   45.60
   0   3 -19   52.79    3.50
   0   3 -19   50.49   37.10
   0  -3  19    2.00   38.60
  -1   3 -19   -4.40   31.50
  -2   3 -19  192.88    8.60
  -2   3 -19  172.48   38.50
   2  -3  19  237.58   47.30
  -3   3 -19  -10.60   33.20
   3  -3  19   72.79   43.90
   4  -3  19  186.18   46.90
   5  -3  19   14.90   41.90
   5  -3  19  -15.70   27.10
   6  -3  19   12.00   43.50
   9   2 -19   -7.90   69.49
  -9  -2  19   90.49   80.29
   8   2 -19  -47.10   61.49
  -8  -2  19  -47.40   69.49
   7   2 -19   40.50   57.49
  -7  -2  19  -44.40   60.59
   6   2 -19  -22.30   47.80
  -6  -2  19  -41.00   53.69
   5   2 -19   62.29   47.50
  -5  -2  19   24.10   51.89
   4   2 -19   56.69   44.20
  -4  -2  19  -18.40   48.00
   3   2 -19  103.89   43.10
  -3  -2  19   71.39   49.00
   2   2 -19   40.00   39.00
   2   2 -19   11.60    2.80
  -2  -2  19  -51.39   42.60
   1   2 -19   -7.30   34.90
   1   2 -19    8.80    2.60
  -1  -2  19   34.10   43.60
   0   2 -19   99.29    5.20
   0   2 -19   44.20   35.00
   0  -2  19   64.29   44.40
  -1   2 -19  384.66   47.00
  -1   2 -19  293.67   13.00
   1  -2  19  365.26   54.09
  -2   2 -19    1.80   30.40
  -3   2 -19  184.28   41.00
   3  -2  19   43.50   42.60
   4  -2  19   43.40   27.80
   4  -2  19  -49.99   41.40
   5  -2  19  224.58   50.19
   5  -2  19  161.28   32.50
   6  -2  19   13.60   50.39
   6  -2  19   30.30   48.10
   9   1 -19    5.60   68.69
  -9  -1  19   -9.40   80.49
   8   1 -19    4.00   59.89
  -8  -1  19  -33.00   68.79
   7   1 -19  -52.79   52.09
  -7  -1  19   56.29   60.29
   6   1 -19   16.40   47.80
  -6  -1  19  -39.70   53.09
   5   1 -19  -22.80   47.30
  -5  -1  19   27.10   48.20
   4   1 -19   95.29   44.00
  -4  -1  19   12.90   48.20
   3   1 -19   36.80    3.30
   3   1 -19   54.99   39.40
  -3  -1  19  -31.30   45.30
   2   1 -19   20.90   34.70
   2   1 -19   19.40    2.90
  -2  -1  19   32.70   45.90
   1   1 -19   82.49   38.60
   1   1 -19   38.30    3.20
  -1  -1  19   54.59   42.80
   0   1 -19   50.79    3.30
   0   1 -19   16.30   32.60
   0  -1  19   51.39   42.70
  -1   1 -19   51.89   34.50
  -1   1 -19   92.19    4.90
   1  -1  19  -41.90   39.80
  -2   1 -19  265.67   42.80
   2  -1  19  136.09   43.80
   4  -1  19   -6.50   25.50
   4  -1  19   46.80   43.50
   5  -1  19  -30.00   27.00
   5  -1  19  103.89   45.70
   6  -1  19   96.69   48.90
   6  -1  19   62.79   35.00
   8  -1  19    2.70    3.40
   9  -1  19   15.10    3.70
   9   0 -19   74.49   67.69
  -9   0  19   -9.50   77.79
   8   0 -19   -4.20   55.59
  -8   0  19   70.29   67.09
   7   0 -19   20.30   50.49
  -7   0  19   47.60   60.89
   6   0 -19   38.80   46.80
  -6   0  19   29.60   53.89
   5   0 -19   90.19   44.80
  -5   0  19  -19.80   50.49
   4   0 -19   -0.10    3.00
   4   0 -19   17.20   38.70
  -4   0  19  -70.59   47.10
   3   0 -19  -62.59   33.50
   3   0 -19   20.80    2.90
  -3   0  19   61.19   47.20
   2   0 -19  203.98   41.60
   2   0 -19  134.19    7.00
  -2   0  19  227.68   51.59
   1   0 -19   -8.70   31.40
   1   0 -19    8.50    2.50
  -1   0  19   51.19   43.90
   0   0 -19  485.85   20.00
   0   0 -19  428.76   54.69
   0   0  19  554.94   61.59
  -1   0 -19  -13.90   31.20
   1   0  19  -46.70   40.50
  -2   0 -19   24.30   33.60
   2   0  19   25.70   42.90
   3   0  19  -43.00   27.30
   3   0  19   12.20   41.00
   4   0  19   97.69   31.20
   4   0  19   96.79   54.89
   5   0  19  -70.49   29.80
   5   0  19  -23.80   40.10
   6   0  19   71.59   36.50
   6   0  19   76.69    4.60
   6   0  19   58.79   47.10
   7   0  19   -7.70    3.30
   8   0  19   38.70    4.00
   9   0  19   33.60    4.00
   9  -1 -19  -44.10   65.09
  -9   1  19  -39.20   76.49
   8  -1 -19  102.39   59.69
  -8   1  19   31.20   65.59
   7  -1 -19 -117.49   47.30
  -7   1  19  117.19   64.69
   6  -1 -19   96.69   47.50
  -6   1  19   26.20   55.79
   5  -1 -19    1.90   42.30
   5  -1 -19   22.70    3.30
  -5   1  19  -35.70   51.99
   4  -1 -19  104.49    6.00
  -4   1  19  163.58   67.39
   3  -1 -19   12.00    2.90
   3  -1 -19   -1.20   34.10
  -3   1  19  -33.70   43.70
   2  -1 -19  101.69   37.40
   2  -1 -19  117.09    5.90
  -2   1  19   75.59   46.10
   1  -1 -19  157.58    7.60
   1  -1 -19  194.18   41.10
  -1   1  19  193.48   50.29
   0  -1 -19   10.10   32.30
   0  -1 -19   52.89    3.50
   0   1  19   42.30   42.10
  -1  -1 -19   97.79   37.80
   1   1  19   22.00   42.90
   2   1  19   65.79   41.90
   3   1  19   31.70   40.80
   3   1  19   72.39   30.80
   4   1  19   16.70   30.10
   4   1  19   66.79   44.10
   4   1  19   55.79    4.00
   5   1  19   21.50    3.30
   5   1  19   52.89   40.00
   5   1  19    6.30   30.20
   6   1  19   92.29   39.00
   6   1  19   85.89    5.00
   7   1  19   19.10    3.60
   8   1  19   -7.90    3.60
   8  -2 -19   45.80   57.89
  -8   2  19 -114.39   66.99
   7  -2 -19   24.60    3.80
   7  -2 -19  -17.90   49.50
  -7   2  19  -59.89   57.99
   6  -2 -19    2.50    3.30
   6  -2 -19   28.20   46.90
  -6   2  19   15.10   58.09
   5  -2 -19   27.60   41.70
   5  -2 -19   21.70    3.30
  -5   2  19   89.39   55.09
   4  -2 -19   65.39   42.30
   4  -2 -19   21.70    3.10
  -4   2  19  -12.50   47.80
   3  -2 -19   59.49   39.00
  -3   2  19   40.60   48.70
   2  -2 -19   14.40    2.80
   2  -2 -19   17.30   34.20
  -2   2  19  -23.00   43.60
   1  -2 -19   -4.90    2.70
   1  -2 -19   73.69   35.90
  -1   2  19  -42.80   42.50
   0  -2 -19   44.60   35.50
   0   2  19   74.09   46.80
   1   2  19   -9.10   42.70
   2   2  19   42.90   31.00
   2   2  19   20.70   41.00
   3   2  19  237.68   50.59
   3   2  19  268.87   11.40
   3   2  19  205.58   36.70
   4   2  19  153.78   47.80
   4   2  19  100.49    5.40
   4   2  19   93.09   33.50
   5   2  19  255.87   42.10
   5   2  19  223.38   52.79
   5   2  19  251.57   11.20
   6   2  19   13.30    3.40
   6   2  19   16.30   37.40
   7   2  19    4.30    3.60
   8   2  19   11.40    3.70
   9  -3 -19   12.90    4.30
   8  -3 -19  -20.60   57.49
   8  -3 -19    5.30    3.90
  -8   3  19  -20.00   67.89
   7  -3 -19   -2.30    3.60
  -7   3  19   -6.50   62.49
   6  -3 -19    3.60    3.30
   6  -3 -19  -34.70   43.40
  -6   3  19   65.39   62.89
   5  -3 -19   70.29   44.30
  -5   3  19   24.00   55.09
   4  -3 -19  123.49    6.40
   4  -3 -19  112.89   43.90
  -4   3  19   79.99   52.69
   3  -3 -19    7.70    2.90
   3  -3 -19  -72.19   37.50
  -3   3  19   -1.00   48.70
   2  -3 -19   21.80   37.00
   2  -3 -19   50.79    3.70
  -2   3  19  -17.70   48.60
   1  -3 -19  106.69   37.80
  -1   3  19    2.80   47.10
   0  -3 -19  277.47   47.00
   0   3  19   75.99   48.30
   1   3  19   29.90   29.70
   1   3  19  100.79   45.30
   2   3  19  220.88   38.40
   2   3  19  158.08   48.30
   2   3  19  184.08    8.80
   3   3  19   52.79   48.90
   3   3  19   96.19   35.00
   3   3  19   59.49    4.20
   4   3  19  135.79   49.10
   4   3  19   91.09    4.90
   4   3  19    0.70   34.10
   5   3  19    7.00    3.30
   5   3  19  -16.60   36.90
   5   3  19  -78.99   44.50
   6   3  19   54.79    4.30
   6   3  19   19.30   42.80
   7   3  19   20.10    3.90
   9  -4 -19    6.30    4.50
   8  -4 -19   25.20    4.30
   7  -4 -19   57.99   52.59
   7  -4 -19   -7.30    3.70
  -7   4  19  -63.29   66.29
   6  -4 -19   63.99    4.50
   6  -4 -19   34.50   45.90
  -6   4  19  115.19   65.99
   5  -4 -19  -22.10   41.10
   5  -4 -19   13.70    3.30
  -5   4  19   -3.80   58.69
   4  -4 -19    2.20    3.00
   4  -4 -19   19.80   40.90
  -4   4  19  -28.80   52.19
   3  -4 -19   12.20    3.30
   3  -4 -19   14.80   40.20
  -3   4  19    7.60   51.29
   2  -4 -19   -9.60   37.40
  -2   4  19   81.99   53.19
  -1   4  19  -14.00   48.70
   0   4  19  245.18   53.09
   1   4  19   10.50   44.90
   1   4  19   42.20   32.40
   2   4  19  222.48   52.99
   2   4  19  155.48   40.10
   2   4  19  215.48    9.70
   3   4  19    0.90    3.30
   3   4  19  -66.39   45.10
   3   4  19   46.00   36.10
   4   4  19   12.60    3.50
   4   4  19    3.10   36.90
   4   4  19   47.80   48.00
   5   4  19   47.80   58.49
   5   4  19    4.70    3.60
   5   4  19  -37.40   38.90
   6   4  19  -23.10   45.00
   6   4  19   28.50    3.90
   7   4  19    7.50    3.80
   8  -5 -19   23.20    4.40
   7  -5 -19   24.80   89.19
   7  -5 -19   10.80    4.00
  -7   5  19  134.99   98.79
   6  -5 -19  -13.70   48.00
   6  -5 -19   29.70    4.00
  -6   5  19   18.80   65.19
   5  -5 -19   39.80   45.60
   5  -5 -19   -2.20    3.50
  -5   5  19  -72.09   58.29
   4  -5 -19   -2.80   42.30
  -4   5  19  -44.80   57.29
   3  -5 -19  -54.19   40.60
  -3   5  19  -50.09   52.89
  -2   5  19   30.70   52.49
  -1   5  19  135.89   36.20
  -1   5  19  136.39   57.29
   0   5  19   53.69   40.90
   0   5  19  104.69   54.09
   1   5  19   78.39    5.10
   1   5  19  109.49   37.50
   1   5  19  130.89   52.19
   2   5  19    0.90    3.40
   2   5  19  -30.80   48.00
   2   5  19  -33.00   34.50
   3   5  19   19.60    3.70
   3   5  19  -11.90   50.79
   3   5  19   34.00   38.80
   4   5  19   32.20   54.09
   4   5  19   33.20   41.40
   4   5  19   11.80    3.70
   5   5  19   -9.00   43.70
   5   5  19    6.70    3.70
   6   5  19   43.20    4.40
   6   5  19  -37.00   53.09
   8  -6 -19    6.30    4.60
   7  -6 -19    8.50    4.30
   6  -6 -19   78.19   53.79
  -6   6  19  236.08   73.39
   5  -6 -19   34.70   47.50
  -5   6  19   25.20   68.59
   4  -6 -19  120.69   48.70
  -4   6  19  -16.50   64.09
  -3   6  19   62.49   62.29
  -2   6  19  -60.89   34.60
  -2   6  19  -18.60   57.29
  -1   6  19   40.40   37.30
  -1   6  19  147.29   57.39
   0   6  19   85.29   56.99
   0   6  19   80.79   39.40
   1   6  19  -17.60   50.49
   1   6  19    8.20    3.70
   1   6  19  -31.00   36.40
   2   6  19  -86.19   50.09
   2   6  19    3.40   37.80
   2   6  19   13.00    3.80
   3   6  19   39.50   43.00
   3   6  19  133.09   60.49
   3   6  19   78.29    5.20
   4   6  19   -8.70   60.19
   4   6  19    1.50    3.80
   4   6  19   15.90   47.40
   5   6  19   34.50    4.40
   5   6  19  -58.29   49.10
   6   6  19  -42.60   57.39
   6   6  19    4.60    4.70
  -5   7  19   -8.50   98.59
  -4   7  19  -11.60   68.79
  -3   7  19   45.40   65.19
  -2   7  19  -18.60   37.50
  -2   7  19   40.50   64.59
  -1   7  19  -34.90   40.50
  -1   7  19  109.69   60.29
   0   7  19  -23.60   39.30
   0   7  19  -43.10   58.39
   0   7  19   14.50    4.20
   1   7  19   28.40   40.80
   1   7  19    3.50    4.00
   1   7  19   41.50   60.39
   2   7  19   19.50   45.10
   2   7  19   13.60    4.10
   2   7  19   24.10   62.89
   3   7  19  -32.60   44.80
   3   7  19    4.80    4.20
   3   7  19    6.50   62.59
   4   7  19   55.59    5.00
   4   7  19   19.40   49.90
   5   7  19  -31.90   55.99
   5   7  19    3.90    4.20
  -3   8  19  115.89   76.69
  -2   8  19   26.80   69.09
  -1   8  19  -73.79   64.09
   0   8  19    3.60   68.09
   0   8  19   33.70    4.70
   1   8  19    8.30    4.40
   1   8  19  -53.29   65.09
   2   8  19  167.78   72.49
   3   8  19  -57.19   82.39
   3   8  19   -6.70   76.89
   3   8  19  -24.20    4.50
   4   8  19   24.00    4.80
  -1   9  19  -30.60   73.69
   0   9  19  101.19   76.39
   1   9  19   44.00    5.30
   1   9  19   78.69   80.89
   2   9  19    5.00    4.90
   2   9  19  -17.10   78.59
  -1   9 -20    5.90    3.50
  -2   9 -20    9.60    3.10
  -3   9 -20   -0.40    2.80
  -1   8 -20   17.30    3.30
  -2   8 -20    6.10    2.90
  -3   8 -20    8.80    2.70
  -1   7 -20    5.60    3.10
  -2   7 -20   96.79    5.50
  -3   7 -20    8.50    2.70
  -2  -6  20  -55.59   59.29
   1   6 -20   56.09   60.59
  -1  -6  20  -23.90   62.39
   0   6 -20  -31.00   41.00
   0   6 -20   34.80    3.50
   0  -6  20   61.09   52.09
  -1   6 -20   66.59    4.20
  -1   6 -20  111.69   40.50
   1  -6  20   77.39   54.89
  -2   6 -20   15.20    2.80
  -2   6 -20   -9.90   42.00
   2  -6  20  -23.10   48.70
   3  -6  20  115.19   54.49
   4  -6  20   86.89   62.59
   5   5 -20   92.89   94.29
  -5  -5  20   13.20   71.69
   4   5 -20   22.40   53.89
  -4  -5  20 -140.49   56.29
   3   5 -20   87.19   51.79
  -3  -5  20   99.89   57.39
   2   5 -20  -42.10   47.50
  -2  -5  20   12.80   51.69
   1   5 -20  235.08   50.49
  -1  -5  20  239.68   54.19
   0   5 -20  186.58   68.89
   0   5 -20  103.39    5.90
  -1   5 -20   73.19    4.20
  -1   5 -20   83.19   40.50
   1  -5  20    3.80   48.80
  -2   5 -20   15.10   38.20
  -2   5 -20   -3.40    2.70
   2  -5  20   25.80   46.80
  -3   5 -20  -57.89   32.30
   3  -5  20   18.70   45.50
  -4   5 -20   34.60   35.40
   4  -5  20  -34.40   47.20
   5  -5  20   35.90   53.99
   7   4 -20  132.19   69.39
  -7  -4  20   46.20   81.29
  -6  -4  20    3.90   81.09
   5   4 -20  143.89   60.99
  -5  -4  20  -18.60   57.39
   4   4 -20    0.40   50.49
  -4  -4  20  191.88   59.29
   3   4 -20  129.79   49.99
  -3  -4  20  -64.09   50.59
   2   4 -20  210.78   50.09
  -2  -4  20  191.48   56.69
   1   4 -20   49.40   41.60
  -1  -4  20   28.90   48.30
   0   4 -20  146.89   45.80
   0   4 -20  152.48    7.20
   0  -4  20   95.69   47.10
  -1   4 -20   36.90   38.40
  -1   4 -20   48.50    3.50
   1  -4  20   -3.90   41.40
  -2   4 -20   13.10    2.70
  -2   4 -20   58.09   37.30
   2  -4  20   10.20   44.00
  -3   4 -20   13.60   35.70
   3  -4  20  -31.50   45.50
   4  -4  20   -5.30   46.80
   5  -4  20   -6.50   48.80
   8   3 -20 -124.39   66.39
  -8  -3  20   70.49   76.89
   7   3 -20    4.40   58.49
  -7  -3  20  -96.29   66.49
   6   3 -20   54.49   57.89
  -6  -3  20   78.79   64.59
   5   3 -20   -4.40   51.49
  -5  -3  20  110.99   57.99
   4   3 -20  192.98   53.79
  -4  -3  20   79.49   57.19
   3   3 -20  110.39   49.10
  -3  -3  20   42.10   52.89
   2   3 -20   64.89   43.00
  -2  -3  20  -13.80   46.90
   1   3 -20   14.80   39.50
   1   3 -20   12.30    2.90
  -1  -3  20  -27.70   47.60
   0   3 -20  199.48    9.10
   0   3 -20  268.57   50.09
   0  -3  20  223.28   54.19
  -1   3 -20  -31.70   39.90
  -1   3 -20    6.80    2.60
   1  -3  20  -11.30   61.99
  -2   3 -20   75.59    4.30
  -2   3 -20   75.09   38.60
   2  -3  20   24.90   43.60
  -3   3 -20   70.69   36.00
   3  -3  20   62.09   47.80
   4  -3  20   69.39   46.50
   5  -3  20  -68.19   47.80
   9   2 -20   50.69   75.79
  -9  -2  20   63.29   81.59
   8   2 -20   20.90   66.99
  -8  -2  20  -12.50   78.99
   7   2 -20  -78.19   58.69
  -7  -2  20   98.09   68.39
   6   2 -20  -74.39   54.09
  -6  -2  20   25.00   61.09
   5   2 -20  304.47   60.19
  -5  -2  20  157.38   61.29
   4   2 -20   75.19   46.50
  -4  -2  20    8.70   51.39
   3   2 -20   -0.30   40.40
  -3  -2  20   42.00   52.19
   2   2 -20   91.49   44.40
   2   2 -20   94.29    5.30
  -2  -2  20    0.00   46.90
   1   2 -20   -7.20   39.10
  -1  -2  20   16.50   46.50
   0   2 -20   71.69    4.10
   0   2 -20   48.60   41.10
   0  -2  20   41.60   47.60
  -1   2 -20  323.37   13.60
  -1   2 -20  348.97   48.10
   1  -2  20  264.77   53.79
  -2   2 -20  -27.10   34.10
  -3   2 -20   33.60   36.30
   3  -2  20  208.68   47.10
   4  -2  20   36.20   44.40
   4  -2  20   18.40   30.50
   5  -2  20   13.80   31.60
   5  -2  20  106.79   52.29
   9   1 -20 -119.79   72.89
  -9  -1  20  -53.49   84.49
   8   1 -20   15.40   63.59
  -8  -1  20  -74.19   73.49
   7   1 -20  -51.29   53.69
  -7  -1  20 -126.89   61.19
   6   1 -20   30.30   51.89
  -6  -1  20   -6.10   61.79
   5   1 -20   35.90   53.69
   4   1 -20  -54.99   41.40
  -4  -1  20   29.50   53.99
   3   1 -20  123.99    6.70
   3   1 -20  209.88   48.50
  -3  -1  20   95.69   51.89
   2   1 -20   -7.80    2.70
   2   1 -20   29.00   38.50
  -2  -1  20    2.50   48.40
   1   1 -20  651.73   69.79
   1   1 -20  532.25   22.70
  -1  -1  20  606.34   71.69
   0   1 -20   34.50   34.30
   0  -1  20   -4.00   45.10
  -1   1 -20  223.18   45.20
  -1   1 -20  305.67   12.80
   1  -1  20  332.57   56.09
  -2   1 -20   47.40   38.20
   2  -1  20   89.59   48.50
   4  -1  20   50.19   30.90
   4  -1  20   42.20   44.80
   5  -1  20  160.08   54.69
   9   0 -20   19.70   75.99
  -9   0  20 -118.59   79.39
   8   0 -20  -99.29   63.29
  -8   0  20  119.99   73.59
   7   0 -20  -24.20   53.69
  -7   0  20  -63.39   65.39
   6   0 -20   56.29   52.59
  -6   0  20   -2.20   58.79
   5   0 -20   70.19   48.30
  -5   0  20    3.60   57.49
   4   0 -20   14.20    3.20
  -4   0  20   30.80   52.89
   3   0 -20  -86.59   38.40
   3   0 -20   -0.80    2.90
  -3   0  20   32.70   51.69
   2   0 -20  173.48    8.40
   2   0 -20  229.68   48.30
  -2   0  20  221.38   54.29
   1   0 -20   57.19   37.40
   1   0 -20   58.39    3.70
  -1   0  20    9.40   46.50
   0   0 -20  743.43   29.30
   0   0 -20  683.93   65.99
   0   0  20  610.64   79.29
  -1   0 -20   34.30   34.50
   1   0  20   -6.20   46.30
  -2   0 -20  129.39   43.30
   2   0  20  156.38   50.49
   3   0  20  -22.10   44.60
   3   0  20   11.60   30.60
   4   0  20    6.40   33.00
   4   0  20   97.99   43.80
   5   0  20   57.99   74.59
   7   0  20   21.80    3.80
   8   0  20   50.99    4.50
   8  -1 -20  -72.99   61.09
  -8   1  20   -4.10   72.49
   7  -1 -20   39.80   54.99
  -7   1  20  128.29   67.39
   6  -1 -20   18.50    3.70
   6  -1 -20  133.09   53.49
  -6   1  20  -33.60   57.69
   5  -1 -20   46.10   45.40
   5  -1 -20  106.09    5.60
  -5   1  20  116.29   57.39
   4  -1 -20   73.89   46.50
   4  -1 -20   54.39    4.00
  -4   1  20   75.09   55.99
   3  -1 -20   55.49   42.40
  -3   1  20   61.99   50.09
   2  -1 -20   59.69   40.00
   2  -1 -20    0.10    2.70
  -2   1  20  -22.50   47.20
   1  -1 -20   27.40   40.70
   1  -1 -20   32.00    3.10
  -1   1  20  -39.80   45.00
   0  -1 -20  149.29   40.30
   0   1  20  134.49   51.29
  -1  -1 -20  383.36   50.89
   1   1  20  355.96   57.69
   2   1  20  234.18   54.79
   3   1  20   78.79   50.59
   3   1  20  -18.00   29.70
   4   1  20  202.58   50.49
   4   1  20  181.88   39.20
   5   1  20   37.30   36.00
   5   1  20  -42.40   45.80
   5   1  20   27.60    3.70
   6   1  20   23.90    3.70
   7   1  20   51.59    4.40
   8   1  20   15.80    3.60
   8  -2 -20   14.30    4.20
   8  -2 -20  -21.90   61.99
  -8   2  20   57.99   76.29
   7  -2 -20  -64.99   51.49
   7  -2 -20    2.60    3.80
  -7   2  20   50.79   66.49
   6  -2 -20  -63.49   48.50
   6  -2 -20    6.30    3.50
  -6   2  20   36.40   60.99
   5  -2 -20   93.19    5.40
   5  -2 -20  128.99   49.20
  -5   2  20  147.19   59.59
   4  -2 -20  154.78   47.50
   4  -2 -20  101.29    6.20
  -4   2  20  186.38   57.79
   3  -2 -20  130.09   50.99
   3  -2 -20  144.69    7.20
   2  -2 -20  -44.50   39.50
   2  -2 -20    2.00    2.80
  -2   2  20   55.69   49.00
   1  -2 -20   76.29   40.70
   1  -2 -20   85.19    4.80
  -1   2  20  132.29   52.99
   0  -2 -20   23.30   38.10
   0   2  20  126.39   51.79
   1   2  20  180.48   52.29
   2   2  20   44.10   46.70
   2   2  20   19.20   31.80
   3   2  20  181.08   51.29
   3   2  20  106.79   35.70
   4   2  20  -17.60   33.30
   4   2  20    6.80    3.40
   4   2  20  -11.50   45.20
   5   2  20   41.20   38.30
   5   2  20   99.39   63.19
   6   2  20   -5.60    3.60
   7   2  20   13.70    4.00
   9  -3 -20    4.30    4.60
  -8   3  20   69.99  124.19
   7  -3 -20    8.10    3.80
   7  -3 -20  -42.10   50.59
  -7   3  20   24.40   70.49
   6  -3 -20   -4.90   49.00
   6  -3 -20   11.60    3.60
  -6   3  20   62.39   66.99
   5  -3 -20   48.60   49.30
  -5   3  20   73.29   59.49
   4  -3 -20   39.30    3.60
   4  -3 -20   17.20   42.90
  -4   3  20   -3.60   57.29
   3  -3 -20  116.49    6.70
   3  -3 -20  211.28   47.90
  -3   3  20  144.19   56.09
   2  -3 -20   99.99    5.40
   2  -3 -20  108.89   49.50
  -2   3  20   31.40   96.59
   1  -3 -20   17.00   39.70
  -1   3  20   87.99   54.59
   0  -3 -20  -18.40   38.90
   0   3  20   74.09   50.79
   1   3  20   72.19   36.50
   1   3  20   92.09   51.99
   2   3  20   46.60   49.70
   2   3  20   68.99   35.30
   3   3  20   74.79   49.20
   3   3  20   22.40    3.60
   3   3  20  -34.40   33.20
   4   3  20   32.70   50.49
   4   3  20   21.30   35.30
   4   3  20   37.80    3.90
   5   3  20    6.50   42.10
   5   3  20   19.30    3.70
   6   3  20   16.80    3.80
   7   3  20   18.80    3.80
   8  -4 -20    6.70    4.30
   7  -4 -20   41.40   59.29
   7  -4 -20   19.10    4.10
  -7   4  20  -97.69   70.99
   6  -4 -20   54.09   50.59
   6  -4 -20    9.80    3.70
  -6   4  20  -83.79   66.19
   5  -4 -20    2.50    3.50
   5  -4 -20 -109.49   42.90
  -5   4  20   44.50   63.59
   4  -4 -20   -1.30    3.20
   4  -4 -20    3.60   45.00
  -4   4  20  -18.70   59.79
   3  -4 -20   -4.10    3.40
   3  -4 -20  -36.90   41.70
  -3   4  20  -46.80   54.39
   2  -4 -20  208.58   48.90
  -2   4  20  280.57   62.89
   1  -4 -20   62.69   45.00
  -1   4  20  -22.50   65.29
   0   4  20  227.58   59.29
   0   4  20  186.58   39.20
   1   4  20  113.39   51.49
   1   4  20   29.60   36.40
   2   4  20   45.20   36.80
   2   4  20   72.09   51.59
   2   4  20   61.79    4.60
   3   4  20    4.80    3.50
   3   4  20    2.30   36.20
   3   4  20    3.90   50.89
   4   4  20   44.80   57.69
   4   4  20   64.79   39.90
   5   4  20  -35.40   43.20
   5   4  20   -8.80    3.80
   6   4  20   38.10    4.40
   8  -5 -20    6.70    4.50
   7  -5 -20    3.90    4.30
   6  -5 -20   21.80   55.49
   6  -5 -20   10.70    3.90
  -6   5  20   90.59   75.19
   5  -5 -20   21.60    4.00
   5  -5 -20  -12.70   47.80
  -5   5  20  -76.29   68.29
   4  -5 -20   15.50   46.50
  -4   5  20  -65.89   62.09
   3  -5 -20   -2.90   45.30
  -3   5  20   -0.70   61.39
  -2   5  20   47.60   59.49
  -1   5  20  167.28   60.19
  -1   5  20  112.69   39.70
   0   5  20  133.09   58.09
   0   5  20   35.20   36.80
   1   5  20   98.19   39.40
   1   5  20  101.39   88.99
   2   5  20   58.59    4.50
   2   5  20   -5.30   37.30
   2   5  20  109.59   58.79
   3   5  20    4.30    3.80
   3   5  20  111.09   57.29
   3   5  20   45.80   43.50
   4   5  20   25.40    4.10
   4   5  20   -7.40   43.90
   5   5  20   10.60    4.10
   5   5  20   -3.00   49.50
   6   5  20   -4.30    4.00
   7  -6 -20   -3.90    4.60
   5  -6 -20   14.60   56.09
  -5   6  20   41.50   72.59
   4  -6 -20  -41.40   47.00
  -4   6  20   29.80   73.79
  -3   6  20   98.69   68.49
  -2   6  20   35.60   39.30
  -2   6  20  156.28   65.39
  -1   6  20  -16.20   60.09
  -1   6  20   12.80   38.80
   0   6  20   83.99   43.20
   0   6  20   97.09   58.79
   1   6  20   -4.00   40.40
   1   6  20   13.50    4.20
   1   6  20   76.99   58.79
   2   6  20   26.20    4.30
   2   6  20   15.00   57.59
   2   6  20   54.89   43.90
   3   6  20   54.09   72.29
   3   6  20   43.00    4.60
   3   6  20    6.00   46.50
   4   6  20  -69.79   46.60
   4   6  20   -0.90    4.20
   5   6  20   77.39    5.40
   5   6  20   46.00   54.59
  -4   7  20   -8.50   76.89
  -3   7  20  -55.59   70.29
  -2   7  20   59.49   67.39
  -1   7  20   42.40   67.99
  -1   7  20   40.20   45.50
   0   7  20   20.00   43.20
   0   7  20   -9.90   64.59
   1   7  20   -4.80    4.30
   1   7  20   34.30   64.39
   1   7  20   -4.40   43.30
   2   7  20   98.49   66.29
   2   7  20    1.90   47.10
   2   7  20   30.80    4.60
   3   7  20  -34.80   50.49
   3   7  20   16.90    4.70
   4   7  20    9.30   55.49
   4   7  20   24.90    4.70
   5   7  20 -120.39   63.29
  -3   8  20  -39.20  118.49
  -2   8  20  -20.70   79.29
  -1   8  20  175.48   78.69
   0   8  20  127.19   75.69
   1   8  20   11.00    4.90
   1   8  20    3.10   72.59
   2   8  20   25.60   80.19
   2   8  20   14.40    4.90
   3   8  20    7.60    4.90
   0   9  20  172.88   85.49
  -1   9 -21   -7.90    3.60
  -1   8 -21    6.90    3.40
  -2   8 -21    7.00    3.00
  -3   8 -21    9.20    3.10
   0   7 -21   78.79    4.90
  -1   7 -21    0.70    3.20
  -2   7 -21   39.50    3.50
   0   6 -21   36.00    3.70
  -1   6 -21  101.69    5.90
  -2   6 -21  -14.20    2.80
  -3  -5  21  150.38  103.39
  -2  -5  21  -95.29   59.09
   1   5 -21   30.90   49.70
  -1  -5  21  155.48   57.19
   0   5 -21    5.10    3.10
  -1   5 -21   11.00    3.00
  -1   5 -21   19.60   61.09
   1  -5  21   -1.70   55.39
  -2   5 -21   36.50    3.40
   2  -5  21   96.59   56.99
   5   4 -21   77.69   58.69
  -5  -4  21  -11.30   67.49
   4   4 -21  -61.19   48.60
  -4  -4  21   40.90   60.89
   3   4 -21  -33.30   51.69
  -3  -4  21   44.60   56.09
   2   4 -21   72.59   48.30
  -2  -4  21  -45.20   51.99
   1   4 -21    1.60    3.10
   1   4 -21  -19.80   43.60
  -1  -4  21  -13.10   50.69
   0   4 -21  127.99   47.50
   0   4 -21  166.98    7.70
   0  -4  21   65.39   51.59
  -1   4 -21  174.48   45.30
  -1   4 -21   68.19    4.20
   1  -4  21   14.20   56.49
  -2   4 -21    8.80    2.90
  -2   4 -21   36.30   37.90
   2  -4  21   82.09   52.39
  -3   4 -21   45.30   40.60
   3  -4  21   -0.60   50.29
   7   3 -21   72.29   64.09
  -7  -3  21 -131.29   75.09
   6   3 -21   64.89   63.89
  -6  -3  21   21.40   68.59
   5   3 -21  -60.89   53.79
  -5  -3  21  -57.39   57.49
   4   3 -21   67.39   51.99
  -4  -3  21   53.09   60.79
   3   3 -21   29.00   49.90
  -3  -3  21   91.09   56.19
   2   3 -21   57.39   48.10
   2   3 -21   72.09    4.50
  -2  -3  21   46.70   52.99
   1   3 -21   65.99   44.40
   1   3 -21   75.69    4.50
  -1  -3  21  161.18   53.79
   0   3 -21  205.78   52.39
   0   3 -21  180.58    8.60
   0  -3  21  256.87   55.89
  -1   3 -21   -2.80    2.80
   1  -3  21   13.70   46.50
  -2   3 -21  331.27   49.80
   2  -3  21  203.18   51.89
  -3   3 -21    7.90   36.10
   3  -3  21   42.60   49.80
   4  -3  21   43.00   53.59
   8   2 -21   47.20   72.19
  -8  -2  21 -128.29   77.99
   7   2 -21    9.50   61.19
  -7  -2  21  -70.49   75.29
   6   2 -21 -102.79   55.29
  -6  -2  21   43.70   63.89
   5   2 -21  135.99   75.49
  -5  -2  21   24.80   63.79
   4   2 -21   41.70   50.69
  -4  -2  21  115.59   58.19
   3   2 -21   27.70   47.10
   3   2 -21   17.80    3.40
  -3  -2  21   41.90   55.09
   2   2 -21   31.10   43.70
   2   2 -21   27.70    3.30
  -2  -2  21   11.70   50.79
   1   2 -21  104.49   45.50
   1   2 -21   73.49    4.40
  -1  -2  21   96.19   54.09
   0   2 -21   93.59   44.80
   0   2 -21  181.98    8.10
   0  -2  21  129.49   55.19
  -1   2 -21  125.59   44.10
  -1   2 -21  208.48    9.00
   1  -2  21  173.38   51.79
  -2   2 -21   61.59   48.00
   2  -2  21   -1.00   49.50
  -3   2 -21  151.68   42.20
   3  -2  21   45.60   46.40
   4  -2  21   50.39   55.29
   4  -2  21   64.49   34.80
   8   1 -21  127.89   71.89
  -8  -1  21   60.09   83.09
   7   1 -21   88.59   62.39
  -7  -1  21  -35.50   68.59
   6   1 -21   63.79   56.59
  -6  -1  21   72.49   69.29
   5   1 -21  126.79   55.19
  -5  -1  21  116.69   64.39
   4   1 -21   30.10    3.70
   4   1 -21   -6.10   46.00
  -4  -1  21  113.39   58.29
   3   1 -21  205.88    9.30
   3   1 -21  123.79   48.50
  -3  -1  21  224.98   61.59
   2   1 -21   37.10    3.50
   2   1 -21    1.70   43.60
  -2  -1  21   31.80   53.39
   1   1 -21  418.16   17.90
   1   1 -21  486.75   58.99
  -1  -1  21  453.85   66.39
   0   1 -21  -46.00   36.90
   0   1 -21    6.70    2.80
   0  -1  21   -0.70   47.30
  -1   1 -21   40.70   41.30
   1  -1  21   77.59   50.59
  -2   1 -21   83.09   42.20
   2  -1  21  162.48   54.09
   3  -1  21    7.00   55.09
   4  -1  21   91.39   37.90
   4  -1  21  142.89   52.19
   8   0 -21   98.89   72.29
  -8   0  21   71.89   83.99
   7   0 -21   -1.10   61.69
  -7   0  21   58.69   74.59
   6   0 -21   10.80   54.59
  -6   0  21   89.89   65.19
   5   0 -21   20.60   51.89
   5   0 -21   21.40    3.70
  -5   0  21  103.09   62.89
   4   0 -21   39.20    3.80
  -4   0  21   10.20   60.69
   3   0 -21   11.90    3.20
   3   0 -21  -38.60   42.30
  -3   0  21  -12.30   55.09
   2   0 -21  221.38   50.39
   2   0 -21  138.19    7.30
  -2   0  21  204.28   58.69
   1   0 -21    0.90   39.90
   1   0 -21   29.30    3.20
  -1   0  21   23.20   51.89
   0   0 -21   48.90    3.70
   0   0 -21   44.20   39.10
   0   0  21   64.79   51.79
  -1   0 -21  -53.99   36.40
   1   0  21   -2.50   49.20
  -2   0 -21   22.10   41.60
   2   0  21   32.70   51.89
   3   0  21  -25.20   31.70
   3   0  21  -29.50   50.99
   4   0  21   96.39   49.99
   4   0  21   77.99   36.40
   5   0  21   82.69   41.20
   8  -1 -21   55.99   70.49
  -8   1  21  128.99   85.59
   7  -1 -21   61.79   57.09
  -7   1  21  101.69   75.49
   6  -1 -21   77.49    5.00
   6  -1 -21  -30.50   51.79
  -6   1  21  132.49   70.09
   5  -1 -21  -12.70   48.30
   5  -1 -21    7.50    3.50
  -5   1  21   26.80   62.49
   4  -1 -21   55.89   48.10
   4  -1 -21  107.29    6.20
  -4   1  21   70.19   59.49
   3  -1 -21  113.09   46.70
   3  -1 -21   23.10    3.30
  -3   1  21  -61.59   52.59
   2  -1 -21  -18.20   40.60
   2  -1 -21   15.80    3.10
  -2   1  21   33.80   52.39
   1  -1 -21  117.29    6.50
   1  -1 -21  171.58   46.40
  -1   1  21  210.98   57.29
   0  -1 -21  158.88   44.50
   0   1  21  227.98   59.09
  -1  -1 -21  -12.30   42.60
   1   1  21   68.59   54.09
   2   1  21   67.59   53.99
   3   1  21  133.39   52.19
   3   1  21   61.19   34.00
   4   1  21  147.89   42.30
   4   1  21  167.28   58.59
   5   1  21   85.99   40.40
   6   1  21   10.40    4.00
   7   1  21    2.50    3.90
   8  -2 -21   23.60    4.60
   8  -2 -21  -69.09   63.49
  -8   2  21   98.19   84.59
   7  -2 -21   32.20    4.40
   7  -2 -21   26.30   58.29
  -7   2  21  -44.50   72.89
   6  -2 -21  109.79   54.29
  -6   2  21   71.29   69.79
   5  -2 -21   81.29   53.89
   5  -2 -21   74.59    4.90
  -5   2  21  100.99   66.39
   4  -2 -21  -19.20   45.20
   4  -2 -21   13.10    3.30
  -4   2  21   71.69   60.89
   3  -2 -21  157.98   47.80
   3  -2 -21   68.39    4.50
  -3   2  21   64.59   57.09
   2  -2 -21   99.69    5.20
   2  -2 -21   70.59   46.60
  -2   2  21   17.90   54.49
   1  -2 -21    4.60   41.40
  -1   2  21   36.30   54.29
   0  -2 -21   29.60   43.90
   0   2  21   26.50   55.59
   1   2  21   90.59   55.09
   2   2  21  -67.49   50.39
   2   2  21   31.90   35.00
   3   2  21  290.77   61.19
   3   2  21  273.37   43.30
   4   2  21  -17.70   54.99
   4   2  21  -11.10   37.20
   5   2  21    8.00   42.40
   5   2  21   40.90    4.30
   6   2  21    8.20    3.90
   7   2  21    7.10    4.50
   8  -3 -21  -17.00    4.30
   7  -3 -21  -12.60    4.00
   7  -3 -21   25.60   62.99
  -7   3  21   11.70   78.09
   6  -3 -21    0.10    3.70
   6  -3 -21  -78.19   52.29
  -6   3  21 -106.19   67.09
   5  -3 -21   83.19   53.09
  -5   3  21   57.49   67.89
   4  -3 -21   42.70    4.00
   4  -3 -21   -5.20   46.70
  -4   3  21   51.89   59.69
   3  -3 -21   74.99    4.60
   3  -3 -21   28.90   45.20
  -3   3  21  119.49   60.89
   2  -3 -21   22.50   42.90
  -2   3  21  107.39   58.89
   1  -3 -21  387.16   57.19
  -1   3  21  302.27   66.59
   0   3  21  -22.20   54.39
   1   3  21  117.09   57.19
   1   3  21   30.00   35.30
   2   3  21  112.09   56.29
   2   3  21  123.89   41.80
   3   3  21  -65.89   37.40
   3   3  21   51.49   55.99
   4   3  21  100.99    5.70
   4   3  21   56.79   40.00
   5   3  21   43.40    4.40
   5   3  21   72.59   47.60
   6   3  21    1.90    4.00
   8  -4 -21   22.10    4.80
   7  -4 -21  -48.70   93.59
   7  -4 -21    1.70    4.20
  -7   4  21   42.30  123.49
   6  -4 -21  -23.10   55.69
   6  -4 -21    8.10    3.90
  -6   4  21   65.69   74.49
   5  -4 -21  -93.99   50.19
   5  -4 -21    6.90    3.80
  -5   4  21  140.29   71.79
   4  -4 -21    0.10    3.60
   4  -4 -21   81.89   49.99
  -4   4  21   14.20   61.79
   3  -4 -21  -11.50   48.40
  -3   4  21  -16.20   59.69
   2  -4 -21   99.09   49.40
  -2   4  21   27.40   59.49
  -1   4  21   68.29   59.59
   0   4  21  186.38   62.99
   0   4  21  125.89   40.40
   1   4  21   30.20   38.90
   1   4  21  -49.90   53.99
   2   4  21  -13.00   40.70
   2   4  21   89.99   55.99
   3   4  21    4.10   40.70
   3   4  21   -9.30    3.90
   3   4  21   19.20   57.19
   4   4  21   95.49   45.40
   5   4  21    0.90   51.59
   5   4  21   20.50    4.20
   7  -5 -21   14.40    4.60
   6  -5 -21   19.00    4.30
   6  -5 -21   84.69   58.49
  -6   5  21  -34.00   76.79
   5  -5 -21   29.80    4.40
   5  -5 -21  -40.90   55.59
  -5   5  21 -108.29   72.09
   4  -5 -21   47.20   52.79
  -4   5  21   13.20   64.49
   3  -5 -21   52.99   51.49
  -3   5  21  101.09   71.49
  -2   5  21   68.59   65.69
  -1   5  21   34.20   42.00
  -1   5  21  231.48   69.09
   0   5  21  121.99   64.19
   0   5  21   54.99   41.70
   1   5  21   14.70   42.90
   1   5  21  102.89   62.29
   2   5  21   26.40    4.40
   2   5  21  -16.30   41.70
   2   5  21  132.29   63.19
   3   5  21   48.50   42.90
   3   5  21  -36.70   71.69
   3   5  21   -2.00    4.20
   4   5  21   17.60    4.40
   4   5  21  -13.00   49.99
   5   5  21  -71.69   51.19
   5   5  21   25.30    4.20
   5  -6 -21   -9.70   57.69
  -5   6  21  -75.29   74.49
   4  -6 -21   52.09   60.29
  -4   6  21  -58.79   73.09
  -3   6  21 -169.48   69.39
  -2   6  21  -20.30   38.90
  -2   6  21  -68.39   68.19
  -1   6  21    7.30   66.89
  -1   6  21   -8.20   46.70
   0   6  21   79.59   43.60
   0   6  21  -39.90   60.79
   1   6  21   44.00   44.40
   1   6  21  116.49   66.29
   2   6  21   21.00   47.00
   2   6  21  121.99   67.29
   2   6  21   -5.20    4.30
   3   6  21  -44.60   48.50
   3   6  21   54.59    5.00
   4   6  21  -88.99   53.49
   4   6  21   -3.50    4.40
   5   6  21   -1.10   64.89
  -4   7  21   -8.50  126.49
  -3   7  21   39.60   83.49
  -2   7  21   49.20   79.39
  -1   7  21   39.20   74.39
   0   7  21  -59.39   69.19
   1   7  21   18.60    4.90
   1   7  21  207.68   75.39
   1   7  21  -35.10   45.90
   2   7  21   93.99   95.29
   2   7  21   11.60    4.90
   2   7  21   22.80   48.50
   3   7  21 -110.49   54.49
   3   7  21   19.90    5.00
   4   7  21   47.10   59.09
  -2   8  21   43.50   82.99
  -1   8  21  -49.80   82.69
   0   8  21   -5.80   79.69
   1   8  21  128.19   82.79
   2   8  21    8.20    5.30
   0   8 -22    1.40    4.00
  -1   8 -22    4.30    3.70
  -2   8 -22   16.50    3.40
   0   7 -22   32.50    4.00
  -1   7 -22   10.40    3.50
  -2   7 -22    9.00    3.20
   0   6 -22    2.60    3.40
  -1   6 -22   42.60    3.80
  -2   6 -22   -8.00    3.10
   1   5 -22   97.79    5.50
   0   5 -22   37.40    3.80
  -1   5 -22   13.90    3.20
  -2   5 -22    4.80    3.00
   2   4 -22  118.29    6.60
  -2  -4  22   55.39   66.89
   1   4 -22   14.90    3.40
  -1  -4  22   50.59   61.19
   0   4 -22    3.90    3.10
   0  -4  22   -2.90   60.59
  -1   4 -22   18.70    3.10
  -2   4 -22   54.29    4.00
   5   3 -22  -31.20   57.09
  -5  -3  22   56.29   71.89
   4   3 -22   88.39   53.29
  -4  -3  22   78.09   64.29
   3   3 -22   49.50   53.09
  -3  -3  22   21.40   62.19
   2   3 -22  -54.99   44.90
   2   3 -22    8.20    3.30
  -2  -3  22   63.99   57.19
   1   3 -22    4.00    3.20
   1   3 -22    0.30   47.00
  -1  -3  22   -0.70   54.79
   0   3 -22  274.57   53.79
   0   3 -22  276.87   11.80
   0  -3  22  195.68   60.09
  -1   3 -22   48.80   42.00
   1  -3  22   69.59   54.59
   2  -3  22  -47.60   51.59
   7   2 -22   29.40   67.59
  -7  -2  22   53.79   82.39
   6   2 -22   49.60   61.99
  -6  -2  22   60.69   71.99
   5   2 -22  143.89   61.79
  -5  -2  22  -59.89  101.59
   4   2 -22  -64.59   51.59
  -4  -2  22  -66.69   59.59
   3   2 -22    1.10    3.40
   3   2 -22   65.49   50.79
  -3  -2  22    2.00   58.09
   2   2 -22  109.29   50.19
   2   2 -22   73.19    4.70
  -2  -2  22  144.49   60.59
   1   2 -22  237.38   54.99
   1   2 -22  299.17   12.60
  -1  -2  22  225.78   59.49
   0   2 -22   71.99   44.10
   0   2 -22   42.80    3.60
   0  -2  22   51.19   53.59
  -1   2 -22   68.19   46.40
  -1   2 -22  211.28    9.10
   1  -2  22  186.18   59.09
  -2   2 -22  -34.70   59.89
   2  -2  22   21.50   52.19
   3  -2  22  -18.20   59.79
   8   1 -22   59.19   74.49
  -8  -1  22 -103.29   88.49
   7   1 -22   52.19   65.19
  -7  -1  22 -121.49   72.99
   6   1 -22   41.60   61.19
  -6  -1  22   29.00   70.19
   5   1 -22  -69.29   56.79
  -5  -1  22   68.39   68.29
   4   1 -22   46.50   51.19
   4   1 -22  -10.00    3.40
  -4  -1  22  -38.00   60.39
   3   1 -22    7.40   48.50
   3   1 -22   63.79    4.40
  -3  -1  22  109.69   60.39
   2   1 -22    2.00    3.10
   2   1 -22  113.79   49.70
  -2  -1  22  -63.29   55.49
   1   1 -22  150.88   49.70
   1   1 -22  263.37   11.20
  -1  -1  22  283.57   64.49
   0   1 -22   51.99    3.90
   0   1 -22   87.49   45.50
   0  -1  22   79.09   53.19
  -1   1 -22  130.99   46.30
   1  -1  22   64.69   53.79
  -2   1 -22   40.90   47.60
   2  -1  22   49.80   57.69
   3  -1  22   59.69   51.49
   8   0 -22  -71.49   72.69
  -8   0  22   22.80   85.49
   7   0 -22   95.19   68.39
  -7   0  22  -66.69   77.19
   6   0 -22  -15.80   57.49
   6   0 -22    2.70    4.00
  -6   0  22   86.29   71.29
   5   0 -22    4.90    3.60
   5   0 -22   87.59   55.09
  -5   0  22  -45.00   65.09
   4   0 -22   21.20    3.50
   4   0 -22 -113.19   50.19
  -4   0  22   51.39   71.39
   3   0 -22   33.90    3.70
   3   0 -22    3.50   49.90
  -3   0  22   75.59   60.69
   2   0 -22  176.58   50.59
   2   0 -22  147.59    7.60
  -2   0  22  182.48   64.69
   1   0 -22   82.19    4.80
   1   0 -22   43.90   43.80
  -1   0  22  100.59   57.79
   0   0 -22   92.39   45.20
   0   0 -22  170.88    8.20
   0   0  22  202.48   61.19
  -1   0 -22  -15.50   41.70
   1   0  22   39.00   52.99
  -2   0 -22  -18.60   43.30
   2   0  22  -67.19   53.49
   3   0  22  -39.90   55.99
   3   0  22   -5.10   36.50
   4   0  22   71.19   40.40
   8  -1 -22   63.59   75.79
   8  -1 -22   19.00    4.90
  -8   1  22  -62.09   85.79
   7  -1 -22 -163.48   62.29
   7  -1 -22   -3.40    4.20
  -7   1  22   58.59   80.99
   6  -1 -22   -0.50   60.09
   6  -1 -22   30.00    4.20
  -6   1  22   93.99   76.89
   5  -1 -22   44.50   54.99
   5  -1 -22   17.00    3.70
  -5   1  22  -48.00   64.19
   4  -1 -22   38.60   51.59
   4  -1 -22    9.60    3.50
  -4   1  22  -55.29   59.79
   3  -1 -22   11.50    3.30
  -3   1  22   -3.90   64.69
   2  -1 -22   22.50    3.40
   2  -1 -22   41.40   46.00
  -2   1  22  -40.10   56.39
   1  -1 -22   59.29    4.30
   1  -1 -22   67.49   45.90
  -1   1  22  220.38   62.29
   0  -1 -22   74.79   48.10
   0   1  22  221.08   61.89
  -1  -1 -22  -11.70   43.70
   1   1  22  -25.70   55.99
   2   1  22  192.08   60.79
   3   1  22   60.09   59.79
   3   1  22  -37.20   37.10
   4   1  22  -28.10   41.60
   8  -2 -22   14.90    4.80
   7  -2 -22    1.30    4.30
   7  -2 -22  -60.59   63.39
  -7   2  22  -73.09   80.49
   6  -2 -22    3.20   58.89
   6  -2 -22   17.50    4.10
  -6   2  22  -42.60   73.59
   5  -2 -22  152.88   58.89
   5  -2 -22   26.60    3.90
  -5   2  22   -8.90   70.69
   4  -2 -22   30.80    3.80
   4  -2 -22  105.29   53.69
  -4   2  22   18.40   65.69
   3  -2 -22  -24.80   46.40
   3  -2 -22   10.70    3.40
  -3   2  22  -54.59   59.69
   2  -2 -22   19.00    3.40
   2  -2 -22   12.20   58.69
  -2   2  22   11.00   58.69
   1  -2 -22   88.59   47.50
  -1   2  22  121.39   59.09
   0  -2 -22  -48.80   44.90
   0   2  22    0.30   57.79
   1   2  22   -6.10   57.09
   2   2  22   37.70   39.60
   2   2  22   53.29   56.59
   3   2  22  131.39   71.89
   3   2  22   86.99   40.90
   4   2  22  -45.50   39.50
   6   2  22   -5.20    3.70
   7  -3 -22   18.00   66.89
   7  -3 -22    2.20    4.30
  -7   3  22    1.80   82.99
   6  -3 -22   23.20   59.49
   6  -3 -22    9.30    4.00
  -6   3  22  -48.10   79.59
   5  -3 -22    5.70    3.70
   5  -3 -22   -6.30   54.39
  -5   3  22  -25.40   72.49
   4  -3 -22   26.50    3.90
   4  -3 -22   46.60   51.39
  -4   3  22   24.70   67.99
   3  -3 -22   68.89    4.80
   3  -3 -22  109.89   50.59
  -3   3  22   97.59   65.49
   2  -3 -22   14.80   48.00
  -2   3  22  -21.20   60.79
  -1   3  22   31.30   65.49
   0   3  22   71.59   63.59
   1   3  22  155.38   60.69
   1   3  22   -3.00   37.90
   2   3  22   62.89   43.00
   2   3  22   77.19   61.09
   3   3  22   14.00   42.90
   4   3  22   64.59   45.60
   5   3  22   48.80    4.80
   7  -4 -22   -6.70    4.40
   6  -4 -22  -10.50    4.20
   6  -4 -22  -91.89   60.19
  -6   4  22  124.19   86.99
   5  -4 -22    0.20    4.00
   5  -4 -22  -61.79   55.39
  -5   4  22  -32.30   74.39
   4  -4 -22   90.19    5.60
   4  -4 -22   36.60   55.99
  -4   4  22  116.29   73.99
   3  -4 -22   71.19   52.89
  -3   4  22  -30.70   67.59
   2  -4 -22  134.29   56.09
  -2   4  22  203.18   71.59
  -1   4  22  104.59   64.19
   0   4  22   30.10   41.80
   0   4  22  118.39   79.69
   1   4  22  -35.60   40.70
   1   4  22  -22.40   63.09
   2   4  22 -108.99   40.50
   2   4  22  105.79   67.99
   3   4  22  102.19   46.80
   4   4  22   53.89   50.39
   4   4  22   73.79    5.40
   5   4  22    3.90    4.00
   6  -5 -22   26.60    4.80
   5  -5 -22    8.20    4.60
   5  -5 -22  -34.00   58.99
  -5   5  22   91.19   81.29
   4  -5 -22  -11.20   54.99
  -4   5  22   -4.20   76.89
   3  -5 -22   -3.40   56.59
  -3   5  22  -35.90   75.89
  -2   5  22    4.80   72.29
  -1   5  22   27.90   42.50
  -1   5  22   21.60   67.79
   0   5  22   27.10   67.09
   0   5  22   63.59   45.50
   1   5  22  -49.80   43.40
   1   5  22  -27.20   64.39
   2   5  22   26.20   47.10
   3   5  22   82.89   49.60
   4   5  22   44.40    4.80
   4   5  22  -24.00   56.19
   4  -6 -22    5.00   62.49
  -4   6  22  -60.99   86.49
  -3   6  22   31.50   83.39
  -2   6  22  133.49   84.39
  -1   6  22   13.90   53.09
  -1   6  22  -28.60   74.79
   0   6  22  -25.20   46.10
   0   6  22  -67.99   75.19
   1   6  22   92.79   50.49
   1   6  22  229.48   76.39
   2   6  22  130.29   52.19
   3   6  22  125.89   56.49
   3   6  22   87.49    6.30
   4   6  22  -44.50   59.19
  -3   7  22  -99.79   84.29
  -2   7  22 -165.18   80.59
  -1   7  22   33.40   82.89
   0   7  22  -38.40   76.69
   1   7  22 -121.19  106.69
   2   7  22   35.30    5.50
   0   7 -23   39.60    4.40
  -1   7 -23    6.00    3.80
  -2   7 -23    4.20    3.60
   1   6 -23   55.79    4.70
   0   6 -23   -0.50    3.60
  -1   6 -23   37.70    3.90
  -2   6 -23    5.20    3.40
   1   5 -23   27.80    4.00
   0   5 -23   13.00    3.60
  -1   5 -23   19.00    3.40
  -2   5 -23   -2.40    3.20
   2   4 -23   30.90    3.90
   1   4 -23   44.10    4.00
   0   4 -23    7.10    3.30
  -1   4 -23   46.60    4.00
   3   3 -23   -5.40    3.80
   2   3 -23   12.80    3.60
   1   3 -23    4.60    3.40
   0   3 -23  156.18    7.80
  -1   3 -23    7.60    3.20
   5   2 -23  157.58   97.59
  -5  -2  23   67.29   88.89
   4   2 -23  145.19   58.49
  -4  -2  23  108.39   71.19
   3   2 -23   -0.70    3.60
   3   2 -23   -9.80   50.69
  -3  -2  23  -73.99   63.79
   2   2 -23   60.59    4.60
   2   2 -23   39.60   53.59
  -2  -2  23  133.99   69.09
   1   2 -23  111.79   52.79
   1   2 -23  132.89    7.10
  -1  -2  23  176.68   67.59
   0   2 -23   80.79   73.29
   0  -2  23   48.50   66.49
  -1   2 -23  271.07   11.90
   7   1 -23  -67.29   76.09
  -7  -1  23  217.18   95.29
   6   1 -23   96.59   66.29
  -6  -1  23    3.20   79.99
   5   1 -23   29.10    4.20
   5   1 -23  -62.19   55.69
  -5  -1  23  -82.09   70.89
  -4  -1  23   64.29   71.59
   3   1 -23   90.99    5.40
   3   1 -23   82.09   57.29
  -3  -1  23  110.39   64.69
   2   1 -23   61.09   52.89
   2   1 -23   62.09    4.50
  -2  -1  23  140.69   65.79
   1   1 -23   31.50    3.50
   1   1 -23   31.70   48.70
  -1  -1  23   90.69   62.19
   0   1 -23   34.60   46.40
   0   1 -23   22.50    3.30
   0  -1  23   -5.90   59.99
  -1   1 -23  136.69   62.59
   1  -1  23   82.09   63.49
   7   0 -23   95.79   73.89
   7   0 -23   16.40    4.80
  -7   0  23 -194.68   83.29
   6   0 -23 -109.79   63.39
   6   0 -23   -8.40    4.20
  -6   0  23 -182.48   71.39
   5   0 -23    6.10    3.90
   5   0 -23  149.19   60.19
  -5   0  23  -17.00   70.49
   4   0 -23   -9.00   53.29
   4   0 -23   49.30    4.30
  -4   0  23   81.49   68.39
   3   0 -23   -0.40   51.99
   3   0 -23  -19.90    3.40
  -3   0  23   39.10   63.29
   2   0 -23   63.39   49.10
   2   0 -23  123.49    6.70
  -2   0  23   95.79   62.59
   1   0 -23  -26.70   46.70
   1   0 -23   40.90    3.80
  -1   0  23   37.00   60.49
   0   0 -23   76.79   48.60
   0   0  23   28.80   62.49
  -1   0 -23    0.70   46.70
   1   0  23  -98.99   59.29
   3   0  23   45.50   43.30
   7  -1 -23   -3.20   69.59
   7  -1 -23    5.00    4.60
  -7   1  23   40.20   90.49
   6  -1 -23    3.00   62.69
   6  -1 -23   16.40    4.10
  -6   1  23  -26.30   82.69
   5  -1 -23   85.29   60.49
  -5   1  23  103.89   72.79
   4  -1 -23    8.50    3.70
   4  -1 -23   96.29   56.89
  -4   1  23   34.70   71.39
   3  -1 -23  -19.80   50.89
   3  -1 -23    5.40    3.40
  -3   1  23   35.70   69.09
   2  -1 -23  155.78   53.69
   2  -1 -23   80.09    5.00
  -2   1  23   12.20   64.99
   1  -1 -23   27.00   46.30
   1  -1 -23   40.40    4.00
  -1   1  23  137.69   62.99
   0  -1 -23   68.49   52.09
   0   1  23   42.60   64.09
  -1  -1 -23   29.60   47.70
   1   1  23 -117.69   60.89
   3   1  23  107.09   47.10
   7  -2 -23   58.09    5.40
   7  -2 -23   61.79   72.19
  -7   2  23   59.19   90.59
   6  -2 -23   45.90   66.29
   6  -2 -23   21.10    4.30
  -6   2  23    6.70   86.79
   5  -2 -23   74.09   60.39
   5  -2 -23   30.40    4.20
  -5   2  23   15.20   79.89
   4  -2 -23  100.09   56.69
   4  -2 -23   -7.50    3.50
  -4   2  23 -121.59   69.79
   3  -2 -23   -9.00   50.29
   3  -2 -23  -11.20    3.50
  -3   2  23   39.90   64.19
   2  -2 -23   44.50    4.20
   2  -2 -23   32.10   51.89
  -2   2  23   67.59   94.09
   1  -2 -23  -43.80   48.70
  -1   2  23  157.78   66.59
   0  -2 -23  -21.70   49.20
   0   2  23  -64.69   61.29
   1   2  23  156.58   69.09
   2   2  23   47.90   44.10
   3   2  23  213.58   50.79
   7  -3 -23  -13.80    4.50
   6  -3 -23  136.69   66.39
   6  -3 -23   41.20    4.80
  -6   3  23  -81.59   86.09
   5  -3 -23   16.70    4.20
   5  -3 -23   80.09   61.99
  -5   3  23 -115.29   80.19
   4  -3 -23  -39.50   55.99
   4  -3 -23    2.00    3.80
  -4   3  23  -42.40   74.09
   3  -3 -23    9.40    3.80
   3  -3 -23  -85.09   52.79
  -3   3  23   42.40   70.19
   2  -3 -23  -79.49   48.10
  -2   3  23  -63.89   63.29
   1  -3 -23  -30.60   49.70
  -1   3  23  -49.60   74.29
   0   3  23    1.70   64.29
   1   3  23   58.29   45.10
   1   3  23   -1.90   66.49
   2   3  23  -53.89   42.20
   3   3  23   30.70   45.90
   6  -4 -23  -99.59   68.79
   6  -4 -23   -2.10    4.70
  -6   4  23  150.08   96.29
   5  -4 -23   39.40   62.79
   5  -4 -23   -6.20    4.20
  -5   4  23   12.40   83.59
   4  -4 -23  202.08   60.79
   4  -4 -23    9.60    4.40
  -4   4  23  -53.19   78.59
   3  -4 -23   -4.30   56.49
  -3   4  23  -13.30   71.69
   2  -4 -23   -4.50   56.89
  -2   4  23   46.40   74.59
  -1   4  23  245.68   75.49
   0   4  23  -48.90   80.29
   0   4  23  -18.90   43.20
   1   4  23  -21.50   45.00
   1   4  23   75.89   78.09
   2   4  23   45.50   48.50
   3   4  23    0.30   50.29
   4   4  23   74.59    5.80
   5  -5 -23   -2.30   67.99
  -5   5  23  -14.80   86.19
   4  -5 -23   18.40   64.49
  -4   5  23   -6.70   86.89
   3  -5 -23   46.70   60.29
  -3   5  23   12.00   82.39
  -2   5  23  -66.89   79.69
  -1   5  23   98.09   78.79
  -1   5  23   79.69   47.00
   0   5  23  169.48   78.99
   0   5  23  -98.99   45.00
   1   5  23  -42.80   48.00
   2   5  23   11.40   51.49
   3   5  23   37.20   54.79
  -4   6  23  -64.59   90.89
  -3   6  23  -65.69   89.99
  -2   6  23  171.68   87.49
  -1   6  23  148.39   84.69
   0   6  23  128.09   88.59
   1   6  23   46.50   52.19
   2   6  23   37.90   52.09
  -2   7  23  -29.10   89.29
  -1   7  23  203.28   94.99
   1   6 -24   77.89    5.40
   0   6 -24    7.00    4.00
  -1   6 -24   13.50    3.80
  -2   6 -24   14.10    3.80
   2   5 -24  -11.70    4.10
   1   5 -24    2.30    3.90
   0   5 -24    7.70    3.80
  -1   5 -24    6.60    3.70
  -2   5 -24  -12.10    3.70
   3   4 -24   14.40    4.30
   2   4 -24    6.10    3.90
   1   4 -24   32.40    4.10
   0   4 -24   -7.00    3.50
  -1   4 -24   34.10    3.90
   4   3 -24   21.20    4.40
   3   3 -24   17.50    4.00
   2   3 -24   92.29    5.60
   1   3 -24   16.80    3.70
   0   3 -24  236.98   10.90
  -1   3 -24   -3.40    3.50
   5   2 -24    3.70    4.60
   4   2 -24    7.00    4.20
   3   2 -24   30.20    4.10
   2   2 -24   56.09    4.50
   1   2 -24  155.18    8.10
   0   2 -24   17.30    3.60
   6   1 -24    9.60    4.80
   5   1 -24   -1.10    4.30
   4   1 -24   -2.20    3.90
  -3  -1  24   -6.50  121.49
   2   1 -24    6.80    3.60
   1   1 -24    5.00    3.50
   0   1 -24   14.30    3.70
   6   0 -24   55.69   82.69
   6   0 -24    0.40    4.50
  -6   0  24   40.30   97.99
   5   0 -24    3.50   59.29
   5   0 -24    1.60    4.10
  -5   0  24  -50.49   82.49
   4   0 -24   57.29    4.90
   4   0 -24  177.78   59.59
  -4   0  24   68.59   76.79
   3   0 -24  -95.09   94.49
   3   0 -24   -4.00    3.60
  -3   0  24   47.50   74.99
   2   0 -24    5.40   51.19
   2   0 -24   30.40    3.80
  -2   0  24  -25.60   71.39
   1   0 -24   24.60    3.70
  -1   0  24 -155.48   74.09
   6  -1 -24   36.00   70.79
   6  -1 -24   12.40    4.60
  -6   1  24   -6.80   88.19
   5  -1 -24  109.99   69.69
  -5   1  24  142.49   84.59
   4  -1 -24   10.00    4.00
   4  -1 -24   14.50   59.09
  -4   1  24  126.79   79.69
   3  -1 -24    8.70    3.70
   3  -1 -24   27.30   53.29
  -3   1  24   60.29   76.79
   2  -1 -24   61.79   55.59
   2  -1 -24  113.69    6.10
  -2   1  24   85.39   73.49
   1  -1 -24  -27.70   50.49
   1  -1 -24   20.30    3.90
  -1   1  24  -49.60   67.19
   0   1  24  108.19  122.49
   2   1  24   85.39   46.70
   6  -2 -24   -3.10    4.60
   6  -2 -24   36.80   70.69
  -6   2  24  196.88   94.49
   5  -2 -24   95.89   64.49
   5  -2 -24   13.70    4.30
  -5   2  24  -69.59   82.79
   4  -2 -24   16.00    4.10
   4  -2 -24  -11.60   58.29
  -4   2  24   66.89   81.49
   3  -2 -24    0.70    3.80
   3  -2 -24  -25.80   58.29
  -3   2  24  -62.19   74.59
   2  -2 -24   -3.50    3.90
   2  -2 -24  131.99   58.49
  -2   2  24  -28.00   71.09
   1  -2 -24   34.80   52.09
  -1   2  24  107.49   75.99
   0   2  24  -12.70  107.89
   2   2  24    7.50   45.80
   3   2  24   15.90   76.89
   6  -3 -24   46.30   72.29
   6  -3 -24   17.90    4.80
  -6   3  24   81.59   96.39
   5  -3 -24   25.00   65.09
   5  -3 -24   44.10    5.00
  -5   3  24  115.89   91.49
   4  -3 -24   59.19   62.39
   4  -3 -24   -4.00    4.10
  -4   3  24 -106.29   77.09
   3  -3 -24  183.48   60.09
   3  -3 -24   53.19    5.00
  -3   3  24   47.10   81.39
   2  -3 -24  -52.79   54.59
  -2   3  24  -86.29   72.29
   1  -3 -24   40.30   54.39
  -1   3  24  -35.00   75.09
   1   3  24  -24.10   45.70
   2   3  24   25.80   50.29
   3   3  24  -55.49   54.79
   5  -4 -24  -69.99   66.89
  -5   4  24  270.67   95.49
   4  -4 -24  -44.50   60.19
  -4   4  24   47.30   86.29
   3  -4 -24  -29.50   57.79
  -3   4  24   93.39   80.49
   2  -4 -24   57.79   63.29
  -2   4  24   92.19   82.79
  -1   4  24  -40.50   80.69
   0   4  24  -99.69   48.90
   1   4  24  -21.80   50.59
   2   4  24   -1.50   53.59
   3   4  24   13.80   56.59
   4  -5 -24  -18.60   69.29
  -4   5  24  126.99   96.69
   3  -5 -24   -3.80   65.19
  -3   5  24   18.10   88.99
  -2   5  24    1.20   90.19
  -1   5  24  -13.90   92.09
   0   5  24 -111.79   48.00
   1   5  24   80.09   59.79
   2   5  24  -18.80   55.69
  -2   6  24  159.48  101.59
   0   5 -25   -9.40    4.10
  -1   5 -25   50.79    4.40
   2   4 -25    8.80    4.30
   1   4 -25   15.10    4.10
   0   4 -25   79.29    5.20
  -1   4 -25   16.60    3.90
   3   3 -25   -4.00    4.10
   2   3 -25  120.09    6.70
   1   3 -25  -12.50    3.70
   0   3 -25  117.29    6.40
  -1   3 -25   15.20    4.10
   4   2 -25    8.80    4.40
   3   2 -25   43.50    4.70
   2   2 -25   21.90    4.00
   1   2 -25   90.19    5.50
   0   2 -25   21.80    3.90
   5   1 -25   50.59    5.20
   4   1 -25   23.00    4.50
   3   1 -25   40.40    4.60
   2   1 -25   -5.60    3.80
   1   1 -25   10.60    3.80
   0   1 -25    7.80    4.00
   5   0 -25   15.50    4.60
   4   0 -25   40.90    4.70
   3   0 -25   30.70    4.20
   2   0 -25   17.50    4.10
   1   0 -25   54.29    4.70
   5  -1 -25    5.50    4.60
   4  -1 -25    3.00    4.20
   3  -1 -25   34.20    4.50
   2  -1 -25   37.00    4.40
   5  -2 -25  -76.19   91.59
   5  -2 -25    1.10    4.60
  -5   2  25  -30.90  121.39
   4  -2 -25   10.90    4.40
  -4   2  25   12.90  116.89
   3  -2 -25    5.20    4.20
   2   2  25  135.69   86.19
   4  -3 -25  -43.90   63.69
  -4   3  25   87.89   98.89
   3  -3 -25   17.40   90.29
  -3   3  25  -61.89  111.69
   1   3  25 -116.99   53.89
   2   3  25   42.10   59.79
   3  -4 -25   78.39   99.99
  -3   4  25  185.78  112.39
   0   4  25  -59.09   52.19
   1   4  25  -78.99   56.99
   2   4  25  106.49   67.19
   1   2 -26   70.99    5.80
   0   2 -26    3.30    4.10
   2   1 -26    1.60    3.90
   1   1 -26   32.10    4.20
   3   0 -26   22.60    4.20
   2   0 -26    4.90    4.10
   1   0 -26   36.40    4.70
   4  -1 -26   32.00    5.70
   3  -1 -26   -2.30    4.30
   2  -1 -26  148.89    8.60
   3  -2 -26   17.20    4.70
   1   3  26   15.60   62.29
   0   0   0    0.00    0.00
 
_computing_structure_solution     'SHELXT 2014/5 (Sheldrick, 2014)'
;
_shelx_hkl_checksum              2697
_shelx_fab_file
;
    2    0    0     21.30      0.00
    3    0    0      8.48      0.00
    4    0    0     -0.75      0.00
    5    0    0     -1.53      0.00
    6    0    0      1.59      0.00
    7    0    0      0.34      0.00
    8    0    0     -2.19      0.00
    9    0    0     -1.55      0.00
   10    0    0      0.62      0.00
   11    0    0     -3.11      0.00
  -11    1    0     -0.55      0.00
  -10    1    0      1.33      0.00
   -9    1    0      3.06      0.00
   -8    1    0     -0.71      0.00
   -7    1    0      0.77      0.00
   -6    1    0     -3.01      0.00
   -5    1    0      1.33      0.00
   -4    1    0     -4.90      0.00
   -3    1    0    -13.88      0.00
   -2    1    0     18.14      0.00
   -1    1    0    -88.02      0.00
    1    1    0    -48.22      0.00
    2    1    0     -7.45      0.00
    3    1    0     -6.25      0.00
    4    1    0      2.03      0.00
    5    1    0      0.59      0.00
    6    1    0      0.64      0.00
    7    1    0      1.37      0.00
    8    1    0      0.06      0.00
    9    1    0     -2.36      0.00
   10    1    0      0.18      0.00
   11    1    0      0.62      0.00
  -11    2    0     -0.42      0.00
  -10    2    0      0.64      0.00
   -9    2    0      0.94      0.00
   -8    2    0     -1.32      0.00
   -7    2    0      1.56      0.00
   -6    2    0      3.79      0.00
   -5    2    0     -6.29      0.00
   -4    2    0     18.89      0.00
   -3    2    0     -6.03      0.00
   -2    2    0     -3.37      0.00
   -1    2    0     30.58      0.00
    1    2    0     -7.36      0.00
    2    2    0      7.60      0.00
    3    2    0     -0.38      0.00
    4    2    0     -2.71      0.00
    5    2    0     -0.48      0.00
    6    2    0     -0.69      0.00
    7    2    0      0.47      0.00
    8    2    0     -1.38      0.00
    9    2    0      5.20      0.00
   10    2    0     -0.60      0.00
   11    2    0      0.89      0.00
  -11    3    0     -0.93      0.00
  -10    3    0     -1.79      0.00
   -9    3    0     -1.56      0.00
   -8    3    0      1.21      0.00
   -7    3    0     -4.87      0.00
   -6    3    0      3.42      0.00
   -5    3    0      0.97      0.00
   -4    3    0    -13.11      0.00
   -3    3    0      6.95      0.00
   -2    3    0      7.48      0.00
   -1    3    0    -17.56      0.00
    0    3    0      7.43      0.00
    1    3    0      5.28      0.00
    2    3    0      5.11      0.00
    3    3    0      2.42      0.00
    4    3    0     -1.08      0.00
    5    3    0      2.64      0.00
    6    3    0     -4.88      0.00
    7    3    0      3.74      0.00
    8    3    0     -2.43      0.00
    9    3    0     -0.91      0.00
   10    3    0      3.41      0.00
   11    3    0     -4.68      0.00
  -11    4    0     -1.02      0.00
  -10    4    0      0.88      0.00
   -9    4    0     -0.79      0.00
   -8    4    0     -0.23      0.00
   -7    4    0      5.18      0.00
   -6    4    0     -5.43      0.00
   -5    4    0      0.39      0.00
   -4    4    0      1.82      0.00
   -3    4    0     -5.71      0.00
   -2    4    0     -1.70      0.00
   -1    4    0      4.28      0.00
    0    4    0     -2.52      0.00
    1    4    0     -5.02      0.00
    2    4    0     -0.79      0.00
    3    4    0      4.11      0.00
    4    4    0     -3.39      0.00
    5    4    0      3.49      0.00
    6    4    0      1.91      0.00
    7    4    0      0.46      0.00
    8    4    0      0.01      0.00
    9    4    0     -5.08      0.00
   10    4    0      1.47      0.00
   11    4    0     -1.08      0.00
  -11    5    0      2.29      0.00
  -10    5    0      0.75      0.00
   -9    5    0      3.66      0.00
   -8    5    0     -1.52      0.00
   -7    5    0     -1.90      0.00
   -6    5    0      0.79      0.00
   -5    5    0      2.12      0.00
   -4    5    0      3.20      0.00
   -3    5    0      6.67      0.00
   -2    5    0     -1.75      0.00
   -1    5    0     -5.70      0.00
    0    5    0     -4.23      0.00
    1    5    0     -2.09      0.00
    2    5    0     -6.10      0.00
    3    5    0     -2.50      0.00
    4    5    0      0.17      0.00
    5    5    0     -1.17      0.00
    6    5    0     -3.28      0.00
    7    5    0     -0.18      0.00
    8    5    0      1.24      0.00
    9    5    0      1.97      0.00
   10    5    0      0.94      0.00
   11    5    0     -0.53      0.00
   -6    6    0      0.28      0.00
   -5    6    0      0.58      0.00
   -4    6    0     -4.12      0.00
   -3    6    0     -3.45      0.00
   -2    6    0      1.58      0.00
   -1    6    0      4.05      0.00
    0    6    0      3.29      0.00
    1    6    0      0.30      0.00
    2    6    0      5.73      0.00
    3    6    0      0.64      0.00
    4    6    0     -2.40      0.00
    5    6    0      2.11      0.00
    6    6    0     -0.32      0.00
    7    6    0      2.08      0.00
    8    6    0     -0.50      0.00
    9    6    0      0.78      0.00
   10    6    0      2.59      0.00
   11    6    0     -3.69      0.00
   -6    7    0     -3.22      0.00
   -5    7    0     -0.29      0.00
   -4    7    0     -0.63      0.00
   -3    7    0     -0.47      0.00
   -2    7    0     -0.23      0.00
   -1    7    0     -1.39      0.00
    0    7    0      2.62      0.00
    1    7    0      2.37      0.00
    2    7    0     -1.36      0.00
    3    7    0      2.62      0.00
    4    7    0      0.17      0.00
    5    7    0      2.63      0.00
    6    7    0     -1.18      0.00
    7    7    0     -1.20      0.00
    8    7    0     -3.10      0.00
    9    7    0     -1.99      0.00
   10    7    0     -0.76      0.00
   11    7    0     -0.52      0.00
   -6    8    0      0.86      0.00
   -5    8    0      1.57      0.00
   -4    8    0      2.78      0.00
   -3    8    0      0.70      0.00
   -2    8    0      1.98      0.00
   -1    8    0     -0.37      0.00
    0    8    0     -2.79      0.00
    1    8    0     -2.53      0.00
    2    8    0     -1.15      0.00
    3    8    0      0.53      0.00
    4    8    0     -5.19      0.00
    5    8    0      1.04      0.00
    6    8    0     -0.90      0.00
    7    8    0      4.37      0.00
    8    8    0      1.30      0.00
    9    8    0      2.38      0.00
   10    8    0      0.69      0.00
   -6    9    0     -1.63      0.00
   -5    9    0     -0.26      0.00
   -4    9    0     -1.50      0.00
   -3    9    0     -1.41      0.00
   -2    9    0     -0.84      0.00
   -1    9    0     -1.70      0.00
    0    9    0      1.41      0.00
    1    9    0      1.31      0.00
    2    9    0     -0.90      0.00
    3    9    0      3.18      0.00
    4    9    0      0.63      0.00
    5    9    0      2.61      0.00
    6    9    0     -2.03      0.00
    7    9    0     -4.17      0.00
    8    9    0     -0.58      0.00
    9    9    0     -0.04      0.00
   -6   10    0     -1.30      0.00
   -5   10    0     -0.09      0.00
   -4   10    0      2.97      0.00
   -3   10    0     -1.06      0.00
   -2   10    0      1.81      0.00
   -1   10    0      1.38      0.00
    0   10    0     -1.89      0.00
    2   10    0     -2.30      0.00
    3   10    0     -0.27      0.00
    4   10    0     -3.45      0.00
    5   10    0     -0.66      0.00
    6   10    0      3.71      0.00
    7   10    0      1.17      0.00
   -6   11    0      1.42      0.00
   -5   11    0     -2.83      0.00
   -4   11    0     -0.33      0.00
   -3   11    0     -2.28      0.00
   -2   11    0      0.44      0.00
   -1   11    0     -0.24      0.00
    0   11    0      0.84      0.00
    1   11    0      1.30      0.00
    2   11    0      0.95      0.00
    3   11    0      0.30      0.00
    4   11    0      1.66      0.00
   -6   12    0     -0.26      0.00
   -5   12    0      0.95      0.00
   -4   12    0      4.13      0.00
   -3   12    0     -1.07      0.00
   -2   12    0      0.78      0.00
   -1   12    0     -0.60      0.00
    0   12    0      0.18      0.00
   -4   13    0     -0.61      0.00
   -3   13    0     -1.01      0.00
    3  -13    1     -1.67      0.00
    0  -12    1      1.54      0.00
    1  -12    1      0.58      0.00
    2  -12    1      1.81      0.00
    3  -12    1     -0.82      0.00
    4  -12    1      0.00      0.00
    5  -12    1     -2.06      0.00
   -4  -11    1      0.37      0.00
   -3  -11    1     -2.43      0.00
   -2  -11    1     -0.02      0.00
   -1  -11    1     -1.15      0.00
    0  -11    1     -1.60      0.00
    1  -11    1     -2.39      0.00
    2  -11    1     -0.41      0.00
    3  -11    1     -1.81      0.00
    4  -11    1      2.68      0.00
    5  -11    1      1.30      0.00
   -7  -10    1      4.17      0.00
   -6  -10    1      4.36      0.00
   -5  -10    1      0.82      0.00
   -4  -10    1     -2.19      0.00
   -3  -10    1     -0.35      0.00
   -2  -10    1     -0.18      0.00
   -1  -10    1      1.62      0.00
    0  -10    1      2.56      0.00
    1  -10    1      1.50      0.00
    2  -10    1      2.81      0.00
    3  -10    1     -2.80      0.00
    4  -10    1      0.94      0.00
    5  -10    1     -2.37      0.00
   -9   -9    1      2.33      0.00
   -8   -9    1     -2.07      0.00
   -7   -9    1     -5.71      0.00
   -6   -9    1     -1.75      0.00
   -5   -9    1      2.02      0.00
   -4   -9    1      0.50      0.00
   -3   -9    1      3.17      0.00
   -2   -9    1     -2.09      0.00
    0   -9    1     -2.07      0.00
    1   -9    1     -2.61      0.00
    2   -9    1      0.45      0.00
    3   -9    1      0.57      0.00
    4   -9    1     -0.42      0.00
    5   -9    1      1.49      0.00
  -10   -8    1     -1.40      0.00
   -9   -8    1     -1.11      0.00
   -8   -8    1      2.31      0.00
   -7   -8    1      3.37      0.00
   -6   -8    1     -0.33      0.00
   -5   -8    1      0.54      0.00
   -4   -8    1     -3.94      0.00
   -3   -8    1     -0.87      0.00
   -2   -8    1      1.08      0.00
   -1   -8    1     -1.04      0.00
    0   -8    1      1.02      0.00
    1   -8    1      1.11      0.00
    2   -8    1      0.79      0.00
    3   -8    1     -0.63      0.00
    4   -8    1      2.07      0.00
    5   -8    1      0.43      0.00
  -11   -7    1     -1.33      0.00
  -10   -7    1      0.94      0.00
   -9   -7    1      1.12      0.00
   -8   -7    1     -2.70      0.00
   -7   -7    1      0.16      0.00
   -6   -7    1     -2.12      0.00
   -5   -7    1      1.97      0.00
   -4   -7    1      0.41      0.00
   -3   -7    1      3.34      0.00
   -2   -7    1     -0.47      0.00
   -1   -7    1      2.97      0.00
    0   -7    1      1.14      0.00
    1   -7    1     -2.85      0.00
    2   -7    1      0.99      0.00
    3   -7    1     -1.14      0.00
    4   -7    1     -1.91      0.00
    5   -7    1     -0.15      0.00
  -11   -6    1     -2.24      0.00
  -10   -6    1      1.23      0.00
   -9   -6    1      0.04      0.00
   -8   -6    1     -0.33      0.00
   -7   -6    1      1.09      0.00
   -6   -6    1      1.86      0.00
   -5   -6    1      2.68      0.00
   -4   -6    1     -2.81      0.00
   -3   -6    1     -1.14      0.00
   -2   -6    1      1.25      0.00
   -1   -6    1     -3.62      0.00
    0   -6    1      0.41      0.00
    1   -6    1      2.01      0.00
    2   -6    1     -1.66      0.00
    3   -6    1     -1.50      0.00
    4   -6    1     -1.64      0.00
  -11   -5    1     -0.71      0.00
  -10   -5    1      1.42      0.00
   -9   -5    1      1.12      0.00
   -8   -5    1     -0.70      0.00
   -7   -5    1     -1.03      0.00
   -6   -5    1     -5.36      0.00
   -5   -5    1     -2.44      0.00
   -4   -5    1      1.14      0.00
   -3   -5    1     -1.16      0.00
   -2   -5    1     -0.97      0.00
   -1   -5    1      2.14      0.00
    0   -5    1     -0.77      0.00
    1   -5    1      0.64      0.00
    2   -5    1      3.02      0.00
    3   -5    1      7.27      0.00
    4   -5    1      1.06      0.00
    7   -5    1      0.55      0.00
    8   -5    1      0.34      0.00
    9   -5    1      3.67      0.00
   10   -5    1      1.45      0.00
   11   -5    1      3.12      0.00
  -11   -4    1     -2.00      0.00
  -10   -4    1     -1.52      0.00
   -9   -4    1     -2.88      0.00
   -8   -4    1      1.27      0.00
   -7   -4    1      2.48      0.00
   -6   -4    1      4.06      0.00
   -5   -4    1      3.64      0.00
   -4   -4    1     -2.94      0.00
   -3   -4    1      2.09      0.00
   -2   -4    1     -1.62      0.00
   -1   -4    1     -7.28      0.00
    1   -4    1     -1.53      0.00
    2   -4    1     -5.76      0.00
    3   -4    1     -6.85      0.00
    4   -4    1      0.59      0.00
    5   -4    1      0.29      0.00
    6   -4    1     -3.73      0.00
    7   -4    1      4.03      0.00
    8   -4    1     -1.57      0.00
    9   -4    1     -1.21      0.00
   10   -4    1     -0.62      0.00
   11   -4    1     -3.07      0.00
  -11   -3    1     -1.50      0.00
  -10   -3    1      5.79      0.00
   -9   -3    1      0.42      0.00
   -8   -3    1     -2.12      0.00
   -7   -3    1      1.78      0.00
   -6   -3    1     -4.87      0.00
   -5   -3    1      2.03      0.00
   -4   -3    1     -0.92      0.00
   -3   -3    1      3.10      0.00
   -2   -3    1      6.27      0.00
   -1   -3    1      6.68      0.00
    1   -3    1     -8.45      0.00
    2   -3    1      6.41      0.00
    3   -3    1      4.95      0.00
    4   -3    1     -8.60      0.00
    5   -3    1      4.40      0.00
    6   -3    1      0.67      0.00
    7   -3    1     -3.76      0.00
    8   -3    1      0.19      0.00
    9   -3    1     -1.40      0.00
   10   -3    1     -0.48      0.00
   11   -3    1      0.15      0.00
  -11   -2    1     -0.93      0.00
  -10   -2    1     -2.65      0.00
   -9   -2    1      2.69      0.00
   -8   -2    1     -3.86      0.00
   -7   -2    1      1.14      0.00
   -6   -2    1     -1.21      0.00
   -5   -2    1     -0.39      0.00
   -4   -2    1     -1.26      0.00
   -3   -2    1      0.00      0.00
   -2   -2    1      5.81      0.00
   -1   -2    1    -16.14      0.00
    0   -2    1     35.18      0.00
    1   -2    1      9.02      0.00
    3   -2    1      2.73      0.00
    4   -2    1     10.99      0.00
    5   -2    1     -8.10      0.00
    6   -2    1      5.32      0.00
    7   -2    1      1.71      0.00
    8   -2    1      0.31      0.00
    9   -2    1      2.15      0.00
   10   -2    1      1.77      0.00
   11   -2    1      0.30      0.00
  -11   -1    1      1.00      0.00
  -10   -1    1     -0.02      0.00
   -9   -1    1      1.27      0.00
   -8   -1    1      0.73      0.00
   -7   -1    1      1.40      0.00
   -6   -1    1      1.48      0.00
   -5   -1    1     -0.05      0.00
   -4   -1    1     -1.99      0.00
   -3   -1    1    -13.84      0.00
   -2   -1    1     -2.34      0.00
   -1   -1    1    -39.71      0.00
    2   -1    1     21.48      0.00
    3   -1    1    -16.05      0.00
    4   -1    1      2.16      0.00
    5   -1    1      1.07      0.00
    6   -1    1     -3.48      0.00
    7   -1    1      0.98      0.00
    8   -1    1     -1.09      0.00
    9   -1    1      0.44      0.00
   10   -1    1     -1.42      0.00
   11   -1    1     -2.58      0.00
  -11    0    1     -3.74      0.00
  -10    0    1     -1.30      0.00
   -9    0    1     -2.80      0.00
   -8    0    1     -1.84      0.00
   -7    0    1      0.49      0.00
   -6    0    1      1.50      0.00
   -5    0    1     -0.73      0.00
   -4    0    1      5.97      0.00
   -3    0    1     16.85      0.00
   -2    0    1     26.40      0.00
   -1    0    1     38.28      0.00
    1    0    1     -5.98      0.00
    2    0    1      5.73      0.00
    3    0    1      5.71      0.00
    4    0    1     -8.09      0.00
    5    0    1     -0.95      0.00
    6    0    1      0.09      0.00
    7    0    1     -0.81      0.00
    8    0    1     -2.88      0.00
    9    0    1     -0.73      0.00
   10    0    1      2.79      0.00
   11    0    1     -0.39      0.00
  -11    1    1      2.13      0.00
  -10    1    1      6.18      0.00
   -9    1    1      4.61      0.00
   -8    1    1     -0.73      0.00
   -7    1    1      0.00      0.00
   -6    1    1     -3.06      0.00
   -5    1    1      0.05      0.00
   -4    1    1     -7.99      0.00
   -2    1    1      7.67      0.00
   -1    1    1    -97.79      0.00
    1    1    1    -17.34      0.00
    2    1    1      2.35      0.00
    3    1    1      2.41      0.00
    4    1    1      6.73      0.00
    5    1    1      1.74      0.00
    6    1    1      3.02      0.00
    7    1    1      2.19      0.00
    8    1    1      1.63      0.00
    9    1    1     -1.73      0.00
   10    1    1      0.46      0.00
   11    1    1     -0.31      0.00
  -11    2    1     -3.89      0.00
  -10    2    1     -5.76      0.00
   -9    2    1     -1.45      0.00
   -8    2    1     -2.80      0.00
   -7    2    1      1.81      0.00
   -6    2    1      4.43      0.00
   -5    2    1     -3.44      0.00
   -4    2    1     17.30      0.00
   -3    2    1    -10.48      0.00
   -2    2    1     10.65      0.00
   -1    2    1     39.19      0.00
    0    2    1     26.40      0.00
    1    2    1     -9.37      0.00
    2    2    1      1.16      0.00
    3    2    1     -3.69      0.00
    4    2    1     -4.42      0.00
    5    2    1     -2.06      0.00
    6    2    1     -2.86      0.00
    7    2    1      0.81      0.00
    8    2    1     -0.16      0.00
    9    2    1      2.83      0.00
   10    2    1     -1.13      0.00
   11    2    1      0.30      0.00
  -11    3    1      0.75      0.00
  -10    3    1      2.22      0.00
   -9    3    1      0.87      0.00
   -8    3    1      3.27      0.00
   -7    3    1     -5.06      0.00
   -6    3    1      3.03      0.00
   -5    3    1     -4.53      0.00
   -4    3    1     -8.87      0.00
   -3    3    1     10.97      0.00
   -2    3    1      1.45      0.00
   -1    3    1    -20.75      0.00
    0    3    1     12.65      0.00
    1    3    1     -0.05      0.00
    2    3    1      4.44      0.00
    3    3    1      2.90      0.00
    4    3    1     -1.78      0.00
    5    3    1      3.50      0.00
    6    3    1     -3.01      0.00
    7    3    1      2.12      0.00
    8    3    1     -4.24      0.00
    9    3    1     -1.25      0.00
   10    3    1      2.64      0.00
   11    3    1     -2.65      0.00
  -11    4    1     -0.07      0.00
  -10    4    1     -0.22      0.00
   -9    4    1     -2.61      0.00
   -8    4    1      0.29      0.00
   -7    4    1      3.41      0.00
   -6    4    1     -4.61      0.00
   -5    4    1      4.98      0.00
   -4    4    1      2.47      0.00
   -3    4    1     -5.88      0.00
   -2    4    1      3.58      0.00
   -1    4    1      2.85      0.00
    1    4    1     -1.11      0.00
    2    4    1     -1.85      0.00
    3    4    1      3.85      0.00
    4    4    1     -3.15      0.00
    5    4    1      3.41      0.00
    6    4    1     -1.86      0.00
    7    4    1      1.16      0.00
    8    4    1      1.20      0.00
    9    4    1     -2.84      0.00
   10    4    1      4.35      0.00
   11    4    1     -2.73      0.00
  -11    5    1      1.54      0.00
  -10    5    1      1.23      0.00
   -9    5    1      3.95      0.00
   -8    5    1     -2.26      0.00
   -7    5    1     -0.68      0.00
   -6    5    1      1.72      0.00
   -5    5    1     -0.29      0.00
   -4    5    1      0.40      0.00
   -3    5    1      0.76      0.00
   -2    5    1     -7.18      0.00
   -1    5    1     -6.14      0.00
    1    5    1     -2.60      0.00
    2    5    1     -4.03      0.00
    3    5    1     -0.66      0.00
    4    5    1     -0.09      0.00
    5    5    1      0.79      0.00
    6    5    1      0.58      0.00
    7    5    1      1.52      0.00
    8    5    1      2.60      0.00
    9    5    1     -1.77      0.00
   10    5    1     -1.39      0.00
   11    5    1     -0.49      0.00
  -11    6    1     -0.95      0.00
  -10    6    1     -3.54      0.00
   -9    6    1     -2.58      0.00
   -8    6    1      0.52      0.00
   -7    6    1      1.56      0.00
   -6    6    1     -0.69      0.00
   -5    6    1      0.01      0.00
   -4    6    1     -2.49      0.00
   -3    6    1      1.51      0.00
   -2    6    1      6.04      0.00
   -1    6    1      5.96      0.00
    0    6    1      3.97      0.00
    1    6    1      2.43      0.00
    2    6    1      3.33      0.00
    3    6    1      1.37      0.00
    4    6    1     -2.89      0.00
    5    6    1      0.67      0.00
    6    6    1     -3.12      0.00
    7    6    1     -0.48      0.00
    8    6    1     -2.10      0.00
    9    6    1      2.75      0.00
   10    6    1      4.47      0.00
   11    6    1     -2.99      0.00
   -7    7    1     -0.69      0.00
   -6    7    1     -3.77      0.00
   -5    7    1      0.76      0.00
   -4    7    1      0.52      0.00
   -3    7    1     -2.28      0.00
   -2    7    1     -0.40      0.00
   -1    7    1     -2.47      0.00
    0    7    1      2.86      0.00
    1    7    1      0.01      0.00
    2    7    1     -0.50      0.00
    3    7    1      0.65      0.00
    4    7    1     -0.83      0.00
    5    7    1      3.43      0.00
    6    7    1     -0.88      0.00
    7    7    1      0.56      0.00
    8    7    1     -2.19      0.00
    9    7    1     -3.73      0.00
   10    7    1     -0.42      0.00
   -7    8    1      4.14      0.00
   -6    8    1      2.48      0.00
   -5    8    1      1.04      0.00
   -4    8    1      1.79      0.00
   -3    8    1      1.04      0.00
   -2    8    1     -0.68      0.00
   -1    8    1     -0.33      0.00
    0    8    1     -4.68      0.00
    1    8    1     -1.46      0.00
    2    8    1     -2.10      0.00
    3    8    1      3.16      0.00
    4    8    1     -3.87      0.00
    5    8    1      0.69      0.00
    6    8    1     -0.35      0.00
    7    8    1      2.46      0.00
    8    8    1      1.70      0.00
    9    8    1      3.46      0.00
   10    8    1     -0.41      0.00
   -7    9    1     -1.38      0.00
   -6    9    1     -2.72      0.00
   -5    9    1     -0.55      0.00
   -4    9    1     -2.07      0.00
   -3    9    1     -0.72      0.00
   -2    9    1      0.75      0.00
   -1    9    1     -0.22      0.00
    0    9    1      2.45      0.00
    1    9    1      1.55      0.00
    2    9    1     -2.07      0.00
    3    9    1      1.89      0.00
    4    9    1     -0.98      0.00
    5    9    1      3.48      0.00
    6    9    1     -1.08      0.00
    7    9    1     -0.09      0.00
    8    9    1     -1.39      0.00
    9    9    1     -0.81      0.00
   -6   10    1     -0.58      0.00
   -5   10    1      0.59      0.00
   -4   10    1      3.69      0.00
   -3   10    1     -2.08      0.00
   -2   10    1     -1.13      0.00
   -1   10    1     -0.62      0.00
    0   10    1     -2.72      0.00
    1   10    1      1.95      0.00
    2   10    1     -0.09      0.00
    3   10    1      1.23      0.00
    4   10    1     -2.68      0.00
    5   10    1     -2.14      0.00
    6   10    1      0.31      0.00
    7   10    1     -3.67      0.00
   -6   11    1      0.83      0.00
   -5   11    1     -5.05      0.00
   -4   11    1     -0.73      0.00
   -3   11    1      0.38      0.00
   -2   11    1      3.90      0.00
   -1   11    1      4.16      0.00
    0   11    1      1.23      0.00
    2   11    1     -1.66      0.00
    3   11    1      0.14      0.00
    4   11    1      2.42      0.00
   -6   12    1      2.05      0.00
   -5   12    1      2.92      0.00
   -4   12    1      4.55      0.00
   -3   12    1     -3.08      0.00
   -2   12    1     -2.96      0.00
   -1   12    1     -3.85      0.00
    0   12    1     -1.90      0.00
   -4   13    1      0.06      0.00
   -3   13    1      0.01      0.00
    5  -13    2      1.67      0.00
    0  -12    2      4.55      0.00
    1  -12    2      0.56      0.00
    2  -12    2      1.61      0.00
    3  -12    2     -2.08      0.00
    4  -12    2     -1.50      0.00
    5  -12    2     -2.06      0.00
   -4  -11    2     -1.38      0.00
   -3  -11    2     -3.04      0.00
   -2  -11    2      1.93      0.00
   -1  -11    2     -1.96      0.00
    0  -11    2     -3.40      0.00
    1  -11    2     -3.34      0.00
    2  -11    2     -0.12      0.00
    3  -11    2     -0.36      0.00
    4  -11    2      2.71      0.00
    5  -11    2      1.98      0.00
   -7  -10    2      2.92      0.00
   -6  -10    2      4.33      0.00
   -5  -10    2      0.60      0.00
   -4  -10    2      1.47      0.00
   -3  -10    2     -1.16      0.00
   -2  -10    2     -0.45      0.00
   -1  -10    2      0.97      0.00
    0  -10    2      3.46      0.00
    1  -10    2      1.42      0.00
    2  -10    2      2.78      0.00
    3  -10    2     -3.81      0.00
    4  -10    2      0.13      0.00
    5  -10    2     -1.50      0.00
   -9   -9    2      2.44      0.00
   -8   -9    2     -3.40      0.00
   -7   -9    2     -5.80      0.00
   -6   -9    2     -3.85      0.00
   -5   -9    2     -0.76      0.00
   -4   -9    2     -2.20      0.00
   -3   -9    2      1.50      0.00
   -2   -9    2     -0.63      0.00
   -1   -9    2     -2.02      0.00
    0   -9    2     -0.06      0.00
    1   -9    2     -3.84      0.00
    2   -9    2      2.46      0.00
    3   -9    2      1.67      0.00
    4   -9    2      1.38      0.00
    5   -9    2      1.07      0.00
  -10   -8    2     -3.85      0.00
   -9   -8    2     -1.24      0.00
   -8   -8    2      3.60      0.00
   -7   -8    2      3.82      0.00
   -6   -8    2      3.69      0.00
   -5   -8    2      3.69      0.00
   -4   -8    2      0.62      0.00
   -3   -8    2      1.33      0.00
   -2   -8    2      2.31      0.00
    0   -8    2      0.04      0.00
    1   -8    2      2.28      0.00
    2   -8    2     -1.81      0.00
    3   -8    2     -1.69      0.00
    4   -8    2     -1.64      0.00
  -11   -7    2      0.04      0.00
  -10   -7    2      3.97      0.00
   -9   -7    2      0.61      0.00
   -8   -7    2     -2.61      0.00
   -7   -7    2     -1.81      0.00
   -6   -7    2     -3.77      0.00
   -5   -7    2     -2.12      0.00
   -4   -7    2     -1.94      0.00
   -3   -7    2     -1.11      0.00
   -2   -7    2     -2.02      0.00
   -1   -7    2      0.78      0.00
    0   -7    2      0.86      0.00
    1   -7    2     -2.90      0.00
    2   -7    2      2.30      0.00
    3   -7    2      0.30      0.00
    4   -7    2      0.34      0.00
  -11   -6    2     -2.98      0.00
  -10   -6    2     -1.57      0.00
   -9   -6    2      0.59      0.00
   -8   -6    2     -0.05      0.00
   -7   -6    2      2.50      0.00
   -6   -6    2      2.01      0.00
   -5   -6    2      3.77      0.00
   -4   -6    2     -1.90      0.00
   -3   -6    2      1.33      0.00
   -2   -6    2      0.40      0.00
   -1   -6    2     -3.59      0.00
    0   -6    2     -1.45      0.00
    1   -6    2      0.31      0.00
    2   -6    2     -2.35      0.00
    3   -6    2     -1.49      0.00
    4   -6    2     -2.10      0.00
  -11   -5    2     -0.44      0.00
  -10   -5    2      1.58      0.00
   -9   -5    2      0.84      0.00
   -8   -5    2     -1.61      0.00
   -7   -5    2     -2.52      0.00
   -6   -5    2     -4.11      0.00
   -5   -5    2     -1.70      0.00
   -4   -5    2      2.26      0.00
   -3   -5    2     -1.00      0.00
   -2   -5    2      1.67      0.00
   -1   -5    2      4.12      0.00
    0   -5    2      3.81      0.00
    1   -5    2      4.22      0.00
    2   -5    2      2.88      0.00
    3   -5    2      6.95      0.00
    9   -5    2      3.55      0.00
   10   -5    2      0.39      0.00
   11   -5    2     -0.46      0.00
  -11   -4    2     -0.48      0.00
  -10   -4    2     -1.33      0.00
   -9   -4    2     -0.86      0.00
   -8   -4    2      1.50      0.00
   -7   -4    2      4.19      0.00
   -6   -4    2      3.76      0.00
   -5   -4    2      1.78      0.00
   -4   -4    2     -3.73      0.00
   -3   -4    2      1.22      0.00
   -2   -4    2      0.03      0.00
   -1   -4    2     -7.02      0.00
    0   -4    2     -6.92      0.00
    1   -4    2     -4.17      0.00
    2   -4    2     -5.99      0.00
    6   -4    2     -3.80      0.00
    7   -4    2      3.92      0.00
    8   -4    2     -1.16      0.00
    9   -4    2     -1.75      0.00
   10   -4    2     -0.46      0.00
   11   -4    2     -0.11      0.00
  -11   -3    2     -0.75      0.00
  -10   -3    2      3.05      0.00
   -9   -3    2      0.68      0.00
   -8   -3    2     -2.45      0.00
   -7   -3    2     -0.03      0.00
   -6   -3    2     -5.04      0.00
   -5   -3    2      1.99      0.00
   -4   -3    2      0.84      0.00
   -3   -3    2     -1.11      0.00
   -2   -3    2      1.48      0.00
   -1   -3    2      1.33      0.00
    0   -3    2     15.51      0.00
    1   -3    2     -3.35      0.00
    2   -3    2      5.51      0.00
    5   -3    2      5.42      0.00
    6   -3    2     -0.10      0.00
    7   -3    2     -4.51      0.00
    8   -3    2     -1.52      0.00
    9   -3    2     -0.21      0.00
   10   -3    2      1.62      0.00
   11   -3    2     -1.19      0.00
  -11   -2    2     -0.90      0.00
  -10   -2    2     -2.18      0.00
   -9   -2    2      1.88      0.00
   -8   -2    2     -4.89      0.00
   -7   -2    2      1.54      0.00
   -6   -2    2      0.62      0.00
   -5   -2    2      0.13      0.00
   -4   -2    2     -2.15      0.00
   -3   -2    2      5.09      0.00
   -2   -2    2     10.10      0.00
   -1   -2    2    -17.05      0.00
    0   -2    2      9.05      0.00
    1   -2    2     -0.93      0.00
    3   -2    2      6.70      0.00
    4   -2    2      3.75      0.00
    5   -2    2     -7.31      0.00
    6   -2    2      3.87      0.00
    7   -2    2      3.86      0.00
    8   -2    2      2.99      0.00
    9   -2    2      0.69      0.00
   10   -2    2     -0.59      0.00
   11   -2    2     -0.33      0.00
  -11   -1    2      0.41      0.00
  -10   -1    2     -0.14      0.00
   -9   -1    2      3.77      0.00
   -8   -1    2      1.78      0.00
   -7   -1    2      2.50      0.00
   -6   -1    2     -0.05      0.00
   -5   -1    2     -1.49      0.00
   -4   -1    2     -1.31      0.00
   -3   -1    2    -18.35      0.00
   -2   -1    2      4.91      0.00
   -1   -1    2    -18.15      0.00
    1   -1    2    -11.27      0.00
    2   -1    2     18.13      0.00
    3   -1    2    -11.42      0.00
    4   -1    2      6.01      0.00
    5   -1    2      0.15      0.00
    6   -1    2     -0.22      0.00
    7   -1    2     -0.91      0.00
    8   -1    2     -3.09      0.00
    9   -1    2      0.46      0.00
   10   -1    2     -0.20      0.00
   11   -1    2      0.19      0.00
  -11    0    2     -1.61      0.00
  -10    0    2     -2.80      0.00
   -9    0    2     -2.86      0.00
   -8    0    2     -2.88      0.00
   -7    0    2     -1.91      0.00
   -6    0    2      2.67      0.00
   -5    0    2      0.56      0.00
   -4    0    2      7.58      0.00
   -3    0    2     15.67      0.00
   -2    0    2     12.22      0.00
   -1    0    2     -1.64      0.00
    0    0    2     40.93      0.00
    1    0    2    -29.49      0.00
    2    0    2     -0.25      0.00
    3    0    2     -0.98      0.00
    4    0    2     -8.79      0.00
    5    0    2     -0.28      0.00
    6    0    2     -4.37      0.00
    7    0    2     -0.50      0.00
    8    0    2     -1.29      0.00
    9    0    2     -0.63      0.00
   10    0    2      2.95      0.00
   11    0    2     -2.58      0.00
  -11    1    2      1.59      0.00
  -10    1    2      7.28      0.00
   -9    1    2      3.02      0.00
   -8    1    2     -0.36      0.00
   -7    1    2      0.91      0.00
   -6    1    2     -2.78      0.00
   -5    1    2     -0.48      0.00
   -4    1    2     -9.33      0.00
   -3    1    2    -17.40      0.00
   -2    1    2     17.85      0.00
   -1    1    2    -47.70      0.00
    0    1    2     16.66      0.00
    1    1    2      2.66      0.00
    2    1    2      3.81      0.00
    3    1    2     12.58      0.00
    4    1    2      4.03      0.00
    5    1    2      2.38      0.00
    6    1    2      6.45      0.00
    7    1    2      2.32      0.00
    8    1    2      2.51      0.00
    9    1    2     -2.33      0.00
   10    1    2     -1.33      0.00
   11    1    2      1.70      0.00
  -11    2    2     -6.16      0.00
  -10    2    2     -7.25      0.00
   -9    2    2     -0.28      0.00
   -8    2    2     -1.45      0.00
   -7    2    2      2.20      0.00
   -6    2    2      3.54      0.00
   -5    2    2     -3.95      0.00
   -4    2    2     16.04      0.00
   -3    2    2    -12.40      0.00
   -2    2    2     11.25      0.00
   -1    2    2      2.67      0.00
    0    2    2     -0.28      0.00
    1    2    2     -8.05      0.00
    2    2    2     -1.66      0.00
    3    2    2     -8.74      0.00
    4    2    2     -1.39      0.00
    5    2    2     -3.20      0.00
    6    2    2     -4.05      0.00
    7    2    2     -0.07      0.00
    8    2    2     -1.39      0.00
    9    2    2      2.79      0.00
   10    2    2      1.41      0.00
   11    2    2      1.19      0.00
  -11    3    2      4.92      0.00
  -10    3    2      4.05      0.00
   -9    3    2      0.74      0.00
   -8    3    2      1.95      0.00
   -7    3    2     -6.50      0.00
   -6    3    2      4.14      0.00
   -5    3    2     -4.10      0.00
   -4    3    2     -3.46      0.00
   -3    3    2      7.82      0.00
   -2    3    2     -2.69      0.00
   -1    3    2     -3.34      0.00
    0    3    2      9.24      0.00
    1    3    2     -6.85      0.00
    2    3    2      2.78      0.00
    3    3    2      3.53      0.00
    4    3    2     -3.51      0.00
    5    3    2      3.98      0.00
    6    3    2     -3.21      0.00
    7    3    2      2.43      0.00
    8    3    2     -1.99      0.00
    9    3    2     -1.93      0.00
   10    3    2     -0.46      0.00
   11    3    2     -4.11      0.00
  -11    4    2     -2.70      0.00
  -10    4    2     -1.09      0.00
   -9    4    2     -3.42      0.00
   -8    4    2      2.36      0.00
   -7    4    2      2.19      0.00
   -6    4    2     -4.00      0.00
   -5    4    2      4.18      0.00
   -4    4    2      0.09      0.00
   -3    4    2     -2.88      0.00
   -2    4    2      7.66      0.00
   -1    4    2     -2.77      0.00
    0    4    2      6.75      0.00
    1    4    2      4.84      0.00
    2    4    2     -1.16      0.00
    3    4    2      4.75      0.00
    4    4    2     -2.10      0.00
    5    4    2      3.73      0.00
    6    4    2     -1.80      0.00
    7    4    2      0.74      0.00
    8    4    2     -0.37      0.00
    9    4    2     -1.35      0.00
   10    4    2      5.52      0.00
   11    4    2     -0.11      0.00
  -10    5    2      1.49      0.00
   -9    5    2      2.20      0.00
   -8    5    2     -2.56      0.00
   -7    5    2      1.04      0.00
   -6    5    2      1.78      0.00
   -5    5    2     -1.80      0.00
   -4    5    2     -0.28      0.00
   -3    5    2     -4.38      0.00
   -2    5    2     -6.76      0.00
   -1    5    2     -4.06      0.00
    0    5    2     -8.59      0.00
    1    5    2     -3.10      0.00
    2    5    2     -2.47      0.00
    3    5    2      0.17      0.00
    4    5    2     -1.86      0.00
    5    5    2      1.56      0.00
    6    5    2      0.16      0.00
    7    5    2      2.91      0.00
    8    5    2      3.39      0.00
    9    5    2     -3.85      0.00
   10    5    2     -0.66      0.00
   11    5    2     -1.87      0.00
  -12    6    2     -1.32      0.00
  -10    6    2     -2.98      0.00
   -9    6    2     -0.70      0.00
   -8    6    2      1.19      0.00
   -7    6    2      0.38      0.00
   -6    6    2     -0.70      0.00
   -5    6    2      1.22      0.00
   -4    6    2      1.13      0.00
   -3    6    2      5.95      0.00
   -2    6    2      4.94      0.00
   -1    6    2      4.08      0.00
    0    6    2      4.03      0.00
    1    6    2      1.90      0.00
    2    6    2     -0.07      0.00
    3    6    2      0.60      0.00
    4    6    2     -2.02      0.00
    5    6    2      0.41      0.00
    6    6    2     -2.90      0.00
    7    6    2     -3.30      0.00
    8    6    2     -1.71      0.00
    9    6    2      3.53      0.00
   10    6    2      3.65      0.00
  -11    7    2      1.21      0.00
  -10    7    2      1.89      0.00
   -9    7    2      1.02      0.00
   -8    7    2     -2.19      0.00
   -7    7    2     -1.82      0.00
   -6    7    2     -3.59      0.00
   -5    7    2      0.93      0.00
   -4    7    2     -1.93      0.00
   -3    7    2     -4.69      0.00
   -2    7    2     -0.52      0.00
   -1    7    2     -0.96      0.00
    1    7    2      0.42      0.00
    2    7    2     -0.31      0.00
    3    7    2      2.14      0.00
    4    7    2     -2.20      0.00
    5    7    2      2.56      0.00
    6    7    2     -0.67      0.00
    7    7    2      3.11      0.00
    8    7    2     -1.35      0.00
    9    7    2     -4.70      0.00
   10    7    2      0.80      0.00
   -8    8    2      0.50      0.00
   -7    8    2      7.34      0.00
   -6    8    2      2.07      0.00
   -5    8    2     -0.83      0.00
   -4    8    2      1.20      0.00
   -3    8    2      1.61      0.00
   -2    8    2     -0.37      0.00
   -1    8    2     -1.41      0.00
    0    8    2     -2.91      0.00
    1    8    2     -1.46      0.00
    2    8    2     -0.45      0.00
    3    8    2      2.45      0.00
    4    8    2     -2.08      0.00
    5    8    2      1.85      0.00
    6    8    2      0.33      0.00
    7    8    2      0.42      0.00
    8    8    2      1.17      0.00
    9    8    2      2.98      0.00
   10    8    2     -1.10      0.00
   -7    9    2     -4.47      0.00
   -6    9    2     -1.64      0.00
   -5    9    2      1.82      0.00
   -4    9    2      0.12      0.00
   -3    9    2      1.02      0.00
   -2    9    2     -0.99      0.00
   -1    9    2      2.16      0.00
    0    9    2      2.20      0.00
    1    9    2      2.86      0.00
    2    9    2     -4.17      0.00
    3    9    2      1.76      0.00
    4    9    2     -1.41      0.00
    5    9    2      1.85      0.00
    6    9    2     -1.42      0.00
    7    9    2      0.23      0.00
    8    9    2     -1.79      0.00
    9    9    2     -0.01      0.00
   -7   10    2      4.10      0.00
   -6   10    2     -1.18      0.00
   -5   10    2     -1.09      0.00
   -4   10    2     -0.34      0.00
   -3   10    2     -3.04      0.00
   -2   10    2      0.37      0.00
   -1   10    2     -1.53      0.00
    0   10    2     -3.19      0.00
    1   10    2      1.16      0.00
    2   10    2      1.46      0.00
    3   10    2      1.73      0.00
    4   10    2     -2.89      0.00
    5   10    2     -1.85      0.00
    6   10    2     -0.63      0.00
    7   10    2     -1.80      0.00
   -7   11    2     -0.32      0.00
   -6   11    2      0.86      0.00
   -5   11    2     -4.64      0.00
   -4   11    2      3.31      0.00
   -3   11    2      1.59      0.00
   -2   11    2      1.82      0.00
   -1   11    2      2.89      0.00
    0   11    2     -0.18      0.00
    1   11    2     -0.02      0.00
    2   11    2     -2.97      0.00
    3   11    2     -1.07      0.00
    4   11    2      3.10      0.00
   -7   12    2     -1.46      0.00
   -6   12    2      3.93      0.00
   -5   12    2      3.15      0.00
   -4   12    2      1.52      0.00
   -3   12    2     -3.65      0.00
   -2   12    2     -1.77      0.00
   -4   13    2      0.91      0.00
   -3   13    2      0.48      0.00
   -2   13    2      1.46      0.00
    5  -13    3      1.19      0.00
    0  -12    3      3.49      0.00
    1  -12    3     -2.17      0.00
    2  -12    3      2.51      0.00
    3  -12    3     -2.59      0.00
    4  -12    3     -2.59      0.00
    5  -12    3     -0.89      0.00
   -4  -11    3     -1.16      0.00
   -3  -11    3     -0.76      0.00
   -2  -11    3      4.74      0.00
   -1  -11    3     -1.67      0.00
    0  -11    3      1.69      0.00
    1  -11    3     -0.12      0.00
    2  -11    3      0.42      0.00
    3  -11    3      0.02      0.00
    4  -11    3      3.13      0.00
    5  -11    3      2.31      0.00
   -7  -10    3     -2.93      0.00
   -6  -10    3      0.65      0.00
   -5  -10    3      0.13      0.00
   -4  -10    3      3.11      0.00
   -3  -10    3     -2.99      0.00
   -2  -10    3     -0.73      0.00
   -1  -10    3     -0.08      0.00
    0  -10    3     -1.80      0.00
    1  -10    3     -2.05      0.00
    2  -10    3      2.82      0.00
    3  -10    3     -2.45      0.00
    4  -10    3     -0.62      0.00
    5  -10    3     -1.04      0.00
   -9   -9    3      0.81      0.00
   -8   -9    3     -0.45      0.00
   -7   -9    3     -3.27      0.00
   -6   -9    3     -0.50      0.00
   -5   -9    3     -2.44      0.00
   -4   -9    3     -0.61      0.00
   -3   -9    3      1.64      0.00
   -2   -9    3      0.91      0.00
   -1   -9    3     -1.28      0.00
    0   -9    3      4.80      0.00
    1   -9    3     -2.07      0.00
    2   -9    3      1.80      0.00
    3   -9    3      0.50      0.00
    4   -9    3      0.70      0.00
  -10   -8    3     -5.33      0.00
   -9   -8    3     -0.41      0.00
   -8   -8    3      3.66      0.00
   -7   -8    3      4.78      0.00
   -6   -8    3      3.85      0.00
   -5   -8    3      4.37      0.00
   -4   -8    3     -0.10      0.00
   -3   -8    3     -0.39      0.00
   -2   -8    3      2.07      0.00
   -1   -8    3     -0.70      0.00
    0   -8    3     -1.79      0.00
    1   -8    3      0.46      0.00
    2   -8    3     -1.43      0.00
    3   -8    3     -1.28      0.00
    4   -8    3     -1.91      0.00
  -11   -7    3      2.51      0.00
  -10   -7    3      5.08      0.00
   -9   -7    3      0.16      0.00
   -8   -7    3     -3.13      0.00
   -7   -7    3     -5.24      0.00
   -6   -7    3     -3.96      0.00
   -5   -7    3     -4.77      0.00
   -4   -7    3     -1.42      0.00
   -3   -7    3     -1.90      0.00
   -2   -7    3     -3.29      0.00
    0   -7    3     -0.34      0.00
    1   -7    3     -0.45      0.00
    2   -7    3      0.73      0.00
    3   -7    3      1.76      0.00
    4   -7    3      0.23      0.00
  -11   -6    3     -4.24      0.00
  -10   -6    3     -1.13      0.00
   -9   -6    3      0.68      0.00
   -8   -6    3      0.74      0.00
   -7   -6    3      2.18      0.00
   -6   -6    3      1.71      0.00
   -5   -6    3      4.65      0.00
   -4   -6    3      0.32      0.00
   -3   -6    3      3.04      0.00
   -2   -6    3      1.29      0.00
   -1   -6    3     -3.51      0.00
    0   -6    3     -0.71      0.00
    1   -6    3     -0.81      0.00
    2   -6    3     -0.42      0.00
    3   -6    3     -0.28      0.00
  -11   -5    3      0.20      0.00
  -10   -5    3     -2.03      0.00
   -9   -5    3     -0.61      0.00
   -8   -5    3     -2.44      0.00
   -7   -5    3      1.53      0.00
   -6   -5    3     -1.25      0.00
   -5   -5    3     -1.00      0.00
   -4   -5    3     -0.12      0.00
   -3   -5    3     -0.85      0.00
   -2   -5    3      4.21      0.00
   -1   -5    3      5.72      0.00
    0   -5    3      5.59      0.00
    1   -5    3      4.79      0.00
    2   -5    3      1.23      0.00
    3   -5    3      2.92      0.00
  -11   -4    3      1.08      0.00
  -10   -4    3      2.07      0.00
   -9   -4    3      4.35      0.00
   -8   -4    3      2.62      0.00
   -7   -4    3      0.14      0.00
   -6   -4    3      0.50      0.00
   -5   -4    3      0.40      0.00
   -4   -4    3     -1.61      0.00
   -3   -4    3     -1.94      0.00
   -2   -4    3     -4.37      0.00
   -1   -4    3    -11.25      0.00
    0   -4    3     -9.79      0.00
    1   -4    3     -4.61      0.00
    2   -4    3     -6.47      0.00
    7   -4    3      3.45      0.00
    8   -4    3     -0.82      0.00
    9   -4    3      0.98      0.00
   10   -4    3      4.23      0.00
   11   -4    3      3.48      0.00
  -11   -3    3     -0.01      0.00
  -10   -3    3     -1.14      0.00
   -9   -3    3     -2.92      0.00
   -8   -3    3     -5.56      0.00
   -7   -3    3      1.12      0.00
   -6   -3    3     -2.82      0.00
   -5   -3    3      1.25      0.00
   -4   -3    3      0.10      0.00
   -3   -3    3     -0.05      0.00
   -2   -3    3      7.14      0.00
   -1   -3    3      6.55      0.00
    0   -3    3     15.85      0.00
    1   -3    3     -1.23      0.00
    2   -3    3      4.89      0.00
    5   -3    3      4.49      0.00
    6   -3    3      0.63      0.00
    7   -3    3     -2.58      0.00
    8   -3    3      0.14      0.00
    9   -3    3     -0.54      0.00
   10   -3    3     -0.63      0.00
   11   -3    3     -3.17      0.00
  -11   -2    3     -0.94      0.00
  -10   -2    3     -2.33      0.00
   -9   -2    3      3.58      0.00
   -8   -2    3     -1.98      0.00
   -7   -2    3      2.33      0.00
   -6   -2    3      1.00      0.00
   -5   -2    3      0.72      0.00
   -4   -2    3     -0.39      0.00
   -3   -2    3      3.29      0.00
   -2   -2    3      3.77      0.00
   -1   -2    3    -27.42      0.00
    0   -2    3      2.13      0.00
    1   -2    3      0.79      0.00
    2   -2    3     -5.57      0.00
    3   -2    3      5.35      0.00
    4   -2    3      0.63      0.00
    5   -2    3     -5.49      0.00
    6   -2    3      2.59      0.00
    7   -2    3      2.28      0.00
    8   -2    3      0.03      0.00
    9   -2    3     -3.16      0.00
   10   -2    3     -1.90      0.00
   11   -2    3     -0.90      0.00
  -11   -1    3      0.52      0.00
  -10   -1    3      0.87      0.00
   -9   -1    3      5.22      0.00
   -8   -1    3     -0.17      0.00
   -7   -1    3      0.57      0.00
   -6   -1    3     -0.95      0.00
   -5   -1    3     -1.34      0.00
   -4   -1    3     -2.23      0.00
   -3   -1    3    -13.69      0.00
   -2   -1    3     17.42      0.00
   -1   -1    3     13.05      0.00
    0   -1    3     15.28      0.00
    1   -1    3     -2.00      0.00
    2   -1    3      2.83      0.00
    3   -1    3     -4.38      0.00
    4   -1    3      5.73      0.00
    5   -1    3      0.45      0.00
    6   -1    3     -0.33      0.00
    7   -1    3     -2.04      0.00
    8   -1    3     -0.22      0.00
    9   -1    3      4.68      0.00
   10   -1    3      2.88      0.00
   11   -1    3      3.22      0.00
  -11    0    3      0.25      0.00
  -10    0    3     -3.58      0.00
   -9    0    3     -3.34      0.00
   -8    0    3     -1.99      0.00
   -7    0    3     -0.39      0.00
   -6    0    3      4.14      0.00
   -5    0    3     -0.63      0.00
   -4    0    3      8.49      0.00
   -3    0    3      5.84      0.00
   -2    0    3     -9.67      0.00
   -1    0    3    -45.59      0.00
    0    0    3      3.31      0.00
    2    0    3      5.39      0.00
    3    0    3     -4.05      0.00
    4    0    3     -6.48      0.00
    5    0    3     -2.28      0.00
    6    0    3     -2.88      0.00
    7    0    3      2.46      0.00
    8    0    3     -1.36      0.00
    9    0    3     -2.93      0.00
   10    0    3      0.04      0.00
   11    0    3     -3.41      0.00
  -11    1    3      0.20      0.00
  -10    1    3      5.19      0.00
   -9    1    3      2.07      0.00
   -8    1    3      0.05      0.00
   -7    1    3     -1.22      0.00
   -6    1    3     -3.05      0.00
   -5    1    3      0.53      0.00
   -4    1    3     -9.67      0.00
   -3    1    3     -7.32      0.00
   -2    1    3     36.93      0.00
   -1    1    3      8.19      0.00
    0    1    3     44.88      0.00
    1    1    3     12.68      0.00
    2    1    3      1.30      0.00
    3    1    3     14.24      0.00
    4    1    3      0.78      0.00
    5    1    3      6.23      0.00
    6    1    3      4.41      0.00
    7    1    3     -0.72      0.00
    8    1    3      2.71      0.00
    9    1    3     -2.07      0.00
   10    1    3     -0.74      0.00
   11    1    3      1.30      0.00
  -11    2    3     -5.98      0.00
  -10    2    3     -4.31      0.00
   -9    2    3      0.34      0.00
   -8    2    3     -1.20      0.00
   -7    2    3      2.62      0.00
   -6    2    3      2.06      0.00
   -5    2    3     -4.84      0.00
   -4    2    3     15.19      0.00
   -3    2    3    -16.50      0.00
   -2    2    3     -2.41      0.00
   -1    2    3    -34.55      0.00
    0    2    3    -18.73      0.00
    1    2    3    -10.97      0.00
    2    2    3     -6.83      0.00
    3    2    3     -5.98      0.00
    4    2    3      0.59      0.00
    5    2    3     -7.04      0.00
    6    2    3     -2.36      0.00
    7    2    3     -0.23      0.00
    8    2    3     -2.03      0.00
    9    2    3      2.90      0.00
   10    2    3      0.26      0.00
   11    2    3      3.93      0.00
  -11    3    3      6.23      0.00
  -10    3    3      2.74      0.00
   -9    3    3     -0.15      0.00
   -8    3    3      2.07      0.00
   -7    3    3     -5.64      0.00
   -6    3    3      6.99      0.00
   -5    3    3     -3.26      0.00
   -4    3    3      0.06      0.00
   -3    3    3      4.28      0.00
   -2    3    3      5.81      0.00
   -1    3    3     12.99      0.00
    0    3    3     10.37      0.00
    1    3    3     -4.11      0.00
    2    3    3      5.49      0.00
    3    3    3     -1.57      0.00
    4    3    3     -3.56      0.00
    5    3    3      5.99      0.00
    6    3    3     -3.58      0.00
    7    3    3      3.53      0.00
    8    3    3     -0.85      0.00
    9    3    3     -1.74      0.00
   10    3    3      0.18      0.00
   11    3    3     -4.43      0.00
  -11    4    3     -3.76      0.00
  -10    4    3     -0.35      0.00
   -9    4    3     -3.12      0.00
   -8    4    3      3.29      0.00
   -7    4    3     -0.56      0.00
   -6    4    3     -4.33      0.00
   -5    4    3      2.22      0.00
   -4    4    3     -0.82      0.00
   -3    4    3     -0.42      0.00
   -2    4    3      2.54      0.00
   -1    4    3     -7.01      0.00
    0    4    3      8.19      0.00
    1    4    3      3.62      0.00
    2    4    3     -0.69      0.00
    3    4    3      8.26      0.00
    4    4    3     -2.06      0.00
    5    4    3      2.75      0.00
    6    4    3     -1.89      0.00
    7    4    3      0.30      0.00
    8    4    3      0.17      0.00
    9    4    3     -0.23      0.00
   10    4    3      3.37      0.00
   11    4    3      0.27      0.00
  -10    5    3      1.36      0.00
   -9    5    3      0.33      0.00
   -8    5    3     -1.57      0.00
   -7    5    3      2.47      0.00
   -6    5    3      0.65      0.00
   -5    5    3     -2.74      0.00
   -4    5    3     -0.26      0.00
   -3    5    3     -6.25      0.00
   -2    5    3     -0.90      0.00
   -1    5    3     -1.31      0.00
    0    5    3     -7.23      0.00
    1    5    3     -0.61      0.00
    2    5    3     -3.89      0.00
    3    5    3     -0.19      0.00
    4    5    3     -2.79      0.00
    5    5    3      2.88      0.00
    6    5    3      0.26      0.00
    7    5    3      1.84      0.00
    8    5    3      1.43      0.00
    9    5    3     -5.19      0.00
   10    5    3      0.70      0.00
   11    5    3     -1.31      0.00
  -12    6    3     -1.00      0.00
  -11    6    3      0.53      0.00
  -10    6    3     -1.10      0.00
   -9    6    3     -0.08      0.00
   -8    6    3     -0.31      0.00
   -7    6    3     -0.58      0.00
   -6    6    3      1.43      0.00
   -5    6    3      2.92      0.00
   -4    6    3      3.11      0.00
   -3    6    3      5.69      0.00
   -2    6    3      0.99      0.00
   -1    6    3      0.74      0.00
    0    6    3      1.89      0.00
    1    6    3     -0.71      0.00
    2    6    3     -1.31      0.00
    3    6    3      0.53      0.00
    4    6    3     -1.33      0.00
    5    6    3     -0.74      0.00
    6    6    3     -3.22      0.00
    7    6    3     -2.93      0.00
    8    6    3      0.62      0.00
    9    6    3      3.07      0.00
   10    6    3      3.23      0.00
  -10    7    3      0.43      0.00
   -9    7    3      1.19      0.00
   -8    7    3     -1.31      0.00
   -7    7    3     -1.50      0.00
   -6    7    3     -4.14      0.00
   -5    7    3     -0.64      0.00
   -4    7    3     -3.55      0.00
   -3    7    3     -3.17      0.00
   -2    7    3      0.09      0.00
   -1    7    3      0.75      0.00
    0    7    3     -0.23      0.00
    1    7    3      4.19      0.00
    2    7    3      1.56      0.00
    3    7    3      2.89      0.00
    4    7    3     -2.94      0.00
    5    7    3      2.67      0.00
    6    7    3      2.18      0.00
    7    7    3      3.20      0.00
    8    7    3     -0.67      0.00
    9    7    3     -3.92      0.00
   10    7    3      1.48      0.00
  -10    8    3     -0.61      0.00
   -9    8    3     -0.42      0.00
   -8    8    3      1.29      0.00
   -7    8    3      7.45      0.00
   -6    8    3      1.45      0.00
   -5    8    3      0.35      0.00
   -4    8    3      0.92      0.00
   -3    8    3      0.77      0.00
   -2    8    3     -0.42      0.00
   -1    8    3     -0.22      0.00
    0    8    3     -1.01      0.00
    1    8    3     -4.14      0.00
    2    8    3     -3.99      0.00
    3    8    3      1.45      0.00
    4    8    3     -0.67      0.00
    5    8    3      0.35      0.00
    6    8    3     -2.90      0.00
    7    8    3     -2.26      0.00
    8    8    3     -0.03      0.00
    9    8    3      0.84      0.00
   10    8    3     -1.40      0.00
   -9    9    3      1.81      0.00
   -8    9    3     -5.27      0.00
   -7    9    3     -4.68      0.00
   -6    9    3     -0.59      0.00
   -5    9    3      1.07      0.00
   -4    9    3      0.49      0.00
   -3    9    3      2.44      0.00
   -2    9    3     -0.96      0.00
   -1    9    3      1.09      0.00
    0    9    3      1.15      0.00
    1    9    3      4.03      0.00
    2    9    3      0.55      0.00
    3    9    3      1.77      0.00
    4    9    3     -0.87      0.00
    5    9    3      2.29      0.00
    6    9    3      2.01      0.00
    7    9    3      3.33      0.00
    8    9    3     -0.37      0.00
    9    9    3      1.83      0.00
   -8   10    3      2.59      0.00
   -7   10    3      2.68      0.00
   -6   10    3     -1.78      0.00
   -5   10    3     -1.13      0.00
   -4   10    3     -2.02      0.00
   -3   10    3     -3.10      0.00
   -2   10    3     -0.83      0.00
   -1   10    3     -1.06      0.00
    0   10    3     -2.19      0.00
    1   10    3      1.44      0.00
    2   10    3     -1.33      0.00
    3   10    3      1.00      0.00
    4   10    3     -2.64      0.00
    5   10    3     -1.48      0.00
    6   10    3     -2.46      0.00
    7   10    3     -2.97      0.00
   -8   11    3     -1.57      0.00
   -7   11    3      1.27      0.00
   -6   11    3      1.83      0.00
   -5   11    3     -2.18      0.00
   -4   11    3      4.70      0.00
   -3   11    3      1.75      0.00
   -2   11    3      2.34      0.00
   -1   11    3      2.41      0.00
    0   11    3     -1.89      0.00
    1   11    3     -1.73      0.00
    2   11    3     -2.37      0.00
    3   11    3     -1.52      0.00
    4   11    3      2.32      0.00
   -7   12    3     -2.84      0.00
   -6   12    3      3.27      0.00
   -5   12    3     -0.22      0.00
   -4   12    3      0.16      0.00
   -3   12    3     -2.90      0.00
   -2   12    3     -1.62      0.00
   -3   13    3      0.05      0.00
   -2   13    3      0.11      0.00
    5  -13    4     -0.31      0.00
    0  -12    4      3.60      0.00
    1  -12    4      0.30      0.00
    2  -12    4      4.96      0.00
    4  -12    4     -1.52      0.00
    5  -12    4      2.14      0.00
   -4  -11    4      2.24      0.00
   -3  -11    4      1.47      0.00
   -2  -11    4      6.71      0.00
   -1  -11    4     -1.76      0.00
    0  -11    4      3.55      0.00
    1  -11    4     -2.49      0.00
    2  -11    4     -1.35      0.00
    3  -11    4     -0.33      0.00
    4  -11    4      0.73      0.00
    5  -11    4      0.36      0.00
   -6  -10    4      0.38      0.00
   -5  -10    4      0.70      0.00
   -4  -10    4      1.41      0.00
   -3  -10    4     -5.47      0.00
   -2  -10    4     -1.68      0.00
   -1  -10    4     -3.24      0.00
    0  -10    4     -3.73      0.00
    1  -10    4     -1.18      0.00
    2  -10    4      3.77      0.00
    3  -10    4     -2.35      0.00
    4  -10    4      0.79      0.00
   -9   -9    4      0.93      0.00
   -8   -9    4      3.62      0.00
   -7   -9    4     -0.89      0.00
   -6   -9    4      0.81      0.00
   -5   -9    4     -4.37      0.00
   -4   -9    4      1.65      0.00
   -3   -9    4      2.14      0.00
   -2   -9    4      1.71      0.00
   -1   -9    4      2.73      0.00
    0   -9    4      5.77      0.00
    1   -9    4     -2.78      0.00
    2   -9    4      0.34      0.00
    3   -9    4      1.66      0.00
    4   -9    4     -1.60      0.00
  -10   -8    4     -0.76      0.00
   -9   -8    4     -0.37      0.00
   -8   -8    4      2.10      0.00
   -7   -8    4      0.94      0.00
   -6   -8    4      3.38      0.00
   -5   -8    4      2.66      0.00
   -4   -8    4     -0.70      0.00
   -3   -8    4     -2.24      0.00
   -2   -8    4      1.81      0.00
   -1   -8    4     -4.71      0.00
    0   -8    4     -1.14      0.00
    1   -8    4      1.33      0.00
    2   -8    4     -0.38      0.00
    3   -8    4     -0.89      0.00
    4   -8    4      0.00      0.00
  -11   -7    4      3.40      0.00
  -10   -7    4      1.30      0.00
   -9   -7    4     -1.46      0.00
   -8   -7    4     -3.99      0.00
   -7   -7    4     -2.95      0.00
   -6   -7    4     -2.41      0.00
   -5   -7    4     -3.13      0.00
   -4   -7    4     -0.16      0.00
   -3   -7    4     -1.19      0.00
   -2   -7    4     -2.65      0.00
   -1   -7    4      4.33      0.00
    0   -7    4     -0.86      0.00
    1   -7    4      0.01      0.00
    2   -7    4     -0.38      0.00
    3   -7    4      1.80      0.00
    4   -7    4     -1.38      0.00
  -11   -6    4     -5.03      0.00
  -10   -6    4     -0.09      0.00
   -9   -6    4      2.12      0.00
   -8   -6    4      3.08      0.00
   -7   -6    4     -0.08      0.00
   -6   -6    4      1.83      0.00
   -5   -6    4      3.18      0.00
   -4   -6    4      2.16      0.00
   -3   -6    4      4.48      0.00
   -2   -6    4      1.61      0.00
    0   -6    4     -1.32      0.00
    1   -6    4     -1.28      0.00
    2   -6    4     -0.68      0.00
    3   -6    4     -0.45      0.00
  -11   -5    4      0.81      0.00
  -10   -5    4     -1.71      0.00
   -9   -5    4     -0.40      0.00
   -8   -5    4     -2.30      0.00
   -7   -5    4      4.19      0.00
   -6   -5    4     -1.28      0.00
   -5   -5    4     -1.65      0.00
   -4   -5    4     -4.03      0.00
   -3   -5    4     -3.77      0.00
   -2   -5    4      2.60      0.00
   -1   -5    4      3.34      0.00
    0   -5    4      5.46      0.00
    1   -5    4      4.08      0.00
    2   -5    4      0.36      0.00
    3   -5    4      3.30      0.00
  -11   -4    4      3.89      0.00
  -10   -4    4      1.52      0.00
   -9   -4    4      4.34      0.00
   -8   -4    4     -1.54      0.00
   -7   -4    4     -2.71      0.00
   -6   -4    4     -0.61      0.00
   -5   -4    4      2.03      0.00
   -4   -4    4      1.87      0.00
   -3   -4    4     -1.86      0.00
   -2   -4    4     -2.58      0.00
   -1   -4    4    -10.41      0.00
    0   -4    4     -8.48      0.00
    1   -4    4     -3.63      0.00
    2   -4    4     -2.61      0.00
    8   -4    4     -0.42      0.00
    9   -4    4      2.13      0.00
   10   -4    4      5.16      0.00
   11   -4    4      2.41      0.00
  -11   -3    4     -3.36      0.00
  -10   -3    4     -5.11      0.00
   -9   -3    4     -2.59      0.00
   -8   -3    4     -2.22      0.00
   -7   -3    4      2.98      0.00
   -6   -3    4     -1.19      0.00
   -5   -3    4     -1.25      0.00
   -4   -3    4     -0.37      0.00
   -3   -3    4      2.24      0.00
   -2   -3    4      7.35      0.00
   -1   -3    4      8.11      0.00
    0   -3    4     13.44      0.00
    1   -3    4      3.16      0.00
    2   -3    4     -0.74      0.00
    3   -3    4      1.80      0.00
    5   -3    4      5.71      0.00
    6   -3    4     -2.23      0.00
    7   -3    4     -2.80      0.00
    8   -3    4     -0.64      0.00
    9   -3    4     -2.19      0.00
   10   -3    4     -0.70      0.00
   11   -3    4     -2.07      0.00
  -11   -2    4      3.29      0.00
  -10   -2    4      1.84      0.00
   -9   -2    4      5.87      0.00
   -8   -2    4     -1.87      0.00
   -7   -2    4      2.20      0.00
   -6   -2    4      1.35      0.00
   -5   -2    4      2.70      0.00
   -4   -2    4     -0.13      0.00
   -3   -2    4     -1.05      0.00
   -2   -2    4      4.16      0.00
   -1   -2    4    -23.02      0.00
    0   -2    4     -1.32      0.00
    1   -2    4     -2.34      0.00
    2   -2    4     -4.87      0.00
    3   -2    4      6.18      0.00
    4   -2    4     -1.11      0.00
    5   -2    4     -5.21      0.00
    6   -2    4      1.86      0.00
    7   -2    4     -0.18      0.00
    8   -2    4      0.27      0.00
    9   -2    4     -3.07      0.00
   10   -2    4     -2.22      0.00
   11   -2    4      0.13      0.00
  -11   -1    4     -0.79      0.00
  -10   -1    4     -2.37      0.00
   -9   -1    4      2.19      0.00
   -8   -1    4     -2.94      0.00
   -7   -1    4     -1.22      0.00
   -6   -1    4     -1.95      0.00
   -5   -1    4     -2.47      0.00
   -4   -1    4     -1.28      0.00
   -3   -1    4     -8.50      0.00
   -2   -1    4     11.91      0.00
   -1   -1    4      7.62      0.00
    0   -1    4      8.81      0.00
    1   -1    4      4.86      0.00
    2   -1    4     -0.62      0.00
    3   -1    4      0.75      0.00
    4   -1    4      4.33      0.00
    5   -1    4      0.72      0.00
    6   -1    4      0.90      0.00
    7   -1    4      0.30      0.00
    8   -1    4      1.48      0.00
    9   -1    4      5.93      0.00
   10   -1    4      3.93      0.00
   11   -1    4      1.51      0.00
  -11    0    4      0.79      0.00
  -10    0    4     -2.96      0.00
   -9    0    4     -0.23      0.00
   -8    0    4      0.73      0.00
   -7    0    4      0.86      0.00
   -6    0    4      4.62      0.00
   -5    0    4     -1.63      0.00
   -4    0    4      4.63      0.00
   -3    0    4     -0.88      0.00
   -2    0    4     -8.83      0.00
   -1    0    4    -29.22      0.00
    0    0    4      2.11      0.00
    1    0    4    -16.21      0.00
    2    0    4      0.06      0.00
    3    0    4     -5.53      0.00
    4    0    4     -5.12      0.00
    5    0    4     -1.16      0.00
    6    0    4     -1.37      0.00
    7    0    4      2.22      0.00
    8    0    4     -1.80      0.00
    9    0    4     -4.44      0.00
   10    0    4     -3.15      0.00
   11    0    4     -1.08      0.00
  -11    1    4     -1.07      0.00
  -10    1    4      3.95      0.00
   -9    1    4      0.03      0.00
   -8    1    4     -0.15      0.00
   -7    1    4     -2.45      0.00
   -6    1    4     -1.57      0.00
   -5    1    4      2.16      0.00
   -4    1    4     -2.52      0.00
   -3    1    4      1.93      0.00
   -2    1    4     36.94      0.00
   -1    1    4      5.44      0.00
    0    1    4     34.02      0.00
    1    1    4      1.10      0.00
    2    1    4      3.35      0.00
    3    1    4     12.14      0.00
    4    1    4     -0.10      0.00
    5    1    4      4.01      0.00
    6    1    4      0.07      0.00
    7    1    4     -3.41      0.00
    8    1    4      1.25      0.00
    9    1    4     -1.30      0.00
   10    1    4      1.09      0.00
   11    1    4      1.76      0.00
  -11    2    4     -1.81      0.00
  -10    2    4     -1.66      0.00
   -9    2    4      0.07      0.00
   -8    2    4     -1.56      0.00
   -7    2    4      2.05      0.00
   -6    2    4      0.33      0.00
   -5    2    4     -5.29      0.00
   -4    2    4      7.90      0.00
   -3    2    4    -21.43      0.00
   -2    2    4     -9.83      0.00
   -1    2    4    -32.70      0.00
    0    2    4    -15.86      0.00
    1    2    4     -0.44      0.00
    2    2    4     -8.89      0.00
    3    2    4     -1.06      0.00
    4    2    4      0.12      0.00
    5    2    4     -4.55      0.00
    6    2    4      1.27      0.00
    7    2    4      1.42      0.00
    8    2    4      0.52      0.00
    9    2    4      3.89      0.00
   10    2    4     -0.82      0.00
   11    2    4      3.86      0.00
  -11    3    4      0.65      0.00
  -10    3    4      0.61      0.00
   -9    3    4      0.50      0.00
   -8    3    4      3.82      0.00
   -7    3    4     -3.67      0.00
   -6    3    4      7.80      0.00
   -5    3    4     -4.49      0.00
   -4    3    4      5.66      0.00
   -3    3    4      2.84      0.00
   -2    3    4     13.07      0.00
   -1    3    4     13.59      0.00
    0    3    4      9.22      0.00
    1    3    4     -5.37      0.00
    2    3    4      4.56      0.00
    3    3    4     -5.80      0.00
    4    3    4     -1.49      0.00
    5    3    4      4.11      0.00
    6    3    4     -2.79      0.00
    7    3    4      3.34      0.00
    8    3    4     -1.87      0.00
    9    3    4     -1.44      0.00
   10    3    4     -1.68      0.00
   11    3    4     -3.79      0.00
  -10    4    4      2.26      0.00
   -9    4    4     -4.23      0.00
   -8    4    4      1.32      0.00
   -7    4    4     -3.84      0.00
   -6    4    4     -2.58      0.00
   -5    4    4      1.63      0.00
   -4    4    4     -2.26      0.00
   -3    4    4      0.02      0.00
   -2    4    4     -1.17      0.00
   -1    4    4     -6.43      0.00
    0    4    4      7.11      0.00
    1    4    4      3.18      0.00
    2    4    4      2.05      0.00
    3    4    4      9.25      0.00
    4    4    4     -3.04      0.00
    5    4    4      2.86      0.00
    6    4    4     -3.83      0.00
    7    4    4     -0.24      0.00
    8    4    4     -0.28      0.00
    9    4    4     -1.91      0.00
   10    4    4      3.38      0.00
   11    4    4      2.41      0.00
  -10    5    4     -1.03      0.00
   -9    5    4     -0.80      0.00
   -8    5    4      1.21      0.00
   -7    5    4      4.04      0.00
   -6    5    4     -1.25      0.00
   -5    5    4     -2.51      0.00
   -4    5    4      2.07      0.00
   -3    5    4     -4.62      0.00
   -2    5    4      3.14      0.00
   -1    5    4     -1.68      0.00
    0    5    4     -7.61      0.00
    1    5    4     -1.61      0.00
    2    5    4     -5.82      0.00
    3    5    4      0.18      0.00
    4    5    4     -3.04      0.00
    5    5    4      2.29      0.00
    6    5    4      0.74      0.00
    7    5    4     -0.18      0.00
    8    5    4      1.65      0.00
    9    5    4     -1.40      0.00
   10    5    4      1.76      0.00
  -10    6    4      2.70      0.00
   -9    6    4      1.39      0.00
   -8    6    4     -1.99      0.00
   -7    6    4     -1.31      0.00
   -6    6    4      3.08      0.00
   -5    6    4      1.95      0.00
   -4    6    4      1.53      0.00
   -3    6    4      1.81      0.00
   -2    6    4     -3.62      0.00
   -1    6    4      1.05      0.00
    0    6    4      2.99      0.00
    1    6    4      2.04      0.00
    2    6    4     -3.13      0.00
    3    6    4      1.64      0.00
    4    6    4     -0.41      0.00
    5    6    4      0.44      0.00
    6    6    4     -0.30      0.00
    7    6    4     -0.26      0.00
    8    6    4      2.24      0.00
    9    6    4     -1.13      0.00
   10    6    4      1.40      0.00
  -11    7    4     -1.97      0.00
  -10    7    4     -1.70      0.00
   -9    7    4     -0.24      0.00
   -8    7    4     -0.19      0.00
   -7    7    4     -0.10      0.00
   -6    7    4     -3.19      0.00
   -5    7    4      0.25      0.00
   -4    7    4     -3.28      0.00
   -3    7    4     -0.25      0.00
   -2    7    4      2.86      0.00
   -1    7    4     -0.30      0.00
    0    7    4     -1.81      0.00
    1    7    4      3.18      0.00
    2    7    4      3.93      0.00
    3    7    4      0.46      0.00
    4    7    4     -3.47      0.00
    5    7    4     -0.46      0.00
    6    7    4      0.29      0.00
    7    7    4      0.30      0.00
    8    7    4     -1.18      0.00
    9    7    4     -1.99      0.00
   10    7    4      2.43      0.00
  -11    8    4      0.16      0.00
  -10    8    4     -0.49      0.00
   -9    8    4      0.61      0.00
   -8    8    4      0.47      0.00
   -7    8    4      3.53      0.00
   -6    8    4     -0.72      0.00
   -5    8    4     -0.34      0.00
   -4    8    4      0.94      0.00
   -3    8    4      1.15      0.00
   -2    8    4     -1.86      0.00
   -1    8    4      2.11      0.00
    0    8    4     -1.56      0.00
    1    8    4     -3.78      0.00
    2    8    4     -5.71      0.00
    3    8    4      3.93      0.00
    4    8    4      1.53      0.00
    5    8    4      1.83      0.00
    6    8    4     -0.67      0.00
    7    8    4     -2.20      0.00
    8    8    4      0.69      0.00
    9    8    4     -0.26      0.00
   10    8    4     -0.39      0.00
  -10    9    4      2.22      0.00
   -9    9    4      0.32      0.00
   -8    9    4     -4.11      0.00
   -7    9    4     -0.92      0.00
   -6    9    4      0.47      0.00
   -5    9    4      1.29      0.00
   -4    9    4     -1.08      0.00
   -3    9    4      1.41      0.00
   -2    9    4     -0.57      0.00
   -1    9    4      0.07      0.00
    0    9    4      3.82      0.00
    1    9    4      4.87      0.00
    2    9    4      2.82      0.00
    3    9    4     -1.39      0.00
    4    9    4     -1.10      0.00
    5    9    4      0.00      0.00
    6    9    4      0.53      0.00
    7    9    4      3.18      0.00
    8    9    4     -0.76      0.00
    9    9    4      1.77      0.00
   -9   10    4      0.56      0.00
   -8   10    4      2.35      0.00
   -7   10    4      0.23      0.00
   -6   10    4      0.09      0.00
   -5   10    4      0.43      0.00
   -4   10    4     -0.48      0.00
   -3   10    4     -0.59      0.00
   -2   10    4     -0.84      0.00
   -1   10    4     -1.46      0.00
    1   10    4     -2.57      0.00
    2   10    4     -2.99      0.00
    3   10    4      0.36      0.00
    4   10    4     -2.28      0.00
    5   10    4      0.23      0.00
    6   10    4     -1.26      0.00
    7   10    4     -1.14      0.00
   -8   11    4     -0.93      0.00
   -7   11    4      1.31      0.00
   -6   11    4     -1.25      0.00
   -5   11    4     -2.63      0.00
   -4   11    4      1.76      0.00
   -3   11    4     -0.88      0.00
   -2   11    4      0.60      0.00
   -1   11    4      1.98      0.00
    0   11    4      0.10      0.00
    1   11    4      2.84      0.00
    2   11    4      0.24      0.00
    3   11    4      0.15      0.00
    4   11    4      2.47      0.00
   -3   12    4      0.25      0.00
   -2   12    4      0.53      0.00
   -3   13    4     -1.32      0.00
   -2   13    4     -1.73      0.00
    4  -13    5      1.46      0.00
    1  -12    5      1.45      0.00
    2  -12    5      3.26      0.00
    3  -12    5     -2.95      0.00
    4  -12    5     -1.25      0.00
   -3  -11    5      1.07      0.00
   -2  -11    5      6.33      0.00
   -1  -11    5      0.19      0.00
    0  -11    5      3.09      0.00
    1  -11    5     -4.08      0.00
    2  -11    5     -0.33      0.00
    3  -11    5      2.61      0.00
    4  -11    5      0.00      0.00
   -6  -10    5      1.16      0.00
   -5  -10    5     -2.16      0.00
   -4  -10    5      1.53      0.00
   -3  -10    5     -5.72      0.00
   -2  -10    5     -0.72      0.00
   -1  -10    5     -4.69      0.00
    0  -10    5     -1.58      0.00
    1  -10    5      0.66      0.00
    2  -10    5      2.27      0.00
    3  -10    5     -3.34      0.00
    4  -10    5     -0.35      0.00
   -8   -9    5      4.32      0.00
   -7   -9    5      0.01      0.00
   -6   -9    5      1.89      0.00
   -5   -9    5     -1.86      0.00
   -4   -9    5      2.01      0.00
   -3   -9    5      1.33      0.00
   -2   -9    5      0.49      0.00
   -1   -9    5      2.51      0.00
    0   -9    5      3.15      0.00
    1   -9    5     -4.02      0.00
    2   -9    5      1.26      0.00
    3   -9    5      1.76      0.00
    4   -9    5     -0.92      0.00
  -10   -8    5      1.43      0.00
   -9   -8    5     -1.65      0.00
   -8   -8    5     -0.18      0.00
   -7   -8    5     -2.44      0.00
   -6   -8    5      2.18      0.00
   -5   -8    5     -1.74      0.00
   -4   -8    5     -0.44      0.00
   -3   -8    5     -2.06      0.00
   -2   -8    5      2.53      0.00
   -1   -8    5     -2.58      0.00
    0   -8    5      1.31      0.00
    1   -8    5      2.45      0.00
    2   -8    5     -1.80      0.00
    3   -8    5      1.29      0.00
    4   -8    5     -0.25      0.00
  -11   -7    5     -1.10      0.00
  -10   -7    5     -1.08      0.00
   -9   -7    5     -0.95      0.00
   -8   -7    5     -0.56      0.00
   -7   -7    5     -0.63      0.00
   -6   -7    5      0.16      0.00
   -5   -7    5     -0.09      0.00
   -4   -7    5      2.48      0.00
   -3   -7    5     -0.33      0.00
   -2   -7    5     -1.04      0.00
   -1   -7    5      0.85      0.00
    0   -7    5     -2.35      0.00
    1   -7    5     -1.16      0.00
    2   -7    5     -1.11      0.00
    3   -7    5     -0.49      0.00
  -11   -6    5      0.10      0.00
  -10   -6    5      1.55      0.00
   -9   -6    5      2.77      0.00
   -8   -6    5      0.17      0.00
   -7   -6    5     -0.59      0.00
   -6   -6    5      1.06      0.00
   -5   -6    5      0.81      0.00
   -4   -6    5     -0.92      0.00
   -3   -6    5      1.70      0.00
   -2   -6    5     -0.76      0.00
   -1   -6    5     -0.18      0.00
    0   -6    5     -1.07      0.00
    1   -6    5      0.79      0.00
    2   -6    5      2.20      0.00
    3   -6    5      2.03      0.00
  -11   -5    5     -1.02      0.00
  -10   -5    5     -2.43      0.00
   -9   -5    5     -0.67      0.00
   -8   -5    5      0.41      0.00
   -7   -5    5      2.51      0.00
   -6   -5    5     -1.77      0.00
   -5   -5    5     -1.57      0.00
   -4   -5    5     -2.17      0.00
   -3   -5    5     -1.83      0.00
   -2   -5    5      2.90      0.00
   -1   -5    5      0.10      0.00
    0   -5    5      5.70      0.00
    1   -5    5      1.48      0.00
    2   -5    5     -3.34      0.00
    3   -5    5      1.26      0.00
  -11   -4    5      3.52      0.00
  -10   -4    5      0.46      0.00
   -9   -4    5      3.42      0.00
   -8   -4    5     -4.75      0.00
   -7   -4    5     -0.08      0.00
   -6   -4    5     -0.17      0.00
   -5   -4    5      3.27      0.00
   -4   -4    5      1.85      0.00
   -3   -4    5     -2.32      0.00
   -2   -4    5      0.76      0.00
   -1   -4    5     -5.57      0.00
    0   -4    5     -7.82      0.00
    1   -4    5      0.02      0.00
    2   -4    5     -0.43      0.00
    3   -4    5     -2.36      0.00
    8   -4    5      0.17      0.00
    9   -4    5      2.57      0.00
   10   -4    5      3.91      0.00
   11   -4    5      1.64      0.00
  -11   -3    5     -2.01      0.00
  -10   -3    5     -4.80      0.00
   -9   -3    5      0.43      0.00
   -8   -3    5     -0.74      0.00
   -7   -3    5      1.38      0.00
   -6   -3    5     -0.99      0.00
   -5   -3    5     -2.02      0.00
   -4   -3    5      0.54      0.00
   -3   -3    5      2.65      0.00
   -2   -3    5      4.08      0.00
   -1   -3    5      3.26      0.00
    0   -3    5      9.76      0.00
    1   -3    5     -0.53      0.00
    2   -3    5     -1.56      0.00
    3   -3    5      2.93      0.00
    4   -3    5     -4.84      0.00
    5   -3    5      1.18      0.00
    6   -3    5     -3.93      0.00
    7   -3    5     -0.04      0.00
    8   -3    5     -0.77      0.00
    9   -3    5     -1.97      0.00
   10   -3    5      1.31      0.00
   11   -3    5     -1.60      0.00
  -11   -2    5      4.56      0.00
  -10   -2    5      1.62      0.00
   -9   -2    5      4.64      0.00
   -8   -2    5     -1.03      0.00
   -7   -2    5      2.36      0.00
   -6   -2    5      1.28      0.00
   -5   -2    5      1.98      0.00
   -4   -2    5     -2.93      0.00
   -3   -2    5     -4.00      0.00
   -2   -2    5      2.10      0.00
   -1   -2    5    -14.63      0.00
    0   -2    5     -5.03      0.00
    1   -2    5      6.88      0.00
    2   -2    5     -6.03      0.00
    3   -2    5      5.51      0.00
    4   -2    5     -1.83      0.00
    5   -2    5      0.20      0.00
    6   -2    5      0.61      0.00
    7   -2    5     -2.87      0.00
    8   -2    5      1.43      0.00
    9   -2    5     -3.32      0.00
   10   -2    5     -3.13      0.00
   11   -2    5      0.21      0.00
  -11   -1    5     -3.08      0.00
  -10   -1    5     -3.86      0.00
   -9   -1    5      0.31      0.00
   -8   -1    5     -5.01      0.00
   -7   -1    5     -1.19      0.00
   -6   -1    5     -1.94      0.00
   -5   -1    5     -1.47      0.00
   -4   -1    5      3.25      0.00
   -3   -1    5     -3.73      0.00
   -2   -1    5     10.82      0.00
   -1   -1    5      5.99      0.00
    0   -1    5      8.91      0.00
    1   -1    5      1.20      0.00
    2   -1    5     -3.19      0.00
    3   -1    5      2.72      0.00
    4   -1    5      2.48      0.00
    5   -1    5     -2.69      0.00
    6   -1    5      3.72      0.00
    7   -1    5      1.27      0.00
    8   -1    5      0.68      0.00
    9   -1    5      5.00      0.00
   10   -1    5      2.45      0.00
   11   -1    5      1.76      0.00
  -11    0    5      3.32      0.00
  -10    0    5     -0.78      0.00
   -9    0    5      3.87      0.00
   -8    0    5      2.52      0.00
   -7    0    5      0.30      0.00
   -6    0    5      4.56      0.00
   -5    0    5     -2.55      0.00
   -4    0    5     -0.82      0.00
   -3    0    5     -1.55      0.00
   -2    0    5     -5.76      0.00
   -1    0    5    -17.64      0.00
    0    0    5     -6.62      0.00
    1    0    5     -4.71      0.00
    2    0    5     -3.98      0.00
    3    0    5     -4.50      0.00
    4    0    5     -2.63      0.00
    5    0    5      1.96      0.00
    6    0    5     -3.01      0.00
    7    0    5      2.15      0.00
    8    0    5     -1.32      0.00
    9    0    5     -2.87      0.00
   10    0    5     -1.45      0.00
   11    0    5     -0.04      0.00
  -11    1    5     -2.01      0.00
  -10    1    5      1.12      0.00
   -9    1    5     -2.89      0.00
   -8    1    5      0.07      0.00
   -7    1    5     -2.10      0.00
   -6    1    5     -0.40      0.00
   -5    1    5      2.60      0.00
   -4    1    5      4.13      0.00
   -3    1    5      0.80      0.00
   -2    1    5     22.17      0.00
   -1    1    5      0.35      0.00
    0    1    5     25.66      0.00
    1    1    5     -2.16      0.00
    2    1    5      5.53      0.00
    3    1    5     10.97      0.00
    4    1    5     -1.83      0.00
    5    1    5      1.05      0.00
    6    1    5     -0.37      0.00
    7    1    5     -4.27      0.00
    8    1    5      1.34      0.00
    9    1    5     -0.44      0.00
   10    1    5     -1.27      0.00
   11    1    5      1.61      0.00
  -11    2    5     -1.05      0.00
  -10    2    5      0.22      0.00
   -9    2    5     -0.79      0.00
   -8    2    5     -2.17      0.00
   -7    2    5      0.45      0.00
   -6    2    5     -0.47      0.00
   -5    2    5     -5.78      0.00
   -4    2    5      0.68      0.00
   -3    2    5    -18.12      0.00
   -2    2    5     -0.07      0.00
   -1    2    5    -23.47      0.00
    0    2    5     -6.83      0.00
    1    2    5      2.91      0.00
    2    2    5     -8.60      0.00
    3    2    5     -1.10      0.00
    4    2    5      0.26      0.00
    5    2    5     -1.81      0.00
    6    2    5      2.43      0.00
    7    2    5      2.11      0.00
    8    2    5     -0.03      0.00
    9    2    5      1.90      0.00
   10    2    5     -0.88      0.00
   11    2    5      3.84      0.00
  -11    3    5     -0.45      0.00
  -10    3    5      1.57      0.00
   -9    3    5      3.00      0.00
   -8    3    5      4.68      0.00
   -7    3    5     -1.33      0.00
   -6    3    5      6.99      0.00
   -5    3    5     -4.18      0.00
   -4    3    5     11.30      0.00
   -3    3    5      0.80      0.00
   -2    3    5      9.71      0.00
   -1    3    5     11.28      0.00
    0    3    5      1.19      0.00
    1    3    5     -5.78      0.00
    2    3    5      1.28      0.00
    3    3    5     -4.57      0.00
    4    3    5     -0.40      0.00
    5    3    5      1.95      0.00
    6    3    5     -2.29      0.00
    7    3    5      1.54      0.00
    8    3    5     -1.27      0.00
    9    3    5      1.56      0.00
   10    3    5     -1.87      0.00
  -10    4    5      0.15      0.00
   -9    4    5     -6.92      0.00
   -8    4    5      0.61      0.00
   -7    4    5     -5.20      0.00
   -6    4    5      0.06      0.00
   -5    4    5     -0.60      0.00
   -4    4    5     -3.15      0.00
   -3    4    5     -0.71      0.00
   -2    4    5     -2.14      0.00
   -1    4    5     -8.74      0.00
    0    4    5      8.11      0.00
    1    4    5      3.45      0.00
    2    4    5      4.46      0.00
    3    4    5      6.32      0.00
    4    4    5     -3.61      0.00
    5    4    5      1.99      0.00
    6    4    5     -2.72      0.00
    7    4    5      1.36      0.00
    8    4    5     -0.87      0.00
    9    4    5     -3.38      0.00
   10    4    5      2.99      0.00
  -10    5    5      1.98      0.00
   -9    5    5      0.79      0.00
   -8    5    5      1.80      0.00
   -7    5    5      3.00      0.00
   -6    5    5     -2.93      0.00
   -5    5    5      0.43      0.00
   -4    5    5      3.01      0.00
   -3    5    5     -3.88      0.00
   -2    5    5      5.00      0.00
   -1    5    5      1.00      0.00
    0    5    5     -6.02      0.00
    1    5    5     -1.71      0.00
    2    5    5     -5.60      0.00
    3    5    5      2.60      0.00
    4    5    5     -0.43      0.00
    5    5    5      3.37      0.00
    6    5    5     -1.09      0.00
    7    5    5     -2.98      0.00
    8    5    5      2.76      0.00
    9    5    5      0.39      0.00
   10    5    5      0.42      0.00
  -11    6    5      2.79      0.00
  -10    6    5      1.34      0.00
   -9    6    5     -0.14      0.00
   -8    6    5     -2.39      0.00
   -7    6    5     -0.02      0.00
   -6    6    5      3.49      0.00
   -5    6    5     -2.76      0.00
   -4    6    5     -0.80      0.00
   -3    6    5     -0.37      0.00
   -2    6    5     -4.63      0.00
   -1    6    5      1.18      0.00
    0    6    5      1.15      0.00
    1    6    5      3.04      0.00
    2    6    5     -3.94      0.00
    3    6    5      0.97      0.00
    4    6    5     -3.72      0.00
    5    6    5     -2.29      0.00
    6    6    5      3.78      0.00
    7    6    5      2.10      0.00
    8    6    5      1.01      0.00
    9    6    5     -3.73      0.00
   10    6    5      2.18      0.00
   -9    7    5      0.68      0.00
   -8    7    5      1.35      0.00
   -7    7    5      0.33      0.00
   -6    7    5     -1.18      0.00
   -5    7    5      4.31      0.00
   -4    7    5      0.42      0.00
   -3    7    5      3.61      0.00
   -2    7    5      2.93      0.00
   -1    7    5     -1.07      0.00
    0    7    5     -1.09      0.00
    1    7    5      2.94      0.00
    2    7    5      0.95      0.00
    3    7    5     -1.36      0.00
    4    7    5      0.61      0.00
    5    7    5      1.00      0.00
    6    7    5     -1.39      0.00
    7    7    5     -3.35      0.00
    8    7    5      0.60      0.00
    9    7    5      0.57      0.00
   10    7    5      2.48      0.00
  -11    8    5      1.03      0.00
  -10    8    5      0.89      0.00
   -9    8    5      0.09      0.00
   -8    8    5     -1.92      0.00
   -7    8    5     -0.58      0.00
   -6    8    5     -2.83      0.00
   -5    8    5     -2.12      0.00
   -4    8    5     -2.91      0.00
   -3    8    5     -1.76      0.00
   -2    8    5     -1.65      0.00
   -1    8    5      2.63      0.00
    0    8    5     -1.86      0.00
    1    8    5     -3.10      0.00
    2    8    5      0.80      0.00
    3    8    5      6.08      0.00
    4    8    5      1.44      0.00
    5    8    5     -1.08      0.00
    6    8    5     -0.02      0.00
    7    8    5      0.32      0.00
    8    8    5      0.63      0.00
    9    8    5     -2.02      0.00
   10    8    5     -1.19      0.00
  -10    9    5      0.66      0.00
   -9    9    5      0.23      0.00
   -8    9    5      0.18      0.00
   -7    9    5      2.86      0.00
   -6    9    5      1.20      0.00
   -5    9    5      1.22      0.00
   -4    9    5      0.42      0.00
   -3    9    5      3.23      0.00
   -2    9    5     -1.75      0.00
   -1    9    5     -0.57      0.00
    0    9    5      2.32      0.00
    1    9    5      3.54      0.00
    2    9    5     -2.62      0.00
    3    9    5     -5.20      0.00
    4    9    5     -2.28      0.00
    5    9    5      0.80      0.00
    6    9    5      1.74      0.00
    7    9    5      0.87      0.00
    8    9    5     -0.97      0.00
    9    9    5      1.69      0.00
   -9   10    5     -0.46      0.00
   -8   10    5     -1.28      0.00
   -7   10    5     -1.35      0.00
   -6   10    5      1.24      0.00
   -5   10    5      3.03      0.00
   -4   10    5     -1.80      0.00
   -3   10    5     -0.68      0.00
   -2   10    5      0.14      0.00
   -1   10    5     -0.12      0.00
    0   10    5     -2.11      0.00
    1   10    5     -2.97      0.00
    2   10    5      0.90      0.00
    3   10    5      1.18      0.00
    4   10    5      1.36      0.00
    5   10    5      0.80      0.00
    6   10    5     -2.32      0.00
    7   10    5      0.61      0.00
   -8   11    5      1.85      0.00
   -7   11    5      0.15      0.00
   -6   11    5     -4.11      0.00
   -5   11    5     -3.94      0.00
   -4   11    5      1.21      0.00
   -3   11    5     -0.03      0.00
   -2   11    5      0.22      0.00
   -1   11    5      1.06      0.00
    1   11    5      4.07      0.00
    2   11    5      0.97      0.00
    3   11    5      0.60      0.00
   -3   12    5     -0.06      0.00
   -2   12    5     -0.69      0.00
   -3   13    5     -0.34      0.00
   -2   13    5     -1.04      0.00
   -1   13    5     -0.16      0.00
    4  -13    6      0.93      0.00
    1  -12    6     -1.26      0.00
    2  -12    6      0.06      0.00
    3  -12    6     -2.69      0.00
    4  -12    6      0.06      0.00
   -3  -11    6      1.79      0.00
   -2  -11    6      5.64      0.00
   -1  -11    6      0.67      0.00
    0  -11    6      1.08      0.00
    1  -11    6     -1.71      0.00
    2  -11    6      1.53      0.00
    3  -11    6      1.09      0.00
    4  -11    6     -2.83      0.00
   -6  -10    6      1.09      0.00
   -5  -10    6     -4.01      0.00
   -4  -10    6      2.48      0.00
   -3  -10    6     -6.44      0.00
   -2  -10    6     -1.12      0.00
   -1  -10    6     -1.54      0.00
    0  -10    6      2.17      0.00
    1  -10    6      0.04      0.00
    2  -10    6     -0.04      0.00
    3  -10    6     -0.06      0.00
    4  -10    6      1.04      0.00
   -8   -9    6      2.99      0.00
   -7   -9    6     -3.66      0.00
   -6   -9    6      2.70      0.00
   -5   -9    6     -1.75      0.00
   -4   -9    6      2.03      0.00
   -3   -9    6      1.75      0.00
   -2   -9    6      1.05      0.00
   -1   -9    6     -2.39      0.00
    0   -9    6     -0.71      0.00
    1   -9    6     -3.24      0.00
    2   -9    6      2.28      0.00
    3   -9    6      0.09      0.00
    4   -9    6     -1.18      0.00
  -10   -8    6      0.90      0.00
   -9   -8    6     -3.12      0.00
   -8   -8    6     -1.59      0.00
   -7   -8    6     -0.77      0.00
   -6   -8    6      1.59      0.00
   -5   -8    6     -0.48      0.00
   -4   -8    6      0.96      0.00
   -3   -8    6     -1.38      0.00
   -2   -8    6      2.40      0.00
   -1   -8    6      2.11      0.00
    0   -8    6      3.79      0.00
    1   -8    6      0.59      0.00
    2   -8    6     -2.63      0.00
    3   -8    6      1.92      0.00
    4   -8    6      0.03      0.00
  -11   -7    6     -3.92      0.00
  -10   -7    6     -1.41      0.00
   -9   -7    6      1.33      0.00
   -8   -7    6      2.38      0.00
   -7   -7    6     -0.95      0.00
   -6   -7    6      2.14      0.00
   -5   -7    6     -2.60      0.00
   -4   -7    6      2.04      0.00
   -3   -7    6     -1.29      0.00
   -2   -7    6     -0.62      0.00
   -1   -7    6     -3.32      0.00
    0   -7    6     -2.30      0.00
    1   -7    6      2.19      0.00
    2   -7    6     -0.42      0.00
    3   -7    6      0.67      0.00
  -11   -6    6      3.11      0.00
  -10   -6    6      2.41      0.00
   -9   -6    6      1.32      0.00
   -8   -6    6     -1.28      0.00
   -7   -6    6      0.06      0.00
   -6   -6    6      0.00      0.00
   -5   -6    6      0.80      0.00
   -4   -6    6     -1.85      0.00
   -3   -6    6     -0.30      0.00
   -2   -6    6     -0.26      0.00
   -1   -6    6      2.05      0.00
    0   -6    6     -1.88      0.00
    1   -6    6     -2.11      0.00
    2   -6    6      0.44      0.00
    3   -6    6     -0.85      0.00
  -11   -5    6     -1.22      0.00
  -10   -5    6     -2.52      0.00
   -9   -5    6      1.40      0.00
   -8   -5    6     -0.66      0.00
   -7   -5    6     -0.04      0.00
   -6   -5    6     -2.05      0.00
   -5   -5    6      0.02      0.00
   -4   -5    6     -0.04      0.00
   -3   -5    6      0.71      0.00
   -2   -5    6      1.00      0.00
   -1   -5    6     -1.69      0.00
    0   -5    6      5.11      0.00
    1   -5    6      1.26      0.00
    2   -5    6     -1.22      0.00
    3   -5    6      3.87      0.00
  -11   -4    6      0.77      0.00
  -10   -4    6     -2.30      0.00
   -9   -4    6     -1.27      0.00
   -8   -4    6     -3.51      0.00
   -7   -4    6      2.67      0.00
   -6   -4    6      0.23      0.00
   -5   -4    6      1.79      0.00
   -4   -4    6      1.09      0.00
   -3   -4    6     -1.35      0.00
   -2   -4    6      5.18      0.00
   -1   -4    6     -2.30      0.00
    0   -4    6     -5.53      0.00
    1   -4    6      4.41      0.00
    2   -4    6     -1.91      0.00
    3   -4    6     -2.59      0.00
    8   -4    6     -0.04      0.00
    9   -4    6      0.20      0.00
   10   -4    6      2.27      0.00
   11   -4    6      0.72      0.00
   12   -4    6      0.65      0.00
  -11   -3    6      1.10      0.00
  -10   -3    6     -0.11      0.00
   -9   -3    6      7.27      0.00
   -8   -3    6     -1.26      0.00
   -7   -3    6      1.68      0.00
   -6   -3    6      0.02      0.00
   -5   -3    6     -0.65      0.00
   -4   -3    6     -0.99      0.00
   -3   -3    6     -2.37      0.00
   -2   -3    6     -3.20      0.00
   -1   -3    6      1.27      0.00
    1   -3    6     -3.85      0.00
    2   -3    6     -0.89      0.00
    3   -3    6      0.89      0.00
    4   -3    6     -6.40      0.00
    5   -3    6     -2.37      0.00
    6   -3    6     -3.62      0.00
    7   -3    6      0.14      0.00
    8   -3    6     -0.20      0.00
    9   -3    6     -0.30      0.00
   10   -3    6      1.44      0.00
   11   -3    6     -0.67      0.00
  -11   -2    6      3.65      0.00
  -10   -2    6     -2.53      0.00
   -9   -2    6      0.45      0.00
   -8   -2    6     -0.75      0.00
   -7   -2    6     -0.85      0.00
   -6   -2    6     -1.70      0.00
   -5   -2    6      0.77      0.00
   -4   -2    6     -1.28      0.00
   -3   -2    6      2.31      0.00
   -2   -2    6      6.64      0.00
   -1   -2    6     -9.76      0.00
    1   -2    6      9.29      0.00
    2   -2    6     -7.42      0.00
    3   -2    6      6.39      0.00
    4   -2    6      0.71      0.00
    5   -2    6      5.12      0.00
    7   -2    6     -0.71      0.00
    8   -2    6      2.45      0.00
    9   -2    6     -3.34      0.00
   10   -2    6     -1.25      0.00
  -11   -1    6     -3.53      0.00
  -10   -1    6     -3.12      0.00
   -9   -1    6     -0.14      0.00
   -8   -1    6     -5.36      0.00
   -7   -1    6      2.28      0.00
   -6   -1    6      1.68      0.00
   -5   -1    6     -0.54      0.00
   -4   -1    6      2.79      0.00
   -3   -1    6     -6.25      0.00
   -2   -1    6      3.48      0.00
   -1   -1    6      8.61      0.00
    0   -1    6      2.61      0.00
    1   -1    6      5.05      0.00
    2   -1    6     -3.72      0.00
    3   -1    6      4.60      0.00
    4   -1    6     -2.14      0.00
    5   -1    6     -4.99      0.00
    6   -1    6      3.55      0.00
    7   -1    6     -2.97      0.00
    8   -1    6     -0.73      0.00
    9   -1    6      3.54      0.00
   10   -1    6     -0.03      0.00
  -11    0    6      4.18      0.00
  -10    0    6      1.19      0.00
   -9    0    6      6.59      0.00
   -8    0    6      2.62      0.00
   -7    0    6     -2.59      0.00
   -6    0    6      1.40      0.00
   -5    0    6     -3.13      0.00
   -4    0    6     -1.13      0.00
   -3    0    6      1.28      0.00
   -2    0    6     -0.54      0.00
   -1    0    6    -14.44      0.00
    0    0    6     -4.88      0.00
    1    0    6     -2.88      0.00
    2    0    6     -4.97      0.00
    3    0    6     -4.41      0.00
    4    0    6      2.53      0.00
    5    0    6      2.03      0.00
    6    0    6     -2.31      0.00
    7    0    6      4.98      0.00
    8    0    6     -0.58      0.00
    9    0    6     -0.82      0.00
   10    0    6     -1.59      0.00
  -11    1    6     -2.35      0.00
  -10    1    6     -2.52      0.00
   -9    1    6     -4.18      0.00
   -8    1    6      0.46      0.00
   -7    1    6     -0.13      0.00
   -6    1    6      2.47      0.00
   -5    1    6      2.86      0.00
   -4    1    6      4.20      0.00
   -3    1    6     -2.96      0.00
   -2    1    6      8.58      0.00
   -1    1    6      2.75      0.00
    0    1    6     12.34      0.00
    1    1    6     -0.04      0.00
    2    1    6      3.78      0.00
    3    1    6      8.58      0.00
    4    1    6     -6.75      0.00
    5    1    6      1.52      0.00
    6    1    6     -1.46      0.00
    7    1    6     -4.75      0.00
    8    1    6      0.95      0.00
    9    1    6     -0.54      0.00
   10    1    6     -0.28      0.00
  -11    2    6      0.18      0.00
  -10    2    6      3.12      0.00
   -9    2    6     -1.24      0.00
   -8    2    6     -1.29      0.00
   -7    2    6     -0.62      0.00
   -6    2    6     -1.60      0.00
   -5    2    6     -6.98      0.00
   -4    2    6      0.76      0.00
   -3    2    6     -9.41      0.00
   -2    2    6     10.60      0.00
   -1    2    6    -16.57      0.00
    0    2    6      3.51      0.00
    1    2    6      1.81      0.00
    2    2    6     -6.74      0.00
    3    2    6      0.39      0.00
    4    2    6      3.40      0.00
    5    2    6     -1.94      0.00
    6    2    6      3.43      0.00
    7    2    6      1.04      0.00
    8    2    6     -0.28      0.00
    9    2    6      2.06      0.00
   10    2    6     -2.34      0.00
  -10    3    6      1.22      0.00
   -9    3    6      3.35      0.00
   -8    3    6      1.89      0.00
   -7    3    6     -1.29      0.00
   -6    3    6      4.92      0.00
   -5    3    6     -2.00      0.00
   -4    3    6     10.63      0.00
   -3    3    6     -6.75      0.00
   -2    3    6      0.28      0.00
   -1    3    6      3.15      0.00
    0    3    6     -6.94      0.00
    1    3    6     -3.76      0.00
    2    3    6      1.01      0.00
    3    3    6     -3.70      0.00
    4    3    6     -1.31      0.00
    5    3    6      1.99      0.00
    6    3    6     -1.17      0.00
    7    3    6      1.92      0.00
    8    3    6     -0.16      0.00
    9    3    6      1.35      0.00
   10    3    6     -1.33      0.00
  -10    4    6     -1.39      0.00
   -9    4    6     -5.91      0.00
   -8    4    6      2.36      0.00
   -7    4    6     -3.29      0.00
   -6    4    6      3.38      0.00
   -5    4    6     -3.15      0.00
   -4    4    6     -1.56      0.00
   -3    4    6      2.60      0.00
   -2    4    6      3.32      0.00
   -1    4    6     -1.15      0.00
    0    4    6     10.57      0.00
    1    4    6      2.21      0.00
    2    4    6      2.70      0.00
    3    4    6      4.39      0.00
    4    4    6     -1.49      0.00
    5    4    6     -0.36      0.00
    6    4    6     -2.37      0.00
    7    4    6     -0.08      0.00
    8    4    6     -2.93      0.00
    9    4    6     -2.61      0.00
   10    4    6      1.84      0.00
  -10    5    6      4.01      0.00
   -9    5    6     -0.16      0.00
   -8    5    6      1.02      0.00
   -7    5    6      0.95      0.00
   -6    5    6     -4.11      0.00
   -5    5    6      1.52      0.00
   -4    5    6      2.34      0.00
   -3    5    6     -4.30      0.00
   -2    5    6      2.69      0.00
   -1    5    6     -2.75      0.00
    0    5    6     -5.73      0.00
    1    5    6      0.76      0.00
    2    5    6     -3.36      0.00
    3    5    6      2.40      0.00
    4    5    6     -2.03      0.00
    5    5    6      2.46      0.00
    6    5    6     -1.15      0.00
    7    5    6     -1.88      0.00
    8    5    6      5.49      0.00
    9    5    6      0.81      0.00
   10    5    6      0.80      0.00
  -11    6    6      0.32      0.00
  -10    6    6      0.39      0.00
   -9    6    6      0.52      0.00
   -8    6    6     -2.09      0.00
   -7    6    6      0.68      0.00
   -6    6    6      2.46      0.00
   -5    6    6     -3.21      0.00
   -4    6    6     -0.73      0.00
   -3    6    6     -1.41      0.00
   -2    6    6     -3.59      0.00
   -1    6    6      1.86      0.00
    0    6    6     -0.43      0.00
    1    6    6      0.28      0.00
    2    6    6     -5.08      0.00
    3    6    6      0.03      0.00
    4    6    6     -0.86      0.00
    5    6    6     -0.65      0.00
    6    6    6      6.05      0.00
    7    6    6      0.72      0.00
    8    6    6     -1.97      0.00
    9    6    6     -4.18      0.00
   10    6    6      1.42      0.00
  -11    7    6     -1.53      0.00
  -10    7    6     -1.55      0.00
   -9    7    6      0.11      0.00
   -8    7    6      2.08      0.00
   -7    7    6      0.35      0.00
   -6    7    6      1.73      0.00
   -5    7    6      3.72      0.00
   -4    7    6      1.34      0.00
   -3    7    6      4.96      0.00
   -2    7    6      1.92      0.00
   -1    7    6      0.58      0.00
    0    7    6     -1.57      0.00
    1    7    6      3.91      0.00
    2    7    6      0.30      0.00
    3    7    6      1.27      0.00
    4    7    6      0.55      0.00
    5    7    6     -2.55      0.00
    6    7    6     -3.19      0.00
    7    7    6     -3.34      0.00
    8    7    6      3.54      0.00
    9    7    6      1.66      0.00
   10    7    6      2.11      0.00
  -10    8    6      1.76      0.00
   -9    8    6     -0.45      0.00
   -8    8    6     -3.30      0.00
   -7    8    6     -3.04      0.00
   -6    8    6     -5.19      0.00
   -5    8    6     -1.48      0.00
   -4    8    6     -5.11      0.00
   -3    8    6     -2.32      0.00
   -2    8    6     -1.21      0.00
   -1    8    6      0.64      0.00
    0    8    6      1.37      0.00
    1    8    6      0.42      0.00
    2    8    6      3.74      0.00
    3    8    6      1.62      0.00
    4    8    6      2.07      0.00
    5    8    6      0.53      0.00
    6    8    6      3.34      0.00
    7    8    6      0.99      0.00
    8    8    6     -1.51      0.00
    9    8    6     -3.33      0.00
   -9    9    6      0.45      0.00
   -8    9    6      4.04      0.00
   -7    9    6      5.39      0.00
   -6    9    6      2.98      0.00
   -5    9    6      2.70      0.00
   -4    9    6      1.89      0.00
   -3    9    6      3.26      0.00
   -2    9    6     -1.91      0.00
   -1    9    6      0.51      0.00
    0    9    6     -2.49      0.00
    1    9    6     -2.69      0.00
    2    9    6     -5.11      0.00
    3    9    6     -4.84      0.00
    4    9    6     -2.61      0.00
    5    9    6     -1.22      0.00
    6    9    6     -2.24      0.00
    7    9    6     -1.65      0.00
    8    9    6      0.75      0.00
    9    9    6      2.70      0.00
   -8   10    6     -4.11      0.00
   -6   10    6     -0.97      0.00
   -5   10    6      1.58      0.00
   -4   10    6     -3.43      0.00
   -3   10    6      0.98      0.00
   -2   10    6      0.25      0.00
   -1   10    6      0.68      0.00
    0   10    6      0.75      0.00
    1   10    6      0.39      0.00
    2   10    6      3.25      0.00
    3   10    6      2.81      0.00
    4   10    6      3.63      0.00
    5   10    6      2.40      0.00
    6   10    6      2.23      0.00
    7   10    6      3.32      0.00
   -6   11    6     -3.99      0.00
   -5   11    6     -0.78      0.00
   -4   11    6     -0.05      0.00
   -3   11    6     -1.28      0.00
   -2   11    6     -1.36      0.00
   -1   11    6      0.27      0.00
    0   11    6     -0.72      0.00
    1   11    6      4.28      0.00
    2   11    6      2.28      0.00
    3   11    6     -2.48      0.00
   -3   12    6      1.61      0.00
   -2   12    6      0.41      0.00
   -1   12    6      3.57      0.00
   -3   13    6     -0.80      0.00
   -2   13    6     -2.36      0.00
   -1   13    6      0.08      0.00
    4  -13    7     -1.62      0.00
    1  -12    7     -4.73      0.00
    2  -12    7     -3.74      0.00
    3  -12    7     -0.90      0.00
    4  -12    7      0.15      0.00
   -2  -11    7      6.27      0.00
   -1  -11    7      1.56      0.00
    0  -11    7      3.13      0.00
    1  -11    7      2.47      0.00
    2  -11    7      2.47      0.00
    3  -11    7      0.11      0.00
    4  -11    7     -1.51      0.00
   -5  -10    7     -1.79      0.00
   -4  -10    7      2.34      0.00
   -3  -10    7     -4.74      0.00
   -2  -10    7     -1.99      0.00
   -1  -10    7      0.07      0.00
    0  -10    7     -0.11      0.00
    1  -10    7     -2.52      0.00
    2  -10    7      0.80      0.00
    3  -10    7      1.94      0.00
    4  -10    7     -1.03      0.00
   -8   -9    7     -0.15      0.00
   -7   -9    7     -3.14      0.00
   -6   -9    7      6.45      0.00
   -5   -9    7     -2.57      0.00
   -4   -9    7      3.09      0.00
   -3   -9    7      1.22      0.00
   -2   -9    7      0.34      0.00
   -1   -9    7     -4.95      0.00
    0   -9    7      0.91      0.00
    1   -9    7     -0.98      0.00
    2   -9    7     -1.00      0.00
    3   -9    7     -1.09      0.00
    4   -9    7      0.12      0.00
  -10   -8    7     -0.98      0.00
   -9   -8    7     -3.23      0.00
   -8   -8    7      2.11      0.00
   -7   -8    7     -1.34      0.00
   -6   -8    7     -1.05      0.00
   -5   -8    7     -0.40      0.00
   -4   -8    7     -0.01      0.00
   -3   -8    7     -2.31      0.00
   -2   -8    7      4.17      0.00
   -1   -8    7      3.52      0.00
    0   -8    7      2.75      0.00
    1   -8    7     -1.93      0.00
    2   -8    7      0.15      0.00
    3   -8    7      1.62      0.00
    4   -8    7     -0.19      0.00
  -10   -7    7      0.75      0.00
   -9   -7    7      3.64      0.00
   -8   -7    7     -0.58      0.00
   -7   -7    7      0.72      0.00
   -6   -7    7      2.95      0.00
   -5   -7    7     -3.88      0.00
   -4   -7    7      1.99      0.00
   -3   -7    7     -0.12      0.00
   -2   -7    7     -1.97      0.00
   -1   -7    7     -4.70      0.00
    0   -7    7     -0.53      0.00
    1   -7    7      4.49      0.00
    2   -7    7     -1.06      0.00
    3   -7    7      1.96      0.00
    4   -7    7     -1.12      0.00
  -11   -6    7      2.75      0.00
  -10   -6    7      1.23      0.00
   -9   -6    7     -0.88      0.00
   -8   -6    7     -0.13      0.00
   -7   -6    7     -3.05      0.00
   -6   -6    7      0.44      0.00
   -5   -6    7      1.29      0.00
   -4   -6    7     -0.97      0.00
   -3   -6    7     -3.15      0.00
   -2   -6    7      1.80      0.00
   -1   -6    7      2.28      0.00
    0   -6    7     -3.21      0.00
    1   -6    7     -3.11      0.00
    2   -6    7     -0.50      0.00
    3   -6    7     -1.83      0.00
  -11   -5    7     -2.92      0.00
  -10   -5    7     -3.67      0.00
   -9   -5    7      1.54      0.00
   -8   -5    7     -1.86      0.00
   -7   -5    7      3.00      0.00
   -6   -5    7     -1.56      0.00
   -5   -5    7      1.16      0.00
   -4   -5    7      1.45      0.00
   -3   -5    7      4.57      0.00
   -2   -5    7     -0.27      0.00
   -1   -5    7     -0.88      0.00
    0   -5    7      4.81      0.00
    1   -5    7      1.42      0.00
    2   -5    7     -0.86      0.00
    3   -5    7      2.14      0.00
    4   -5    7     -1.02      0.00
  -11   -4    7      2.05      0.00
  -10   -4    7     -0.15      0.00
   -9   -4    7      0.54      0.00
   -8   -4    7     -0.88      0.00
   -7   -4    7      1.37      0.00
   -6   -4    7     -1.41      0.00
   -5   -4    7      0.24      0.00
   -4   -4    7     -2.65      0.00
   -3   -4    7     -4.15      0.00
   -2   -4    7      4.92      0.00
   -1   -4    7     -2.09      0.00
    0   -4    7     -4.28      0.00
    1   -4    7      4.69      0.00
    2   -4    7     -0.87      0.00
    3   -4    7      1.71      0.00
    4   -4    7      3.79      0.00
    5   -4    7     -1.17      0.00
    7   -4    7      2.13      0.00
    8   -4    7      1.60      0.00
    9   -4    7      0.07      0.00
   10   -4    7      2.45      0.00
   11   -4    7      0.12      0.00
   12   -4    7     -1.03      0.00
  -11   -3    7      1.31      0.00
  -10   -3    7      0.77      0.00
   -9   -3    7      5.34      0.00
   -8   -3    7     -4.10      0.00
   -7   -3    7      1.96      0.00
   -6   -3    7      1.46      0.00
   -5   -3    7      0.34      0.00
   -4   -3    7      1.31      0.00
   -3   -3    7     -0.99      0.00
   -2   -3    7     -4.67      0.00
   -1   -3    7      1.66      0.00
    1   -3    7     -1.82      0.00
    2   -3    7     -3.30      0.00
    3   -3    7     -3.64      0.00
    4   -3    7     -4.93      0.00
    5   -3    7      0.51      0.00
    6   -3    7     -0.16      0.00
    7   -3    7      0.16      0.00
    8   -3    7     -0.73      0.00
    9   -3    7     -1.31      0.00
   10   -3    7      0.15      0.00
   12   -3    7      1.92      0.00
  -11   -2    7      0.59      0.00
  -10   -2    7     -6.29      0.00
   -9   -2    7      1.14      0.00
   -8   -2    7      0.07      0.00
   -7   -2    7     -1.90      0.00
   -6   -2    7     -3.43      0.00
   -5   -2    7      0.95      0.00
   -4   -2    7     -2.25      0.00
   -3   -2    7      2.65      0.00
   -2   -2    7      5.98      0.00
   -1   -2    7     -5.41      0.00
    0   -2    7      0.71      0.00
    1   -2    7      7.13      0.00
    2   -2    7     -3.82      0.00
    3   -2    7      7.64      0.00
    4   -2    7      1.72      0.00
    5   -2    7      3.33      0.00
    6   -2    7     -1.11      0.00
    7   -2    7     -0.81      0.00
    8   -2    7      2.76      0.00
    9   -2    7     -1.50      0.00
   10   -2    7     -0.42      0.00
  -11   -1    7      0.23      0.00
  -10   -1    7     -0.20      0.00
   -9   -1    7     -0.53      0.00
   -8   -1    7     -3.49      0.00
   -7   -1    7      4.30      0.00
   -6   -1    7      3.35      0.00
   -5   -1    7     -0.28      0.00
   -4   -1    7      3.42      0.00
   -3   -1    7     -3.26      0.00
   -2   -1    7      2.85      0.00
   -1   -1    7      8.02      0.00
    0   -1    7     -4.48      0.00
    1   -1    7      7.06      0.00
    2   -1    7     -6.47      0.00
    3   -1    7      4.66      0.00
    4   -1    7     -5.18      0.00
    5   -1    7     -4.00      0.00
    6   -1    7      2.52      0.00
    7   -1    7     -3.85      0.00
    8   -1    7     -1.34      0.00
    9   -1    7      1.62      0.00
   10   -1    7      0.70      0.00
  -11    0    7      2.47      0.00
  -10    0    7      1.69      0.00
   -9    0    7      7.73      0.00
   -8    0    7      0.09      0.00
   -7    0    7     -4.48      0.00
   -6    0    7      0.82      0.00
   -5    0    7     -3.35      0.00
   -4    0    7     -1.83      0.00
   -3    0    7     -2.42      0.00
   -2    0    7     -4.75      0.00
   -1    0    7    -10.11      0.00
    0    0    7     -3.62      0.00
    1    0    7      0.31      0.00
    2    0    7     -4.41      0.00
    3    0    7     -2.82      0.00
    4    0    7      5.47      0.00
    5    0    7      1.16      0.00
    6    0    7      0.69      0.00
    7    0    7      5.12      0.00
    8    0    7      0.30      0.00
    9    0    7      1.39      0.00
   10    0    7     -4.28      0.00
  -11    1    7     -2.64      0.00
  -10    1    7     -6.10      0.00
   -9    1    7     -5.27      0.00
   -8    1    7      1.79      0.00
   -7    1    7      1.32      0.00
   -6    1    7      1.24      0.00
   -5    1    7      0.81      0.00
   -4    1    7      3.13      0.00
   -3    1    7      0.02      0.00
   -2    1    7      8.89      0.00
   -1    1    7      3.23      0.00
    0    1    7      6.47      0.00
    1    1    7     -2.08      0.00
    2    1    7      3.12      0.00
    3    1    7      4.44      0.00
    4    1    7     -7.86      0.00
    5    1    7      2.17      0.00
    6    1    7     -3.09      0.00
    7    1    7     -3.07      0.00
    8    1    7     -0.42      0.00
    9    1    7     -1.39      0.00
   10    1    7      1.85      0.00
  -11    2    7      2.01      0.00
  -10    2    7      6.00      0.00
   -9    2    7      0.88      0.00
   -8    2    7     -1.79      0.00
   -7    2    7     -2.02      0.00
   -6    2    7      0.34      0.00
   -5    2    7     -2.87      0.00
   -4    2    7      4.01      0.00
   -3    2    7     -5.58      0.00
   -2    2    7      7.30      0.00
   -1    2    7     -9.86      0.00
    0    2    7      5.23      0.00
    1    2    7      4.66      0.00
    2    2    7     -6.09      0.00
    3    2    7      4.03      0.00
    4    2    7      2.93      0.00
    5    2    7     -2.21      0.00
    6    2    7      2.84      0.00
    7    2    7     -1.59      0.00
    8    2    7      0.29      0.00
    9    2    7      2.46      0.00
   10    2    7     -3.03      0.00
  -10    3    7     -0.61      0.00
   -9    3    7     -0.12      0.00
   -8    3    7      0.35      0.00
   -7    3    7      1.25      0.00
   -6    3    7      3.06      0.00
   -5    3    7     -4.98      0.00
   -4    3    7      4.88      0.00
   -3    3    7    -11.45      0.00
   -2    3    7      0.88      0.00
   -1    3    7     -2.40      0.00
    0    3    7     -7.16      0.00
    1    3    7     -4.37      0.00
    2    3    7      1.42      0.00
    3    3    7     -4.28      0.00
    4    3    7      0.19      0.00
    5    3    7      0.91      0.00
    6    3    7      1.47      0.00
    7    3    7      3.12      0.00
    8    3    7      0.26      0.00
    9    3    7      0.56      0.00
   10    3    7     -0.21      0.00
  -10    4    7     -0.37      0.00
   -9    4    7      0.70      0.00
   -8    4    7      3.45      0.00
   -7    4    7     -3.59      0.00
   -6    4    7      2.70      0.00
   -5    4    7     -1.76      0.00
   -4    4    7      3.29      0.00
   -3    4    7      6.54      0.00
   -2    4    7      2.89      0.00
   -1    4    7      2.17      0.00
    0    4    7      7.31      0.00
    1    4    7      2.05      0.00
    2    4    7      0.46      0.00
    3    4    7      2.04      0.00
    4    4    7     -1.56      0.00
    5    4    7     -1.22      0.00
    6    4    7     -2.48      0.00
    7    4    7     -1.65      0.00
    8    4    7     -3.21      0.00
    9    4    7     -1.54      0.00
   10    4    7     -0.31      0.00
  -10    5    7      2.73      0.00
   -9    5    7     -5.25      0.00
   -8    5    7     -0.85      0.00
   -7    5    7     -0.07      0.00
   -6    5    7     -1.73      0.00
   -5    5    7      0.87      0.00
   -4    5    7     -0.09      0.00
   -3    5    7     -6.64      0.00
   -2    5    7      2.31      0.00
   -1    5    7     -2.29      0.00
    0    5    7     -2.76      0.00
    1    5    7      1.26      0.00
    2    5    7     -1.75      0.00
    3    5    7      2.89      0.00
    4    5    7      0.05      0.00
    5    5    7      0.92      0.00
    6    5    7     -0.68      0.00
    7    5    7      0.13      0.00
    8    5    7      5.11      0.00
    9    5    7      0.85      0.00
   10    5    7      2.07      0.00
  -11    6    7     -2.54      0.00
  -10    6    7      0.35      0.00
   -9    6    7      2.75      0.00
   -8    6    7     -0.76      0.00
   -7    6    7      1.41      0.00
   -6    6    7      1.03      0.00
   -5    6    7     -2.88      0.00
   -4    6    7     -0.21      0.00
   -3    6    7     -0.31      0.00
   -2    6    7     -2.69      0.00
   -1    6    7      0.20      0.00
    0    6    7     -2.26      0.00
    1    6    7      1.71      0.00
    2    6    7     -3.77      0.00
    3    6    7     -0.14      0.00
    4    6    7     -0.78      0.00
    5    6    7      0.16      0.00
    6    6    7      6.25      0.00
    7    6    7     -1.74      0.00
    8    6    7     -2.29      0.00
    9    6    7     -3.65      0.00
   10    6    7      0.68      0.00
  -11    7    7      0.32      0.00
  -10    7    7     -0.42      0.00
   -9    7    7     -0.33      0.00
   -8    7    7      2.17      0.00
   -7    7    7     -0.78      0.00
   -6    7    7      1.34      0.00
   -5    7    7      2.91      0.00
   -4    7    7      2.10      0.00
   -3    7    7      4.44      0.00
   -2    7    7      1.32      0.00
   -1    7    7      2.01      0.00
    0    7    7     -1.50      0.00
    1    7    7      0.96      0.00
    2    7    7     -0.07      0.00
    3    7    7      0.18      0.00
    4    7    7      1.59      0.00
    5    7    7     -4.16      0.00
    6    7    7     -3.05      0.00
    7    7    7     -1.21      0.00
    8    7    7      3.56      0.00
    9    7    7      2.03      0.00
   10    7    7      0.31      0.00
   -8    8    7     -2.39      0.00
   -7    8    7     -2.53      0.00
   -6    8    7     -2.25      0.00
   -5    8    7     -0.89      0.00
   -4    8    7     -6.15      0.00
   -3    8    7     -1.57      0.00
   -2    8    7     -1.27      0.00
   -1    8    7      1.36      0.00
    0    8    7      2.38      0.00
    1    8    7      2.68      0.00
    2    8    7      1.12      0.00
    3    8    7      0.88      0.00
    4    8    7      1.05      0.00
    5    8    7      0.31      0.00
    6    8    7      3.61      0.00
    7    8    7     -0.74      0.00
    8    8    7     -2.09      0.00
    9    8    7     -3.23      0.00
   -9    9    7     -0.03      0.00
   -8    9    7      3.95      0.00
   -7    9    7      4.86      0.00
   -6    9    7     -0.16      0.00
   -5    9    7      4.88      0.00
   -4    9    7      1.48      0.00
   -3    9    7      2.12      0.00
   -2    9    7     -2.70      0.00
   -1    9    7     -3.05      0.00
    0    9    7     -5.06      0.00
    1    9    7     -3.52      0.00
    2    9    7     -0.09      0.00
    3    9    7     -5.44      0.00
    4    9    7     -0.04      0.00
    5    9    7     -0.46      0.00
    6    9    7     -1.57      0.00
    7    9    7     -0.04      0.00
    8    9    7      2.62      0.00
   -7   10    7     -3.18      0.00
   -6   10    7     -2.61      0.00
   -5   10    7     -1.73      0.00
   -4   10    7     -4.09      0.00
   -3   10    7      2.82      0.00
   -2   10    7      1.63      0.00
   -1   10    7      7.09      0.00
    0   10    7      3.43      0.00
    1   10    7      0.45      0.00
    2   10    7      2.16      0.00
    3   10    7      4.88      0.00
    4   10    7      2.08      0.00
    5   10    7      1.46      0.00
    6   10    7      1.51      0.00
   -4   11    7      0.55      0.00
   -3   11    7     -0.59      0.00
   -2   11    7     -3.37      0.00
   -1   11    7     -3.99      0.00
    0   11    7     -2.39      0.00
    1   11    7      2.94      0.00
    2   11    7     -0.08      0.00
    3   11    7     -6.81      0.00
   -3   12    7     -0.37      0.00
   -2   12    7     -0.17      0.00
   -1   12    7      4.72      0.00
   -3   13    7      1.93      0.00
   -2   13    7     -0.91      0.00
   -1   13    7      0.90      0.00
    2  -12    8     -1.54      0.00
    3  -12    8      3.77      0.00
    4  -12    8      0.06      0.00
   -2  -11    8      3.22      0.00
   -1  -11    8     -1.46      0.00
    0  -11    8      2.20      0.00
    1  -11    8      2.60      0.00
    2  -11    8     -1.76      0.00
    3  -11    8     -2.07      0.00
    4  -11    8     -1.65      0.00
   -5  -10    8      0.87      0.00
   -4  -10    8      2.57      0.00
   -3  -10    8     -2.37      0.00
   -2  -10    8     -0.50      0.00
   -1  -10    8      1.14      0.00
    0  -10    8     -0.97      0.00
    1  -10    8     -1.96      0.00
    2  -10    8      4.06      0.00
    3  -10    8      3.26      0.00
    4  -10    8     -0.08      0.00
   -7   -9    8     -0.45      0.00
   -6   -9    8      4.96      0.00
   -5   -9    8     -3.38      0.00
   -4   -9    8      0.82      0.00
   -3   -9    8      0.34      0.00
   -2   -9    8     -0.99      0.00
   -1   -9    8     -3.40      0.00
    0   -9    8      3.11      0.00
    1   -9    8     -1.69      0.00
    2   -9    8     -3.69      0.00
    3   -9    8     -1.66      0.00
    4   -9    8     -1.36      0.00
   -9   -8    8     -0.92      0.00
   -8   -8    8      3.38      0.00
   -7   -8    8     -3.79      0.00
   -6   -8    8     -0.03      0.00
   -5   -8    8     -0.82      0.00
   -4   -8    8      2.23      0.00
   -3   -8    8     -2.11      0.00
   -2   -8    8      5.69      0.00
   -1   -8    8     -0.07      0.00
    0   -8    8      0.41      0.00
    1   -8    8     -0.64      0.00
    2   -8    8      2.15      0.00
    3   -8    8      1.96      0.00
    4   -8    8      1.94      0.00
  -10   -7    8      2.53      0.00
   -9   -7    8      2.01      0.00
   -8   -7    8     -1.10      0.00
   -7   -7    8      3.14      0.00
   -6   -7    8      1.63      0.00
   -5   -7    8     -3.56      0.00
   -4   -7    8      0.56      0.00
   -3   -7    8     -0.99      0.00
   -2   -7    8     -2.18      0.00
   -1   -7    8     -2.08      0.00
    0   -7    8      2.79      0.00
    1   -7    8      2.93      0.00
    2   -7    8     -1.84      0.00
    3   -7    8      0.34      0.00
    4   -7    8     -2.16      0.00
  -11   -6    8      0.06      0.00
  -10   -6    8     -1.92      0.00
   -9   -6    8      0.28      0.00
   -8   -6    8     -2.48      0.00
   -7   -6    8     -4.63      0.00
   -6   -6    8      2.41      0.00
   -5   -6    8      2.25      0.00
   -4   -6    8      0.34      0.00
   -3   -6    8     -2.12      0.00
   -2   -6    8      2.74      0.00
   -1   -6    8      0.79      0.00
    0   -6    8     -6.92      0.00
    1   -6    8     -2.74      0.00
    2   -6    8     -1.19      0.00
    3   -6    8     -0.38      0.00
    4   -6    8      0.58      0.00
  -11   -5    8     -2.71      0.00
  -10   -5    8     -1.83      0.00
   -9   -5    8      0.42      0.00
   -8   -5    8      2.70      0.00
   -7   -5    8      3.73      0.00
   -6   -5    8     -3.22      0.00
   -5   -5    8     -1.00      0.00
   -4   -5    8      1.53      0.00
   -3   -5    8      3.02      0.00
   -2   -5    8     -2.28      0.00
   -1   -5    8     -0.76      0.00
    0   -5    8      6.25      0.00
    1   -5    8      3.30      0.00
    2   -5    8      0.30      0.00
    3   -5    8      1.67      0.00
    4   -5    8     -1.24      0.00
  -11   -4    8      4.20      0.00
  -10   -4    8      1.81      0.00
   -9   -4    8      2.02      0.00
   -8   -4    8     -5.56      0.00
   -7   -4    8      0.67      0.00
   -6   -4    8     -0.60      0.00
   -5   -4    8      1.91      0.00
   -4   -4    8     -5.56      0.00
   -3   -4    8     -2.81      0.00
   -2   -4    8      5.42      0.00
   -1   -4    8      1.17      0.00
    0   -4    8     -4.45      0.00
    1   -4    8      3.53      0.00
    2   -4    8     -0.74      0.00
    3   -4    8      0.83      0.00
    4   -4    8      1.88      0.00
    5   -4    8     -1.45      0.00
    6   -4    8      0.17      0.00
    7   -4    8      0.86      0.00
    8   -4    8      1.56      0.00
    9   -4    8     -0.78      0.00
   10   -4    8      0.04      0.00
   11   -4    8     -2.94      0.00
   12   -4    8     -3.88      0.00
  -11   -3    8     -3.01      0.00
  -10   -3    8     -2.35      0.00
   -9   -3    8      2.68      0.00
   -8   -3    8      0.25      0.00
   -7   -3    8      2.78      0.00
   -6   -3    8      0.51      0.00
   -5   -3    8      0.94      0.00
   -4   -3    8      4.96      0.00
   -3   -3    8      0.78      0.00
   -2   -3    8     -5.00      0.00
   -1   -3    8     -0.85      0.00
    0   -3    8     -3.13      0.00
    1   -3    8     -1.78      0.00
    2   -3    8     -5.49      0.00
    3   -3    8     -2.38      0.00
    4   -3    8     -0.92      0.00
    5   -3    8      1.03      0.00
    6   -3    8      0.34      0.00
    7   -3    8      0.26      0.00
    8   -3    8     -1.50      0.00
    9   -3    8     -1.52      0.00
   10   -3    8      1.71      0.00
   11   -3    8      4.26      0.00
   12   -3    8      5.85      0.00
  -11   -2    8      2.27      0.00
  -10   -2    8     -3.42      0.00
   -9   -2    8      3.21      0.00
   -8   -2    8     -3.37      0.00
   -7   -2    8     -3.03      0.00
   -6   -2    8     -1.87      0.00
   -5   -2    8      0.08      0.00
   -4   -2    8     -5.06      0.00
   -3   -2    8      0.91      0.00
   -2   -2    8      3.86      0.00
   -1   -2    8     -0.41      0.00
    0   -2    8     -0.68      0.00
    1   -2    8      7.48      0.00
    2   -2    8      0.03      0.00
    3   -2    8      4.73      0.00
    4   -2    8     -0.83      0.00
    5   -2    8      1.27      0.00
    6   -2    8     -1.75      0.00
    7   -2    8     -1.46      0.00
    8   -2    8      3.52      0.00
    9   -2    8      0.38      0.00
   10   -2    8     -0.28      0.00
  -11   -1    8      1.77      0.00
  -10   -1    8     -1.62      0.00
   -9   -1    8     -1.53      0.00
   -8   -1    8     -0.12      0.00
   -7   -1    8      5.35      0.00
   -6   -1    8      1.15      0.00
   -5   -1    8     -0.02      0.00
   -4   -1    8      2.98      0.00
   -3   -1    8     -2.40      0.00
   -2   -1    8      1.42      0.00
   -1   -1    8      3.53      0.00
    0   -1    8     -1.89      0.00
    1   -1    8      5.06      0.00
    2   -1    8     -6.07      0.00
    3   -1    8      5.56      0.00
    4   -1    8     -3.30      0.00
    5   -1    8     -2.54      0.00
    6   -1    8      3.62      0.00
    7   -1    8     -2.22      0.00
    8   -1    8     -1.15      0.00
    9   -1    8      0.20      0.00
   10   -1    8     -0.86      0.00
  -11    0    8      0.22      0.00
  -10    0    8      2.13      0.00
   -9    0    8      7.82      0.00
   -8    0    8     -2.58      0.00
   -7    0    8     -5.20      0.00
   -6    0    8      1.80      0.00
   -5    0    8     -2.49      0.00
   -4    0    8      0.96      0.00
   -3    0    8      0.38      0.00
   -2    0    8     -2.59      0.00
   -1    0    8     -1.57      0.00
    0    0    8     -7.07      0.00
    1    0    8      3.82      0.00
    2    0    8     -6.70      0.00
    3    0    8     -1.76      0.00
    4    0    8      4.34      0.00
    5    0    8      0.62      0.00
    6    0    8      0.39      0.00
    7    0    8      2.81      0.00
    8    0    8     -1.41      0.00
    9    0    8      1.20      0.00
   10    0    8     -3.10      0.00
  -11    1    8     -1.96      0.00
  -10    1    8     -7.34      0.00
   -9    1    8     -4.75      0.00
   -8    1    8      2.24      0.00
   -7    1    8      2.43      0.00
   -6    1    8      1.46      0.00
   -5    1    8     -0.80      0.00
   -4    1    8     -0.31      0.00
   -3    1    8     -3.77      0.00
   -2    1    8      2.67      0.00
   -1    1    8     -1.13      0.00
    0    1    8      4.35      0.00
    1    1    8     -3.69      0.00
    2    1    8      4.12      0.00
    3    1    8      0.93      0.00
    4    1    8     -5.98      0.00
    5    1    8      0.65      0.00
    6    1    8     -2.92      0.00
    7    1    8     -1.79      0.00
    8    1    8      0.75      0.00
    9    1    8      0.40      0.00
   10    1    8      1.67      0.00
  -10    2    8      6.84      0.00
   -9    2    8      2.58      0.00
   -8    2    8     -1.65      0.00
   -7    2    8     -2.03      0.00
   -6    2    8     -0.89      0.00
   -5    2    8     -0.45      0.00
   -4    2    8      5.84      0.00
   -3    2    8      1.35      0.00
   -2    2    8      8.98      0.00
   -1    2    8     -3.55      0.00
    0    2    8      4.57      0.00
    1    2    8      4.92      0.00
    2    2    8     -4.80      0.00
    3    2    8      6.77      0.00
    4    2    8      0.88      0.00
    5    2    8     -0.56      0.00
    6    2    8      2.91      0.00
    7    2    8     -0.79      0.00
    8    2    8      0.64      0.00
    9    2    8      0.93      0.00
   10    2    8     -1.66      0.00
  -10    3    8     -2.91      0.00
   -9    3    8     -2.01      0.00
   -8    3    8     -1.26      0.00
   -7    3    8      1.74      0.00
   -6    3    8      2.36      0.00
   -5    3    8     -5.64      0.00
   -4    3    8      1.91      0.00
   -3    3    8    -14.95      0.00
   -2    3    8     -2.12      0.00
   -1    3    8     -4.12      0.00
    0    3    8     -5.41      0.00
    1    3    8     -1.40      0.00
    2    3    8     -0.54      0.00
    3    3    8     -4.49      0.00
    4    3    8      2.94      0.00
    5    3    8     -0.22      0.00
    6    3    8      2.50      0.00
    7    3    8      1.13      0.00
    8    3    8     -0.64      0.00
    9    3    8     -0.24      0.00
   10    3    8     -0.65      0.00
  -10    4    8      2.12      0.00
   -9    4    8      4.36      0.00
   -8    4    8      2.78      0.00
   -7    4    8     -2.35      0.00
   -6    4    8      3.32      0.00
   -5    4    8     -1.04      0.00
   -4    4    8      5.15      0.00
   -3    4    8      7.96      0.00
   -2    4    8      4.59      0.00
   -1    4    8      2.34      0.00
    0    4    8      3.30      0.00
    1    4    8     -0.55      0.00
    2    4    8      0.86      0.00
    3    4    8      0.68      0.00
    4    4    8     -2.31      0.00
    5    4    8     -3.45      0.00
    6    4    8     -2.97      0.00
    7    4    8     -2.02      0.00
    8    4    8     -2.35      0.00
    9    4    8     -1.16      0.00
   10    4    8     -1.11      0.00
  -10    5    8     -1.76      0.00
   -9    5    8     -6.92      0.00
   -8    5    8     -0.44      0.00
   -7    5    8     -0.95      0.00
   -6    5    8     -2.76      0.00
   -5    5    8     -0.07      0.00
   -4    5    8     -1.94      0.00
   -3    5    8     -6.13      0.00
   -2    5    8      0.95      0.00
   -1    5    8     -1.15      0.00
    0    5    8     -0.30      0.00
    1    5    8      2.60      0.00
    2    5    8     -1.52      0.00
    3    5    8      0.43      0.00
    4    5    8      1.49      0.00
    5    5    8      1.13      0.00
    6    5    8      1.71      0.00
    7    5    8      3.08      0.00
    8    5    8      4.01      0.00
    9    5    8      3.01      0.00
   10    5    8      4.54      0.00
  -11    6    8     -0.92      0.00
  -10    6    8      3.80      0.00
   -9    6    8      3.32      0.00
   -8    6    8     -0.46      0.00
   -7    6    8      1.23      0.00
   -6    6    8      3.45      0.00
   -5    6    8     -1.20      0.00
   -4    6    8      2.60      0.00
   -3    6    8     -0.30      0.00
   -2    6    8     -1.02      0.00
   -1    6    8      0.33      0.00
    0    6    8     -2.86      0.00
    1    6    8      2.10      0.00
    2    6    8     -1.98      0.00
    3    6    8      3.29      0.00
    4    6    8      1.82      0.00
    5    6    8      0.70      0.00
    6    6    8      2.35      0.00
    7    6    8     -4.15      0.00
    8    6    8     -2.25      0.00
    9    6    8     -4.52      0.00
   10    6    8     -3.74      0.00
  -11    7    8     -0.20      0.00
  -10    7    8     -1.58      0.00
   -9    7    8     -0.57      0.00
   -8    7    8      1.93      0.00
   -7    7    8     -1.70      0.00
   -6    7    8     -2.25      0.00
   -5    7    8      0.45      0.00
   -4    7    8     -1.24      0.00
   -3    7    8      2.20      0.00
   -2    7    8     -1.25      0.00
   -1    7    8     -0.02      0.00
    0    7    8     -2.49      0.00
    1    7    8      0.10      0.00
    2    7    8     -0.66      0.00
    3    7    8     -4.68      0.00
    4    7    8     -1.90      0.00
    5    7    8     -6.03      0.00
    6    7    8      0.85      0.00
    7    7    8      0.92      0.00
    8    7    8      2.04      0.00
    9    7    8      1.49      0.00
   -8    8    8     -0.65      0.00
   -7    8    8     -0.20      0.00
   -6    8    8      2.07      0.00
   -5    8    8      1.66      0.00
   -4    8    8     -3.49      0.00
   -3    8    8      1.40      0.00
   -2    8    8      1.11      0.00
   -1    8    8      4.56      0.00
    0    8    8      2.88      0.00
    1    8    8      0.65      0.00
    2    8    8      0.35      0.00
    3    8    8      3.12      0.00
    4    8    8      4.40      0.00
    5    8    8      2.12      0.00
    6    8    8      0.50      0.00
    7    8    8     -2.04      0.00
    8    8    8     -1.22      0.00
    9    8    8      0.22      0.00
   -8    9    8      2.07      0.00
   -7    9    8      1.27      0.00
   -6    9    8     -4.69      0.00
   -5    9    8      3.59      0.00
   -4    9    8     -0.79      0.00
   -3    9    8      0.59      0.00
   -2    9    8     -4.08      0.00
   -1    9    8     -4.33      0.00
    0    9    8     -3.61      0.00
    1    9    8      1.90      0.00
    2    9    8      1.71      0.00
    3    9    8     -5.04      0.00
    4    9    8     -1.07      0.00
    5    9    8     -1.62      0.00
    6    9    8      0.73      0.00
    7    9    8      1.11      0.00
    8    9    8      2.84      0.00
   -6   10    8     -1.72      0.00
   -5   10    8      1.22      0.00
   -4   10    8     -2.51      0.00
   -3   10    8      3.82      0.00
   -2   10    8      1.36      0.00
   -1   10    8      6.79      0.00
    0   10    8     -0.71      0.00
    1   10    8     -5.29      0.00
    2   10    8      2.92      0.00
    3   10    8      2.07      0.00
    4   10    8      1.11      0.00
    5   10    8      1.00      0.00
    6   10    8      0.11      0.00
   -3   11    8     -1.13      0.00
   -2   11    8     -4.18      0.00
   -1   11    8     -1.57      0.00
    0   11    8      1.37      0.00
    1   11    8      3.91      0.00
   -3   12    8      0.88      0.00
   -2   12    8      0.22      0.00
   -1   12    8      2.49      0.00
    0   12    8     -4.90      0.00
   -2   13    8     -0.70      0.00
   -1   13    8      2.28      0.00
    0   13    8      2.45      0.00
    3  -12    9      4.79      0.00
    4  -12    9     -0.15      0.00
   -1  -11    9     -3.08      0.00
    0  -11    9      0.58      0.00
    1  -11    9      2.05      0.00
    2  -11    9     -4.32      0.00
    3  -11    9      0.30      0.00
    4  -11    9     -0.48      0.00
   -4  -10    9      4.76      0.00
   -3  -10    9     -0.15      0.00
   -2  -10    9      2.12      0.00
   -1  -10    9      1.03      0.00
    0  -10    9     -0.76      0.00
    1  -10    9     -0.67      0.00
    2  -10    9      3.88      0.00
    3  -10    9      0.41      0.00
    4  -10    9     -1.88      0.00
   -7   -9    9      2.18      0.00
   -6   -9    9      1.95      0.00
   -5   -9    9     -4.08      0.00
   -4   -9    9     -3.60      0.00
   -3   -9    9     -1.84      0.00
   -1   -9    9     -1.50      0.00
    0   -9    9      4.46      0.00
    1   -9    9     -2.24      0.00
    2   -9    9     -2.30      0.00
    3   -9    9     -0.49      0.00
    4   -9    9      0.09      0.00
   -9   -8    9      1.18      0.00
   -8   -8    9     -2.23      0.00
   -7   -8    9     -5.21      0.00
   -6   -8    9      0.56      0.00
   -5   -8    9      0.74      0.00
   -4   -8    9      6.03      0.00
   -3   -8    9      0.54      0.00
   -2   -8    9      4.56      0.00
   -1   -8    9     -3.01      0.00
    0   -8    9     -1.07      0.00
    1   -8    9     -1.03      0.00
    2   -8    9      0.55      0.00
    3   -8    9      1.42      0.00
    4   -8    9      2.23      0.00
  -10   -7    9      1.72      0.00
   -9   -7    9      0.16      0.00
   -8   -7    9      2.45      0.00
   -7   -7    9      3.03      0.00
   -6   -7    9      2.25      0.00
   -5   -7    9     -4.74      0.00
   -4   -7    9     -1.86      0.00
   -3   -7    9     -4.46      0.00
   -2   -7    9      0.51      0.00
   -1   -7    9     -1.01      0.00
    0   -7    9      2.26      0.00
    1   -7    9      2.19      0.00
    2   -7    9     -0.86      0.00
    3   -7    9      0.53      0.00
    4   -7    9     -1.91      0.00
  -11   -6    9     -2.30      0.00
  -10   -6    9     -2.81      0.00
   -9   -6    9      0.94      0.00
   -8   -6    9     -4.93      0.00
   -7   -6    9     -2.75      0.00
   -6   -6    9      1.14      0.00
   -5   -6    9      2.90      0.00
   -4   -6    9      2.23      0.00
   -3   -6    9      0.82      0.00
   -2   -6    9      0.36      0.00
   -1   -6    9      1.67      0.00
    0   -6    9     -3.56      0.00
    1   -6    9      1.33      0.00
    2   -6    9      0.70      0.00
    3   -6    9     -0.79      0.00
    4   -6    9      1.11      0.00
  -11   -5    9     -0.43      0.00
  -10   -5    9     -0.32      0.00
   -9   -5    9      1.89      0.00
   -8   -5    9      5.11      0.00
   -7   -5    9      1.94      0.00
   -6   -5    9     -1.46      0.00
   -5   -5    9     -0.93      0.00
   -4   -5    9     -0.42      0.00
   -3   -5    9      0.74      0.00
   -2   -5    9     -1.23      0.00
   -1   -5    9     -0.44      0.00
    0   -5    9      0.88      0.00
    1   -5    9     -1.44      0.00
    2   -5    9     -4.30      0.00
    3   -5    9      0.56      0.00
    4   -5    9     -2.08      0.00
    5   -5    9     -0.37      0.00
  -11   -4    9      4.78      0.00
  -10   -4    9      4.01      0.00
   -9   -4    9     -0.37      0.00
   -8   -4    9     -6.53      0.00
   -7   -4    9      0.70      0.00
   -6   -4    9     -2.18      0.00
   -5   -4    9      0.61      0.00
   -4   -4    9     -3.81      0.00
   -3   -4    9      0.00      0.00
   -2   -4    9      4.22      0.00
   -1   -4    9      1.30      0.00
    0   -4    9     -2.57      0.00
    1   -4    9      6.51      0.00
    2   -4    9      3.19      0.00
    3   -4    9      1.94      0.00
    4   -4    9      2.77      0.00
    5   -4    9      0.04      0.00
    6   -4    9      0.95      0.00
    7   -4    9      0.61      0.00
    8   -4    9      2.85      0.00
    9   -4    9     -1.45      0.00
   10   -4    9     -0.66      0.00
   11   -4    9     -3.40      0.00
   12   -4    9     -3.49      0.00
  -11   -3    9     -8.96      0.00
  -10   -3    9     -7.68      0.00
   -9   -3    9      2.54      0.00
   -8   -3    9      0.00      0.00
   -7   -3    9      2.36      0.00
   -6   -3    9      1.10      0.00
   -5   -3    9      3.97      0.00
   -4   -3    9      3.01      0.00
   -3   -3    9     -0.97      0.00
   -2   -3    9     -6.65      0.00
   -1   -3    9     -0.53      0.00
    0   -3    9     -2.72      0.00
    1   -3    9     -2.53      0.00
    2   -3    9     -5.89      0.00
    3   -3    9     -1.94      0.00
    4   -3    9      0.46      0.00
    5   -3    9     -0.98      0.00
    6   -3    9      0.62      0.00
    7   -3    9     -1.32      0.00
    8   -3    9     -1.99      0.00
    9   -3    9      1.27      0.00
   10   -3    9      2.86      0.00
   11   -3    9      3.80      0.00
   12   -3    9      3.45      0.00
  -11   -2    9      8.26      0.00
  -10   -2    9      3.24      0.00
   -9   -2    9      3.45      0.00
   -8   -2    9     -1.27      0.00
   -7   -2    9     -1.30      0.00
   -6   -2    9     -1.11      0.00
   -5   -2    9     -2.75      0.00
   -4   -2    9     -4.43      0.00
   -3   -2    9      2.71      0.00
   -2   -2    9      6.20      0.00
   -1   -2    9      2.05      0.00
    0   -2    9     -1.06      0.00
    1   -2    9      7.20      0.00
    2   -2    9      0.62      0.00
    3   -2    9      1.21      0.00
    4   -2    9     -2.38      0.00
    5   -2    9     -0.36      0.00
    6   -2    9     -2.64      0.00
    7   -2    9      0.73      0.00
    8   -2    9      2.78      0.00
    9   -2    9     -1.86      0.00
   10   -2    9     -1.88      0.00
   11   -2    9     -3.34      0.00
  -11   -1    9     -1.57      0.00
  -10   -1    9     -5.66      0.00
   -9   -1    9     -0.33      0.00
   -8   -1    9     -1.53      0.00
   -7   -1    9      1.91      0.00
   -6   -1    9     -0.81      0.00
   -5   -1    9      1.60      0.00
   -4   -1    9      3.13      0.00
   -3   -1    9     -3.02      0.00
   -2   -1    9     -2.85      0.00
   -1   -1    9      0.83      0.00
    0   -1    9     -2.33      0.00
    1   -1    9      2.00      0.00
    2   -1    9     -4.97      0.00
    3   -1    9      5.82      0.00
    4   -1    9     -0.33      0.00
    5   -1    9      0.82      0.00
    6   -1    9      6.35      0.00
    7   -1    9     -3.12      0.00
    8   -1    9     -0.74      0.00
    9   -1    9      0.77      0.00
   10   -1    9     -0.75      0.00
  -11    0    9      1.37      0.00
  -10    0    9      3.16      0.00
   -9    0    9      5.03      0.00
   -8    0    9     -1.92      0.00
   -7    0    9     -0.75      0.00
   -6    0    9      3.24      0.00
   -5    0    9     -1.50      0.00
   -4    0    9      0.14      0.00
   -3    0    9      1.06      0.00
   -2    0    9      0.86      0.00
   -1    0    9      1.10      0.00
    0    0    9     -5.50      0.00
    1    0    9      4.85      0.00
    2    0    9     -5.92      0.00
    3    0    9     -0.62      0.00
    4    0    9      2.50      0.00
    5    0    9     -3.95      0.00
    6    0    9     -2.67      0.00
    7    0    9      1.75      0.00
    8    0    9     -1.59      0.00
    9    0    9      2.81      0.00
   10    0    9     -0.57      0.00
  -11    1    9     -1.85      0.00
  -10    1    9     -7.88      0.00
   -9    1    9     -1.53      0.00
   -8    1    9      0.54      0.00
   -7    1    9     -0.30      0.00
   -6    1    9     -0.65      0.00
   -5    1    9     -2.92      0.00
   -4    1    9      0.26      0.00
   -3    1    9     -2.68      0.00
   -2    1    9     -2.38      0.00
   -1    1    9      0.08      0.00
    0    1    9      0.27      0.00
    1    1    9     -0.25      0.00
    2    1    9      2.81      0.00
    3    1    9     -0.65      0.00
    4    1    9     -3.51      0.00
    5    1    9      3.09      0.00
    6    1    9     -0.03      0.00
    7    1    9      0.34      0.00
    8    1    9      0.70      0.00
    9    1    9     -2.43      0.00
   10    1    9     -1.59      0.00
  -10    2    9      5.85      0.00
   -9    2    9      1.91      0.00
   -8    2    9     -1.39      0.00
   -7    2    9     -0.42      0.00
   -6    2    9      0.36      0.00
   -5    2    9      2.27      0.00
   -4    2    9      4.04      0.00
   -3    2    9      1.28      0.00
   -2    2    9      9.07      0.00
   -1    2    9     -1.94      0.00
    0    2    9      5.66      0.00
    1    2    9      0.69      0.00
    2    2    9     -2.80      0.00
    3    2    9      5.60      0.00
    4    2    9     -0.27      0.00
    5    2    9     -1.08      0.00
    6    2    9      2.09      0.00
    7    2    9     -2.16      0.00
    8    2    9      1.35      0.00
    9    2    9      3.08      0.00
   10    2    9      2.27      0.00
  -10    3    9     -3.09      0.00
   -9    3    9     -0.34      0.00
   -8    3    9     -1.19      0.00
   -7    3    9      3.52      0.00
   -6    3    9      0.63      0.00
   -5    3    9     -4.83      0.00
   -4    3    9      1.01      0.00
   -3    3    9    -11.01      0.00
   -2    3    9     -2.77      0.00
   -1    3    9     -3.20      0.00
    0    3    9     -6.08      0.00
    1    3    9      2.09      0.00
    2    3    9     -2.64      0.00
    3    3    9     -1.48      0.00
    4    3    9      3.07      0.00
    5    3    9     -2.62      0.00
    6    3    9      0.94      0.00
    7    3    9      0.77      0.00
    8    3    9     -2.20      0.00
    9    3    9     -4.36      0.00
   10    3    9     -2.01      0.00
  -10    4    9      1.59      0.00
   -9    4    9      3.63      0.00
   -8    4    9      0.45      0.00
   -7    4    9     -3.85      0.00
   -6    4    9      2.53      0.00
   -5    4    9     -2.69      0.00
   -4    4    9      6.04      0.00
   -3    4    9      4.60      0.00
   -2    4    9      4.00      0.00
   -1    4    9      1.51      0.00
    0    4    9      1.89      0.00
    1    4    9     -0.90      0.00
    2    4    9      1.11      0.00
    3    4    9     -3.77      0.00
    4    4    9     -0.30      0.00
    5    4    9     -0.72      0.00
    6    4    9     -0.07      0.00
    7    4    9     -0.93      0.00
    8    4    9      0.70      0.00
    9    4    9      4.08      0.00
   10    4    9      0.68      0.00
   -9    5    9     -4.92      0.00
   -8    5    9      0.47      0.00
   -7    5    9     -0.47      0.00
   -6    5    9     -0.96      0.00
   -5    5    9      1.34      0.00
   -4    5    9     -3.40      0.00
   -3    5    9     -4.03      0.00
   -2    5    9      0.30      0.00
   -1    5    9     -0.36      0.00
    0    5    9     -0.28      0.00
    1    5    9      1.57      0.00
    2    5    9     -0.11      0.00
    3    5    9      3.30      0.00
    4    5    9      2.02      0.00
    5    5    9     -1.95      0.00
    6    5    9      0.82      0.00
    7    5    9      3.52      0.00
    8    5    9      0.47      0.00
    9    5    9     -1.37      0.00
  -11    6    9      0.21      0.00
  -10    6    9      4.61      0.00
   -9    6    9      1.45      0.00
   -8    6    9      0.31      0.00
   -7    6    9      1.77      0.00
   -6    6    9      2.41      0.00
   -5    6    9     -0.45      0.00
   -4    6    9      4.10      0.00
   -3    6    9     -0.41      0.00
   -2    6    9      0.87      0.00
   -1    6    9      1.01      0.00
    0    6    9     -0.77      0.00
    1    6    9      3.74      0.00
    2    6    9     -0.36      0.00
    3    6    9     -0.98      0.00
    4    6    9      1.28      0.00
    5    6    9      0.93      0.00
    6    6    9     -0.92      0.00
    7    6    9     -3.89      0.00
    8    6    9     -2.27      0.00
    9    6    9     -1.05      0.00
  -11    7    9     -0.97      0.00
  -10    7    9     -1.47      0.00
   -9    7    9      0.43      0.00
   -8    7    9      1.74      0.00
   -7    7    9     -3.30      0.00
   -6    7    9     -2.22      0.00
   -5    7    9     -2.52      0.00
   -4    7    9     -2.45      0.00
   -3    7    9      0.41      0.00
   -2    7    9     -3.38      0.00
   -1    7    9     -0.96      0.00
    0    7    9     -5.48      0.00
    1    7    9     -2.70      0.00
    2    7    9     -4.09      0.00
    3    7    9     -1.90      0.00
    4    7    9     -0.45      0.00
    5    7    9     -2.17      0.00
    6    7    9      4.54      0.00
    7    7    9      1.32      0.00
    8    7    9      1.94      0.00
    9    7    9      1.26      0.00
   -7    8    9      2.17      0.00
   -6    8    9      1.95      0.00
   -5    8    9      5.48      0.00
   -4    8    9     -2.18      0.00
   -3    8    9      3.64      0.00
   -2    8    9      2.26      0.00
   -1    8    9      4.61      0.00
    0    8    9      4.07      0.00
    1    8    9      1.99      0.00
    2    8    9      5.09      0.00
    3    8    9      0.54      0.00
    4    8    9      2.08      0.00
    5    8    9     -3.86      0.00
    6    8    9     -2.96      0.00
    7    8    9     -1.12      0.00
    8    8    9     -0.37      0.00
    9    8    9      0.89      0.00
   -7    9    9     -1.30      0.00
   -6    9    9     -5.69      0.00
   -5    9    9      1.32      0.00
   -4    9    9     -2.09      0.00
   -3    9    9     -0.85      0.00
   -2    9    9     -4.73      0.00
   -1    9    9     -2.03      0.00
    0    9    9     -1.82      0.00
    1    9    9      2.22      0.00
    2    9    9     -1.36      0.00
    3    9    9     -1.44      0.00
    4    9    9      1.67      0.00
    5    9    9      4.90      0.00
    6    9    9      3.50      0.00
    7    9    9      0.28      0.00
    8    9    9      0.29      0.00
   -5   10    9      3.01      0.00
   -4   10    9     -1.97      0.00
   -3   10    9      4.14      0.00
   -2   10    9      1.23      0.00
   -1   10    9      4.08      0.00
    0   10    9     -4.27      0.00
    1   10    9     -5.27      0.00
    2   10    9      3.44      0.00
    3   10    9     -2.51      0.00
    4   10    9     -2.12      0.00
    5   10    9     -4.08      0.00
    6   10    9     -2.05      0.00
   -3   11    9     -0.36      0.00
   -2   11    9     -4.65      0.00
   -1   11    9      0.94      0.00
    0   11    9      3.11      0.00
    1   11    9      0.28      0.00
    2   11    9     -1.20      0.00
   -3   12    9      0.14      0.00
   -2   12    9      0.30      0.00
   -1   12    9      1.42      0.00
    0   12    9     -2.25      0.00
   -2   13    9     -0.26      0.00
   -1   13    9      1.72      0.00
    0   13    9     -0.60      0.00
    3  -12   10      3.23      0.00
    4  -12   10     -3.13      0.00
   -1  -11   10     -5.07      0.00
    0  -11   10     -0.26      0.00
    1  -11   10     -0.06      0.00
    2  -11   10     -4.82      0.00
    3  -11   10      1.62      0.00
    4  -11   10      1.36      0.00
   -4  -10   10      4.45      0.00
   -3  -10   10      1.19      0.00
   -2  -10   10      3.00      0.00
   -1  -10   10      3.13      0.00
    0  -10   10      0.73      0.00
    1  -10   10      1.40      0.00
    2  -10   10      1.79      0.00
    3  -10   10     -0.46      0.00
    4  -10   10     -3.00      0.00
   -6   -9   10      0.62      0.00
   -5   -9   10     -4.93      0.00
   -4   -9   10     -4.23      0.00
   -3   -9   10     -3.30      0.00
   -1   -9   10     -2.89      0.00
    0   -9   10      2.68      0.00
    1   -9   10     -2.78      0.00
    2   -9   10      0.11      0.00
    3   -9   10     -0.08      0.00
    4   -9   10      1.72      0.00
   -8   -8   10     -4.09      0.00
   -7   -8   10     -1.27      0.00
   -6   -8   10      1.24      0.00
   -5   -8   10      3.46      0.00
   -4   -8   10      7.15      0.00
   -3   -8   10      1.95      0.00
   -2   -8   10      1.57      0.00
   -1   -8   10     -3.56      0.00
    0   -8   10     -0.57      0.00
    1   -8   10     -2.14      0.00
    2   -8   10      0.04      0.00
    3   -8   10      1.10      0.00
    4   -8   10      1.31      0.00
  -10   -7   10     -0.07      0.00
   -9   -7   10      3.06      0.00
   -8   -7   10      0.47      0.00
   -7   -7   10     -1.37      0.00
   -6   -7   10      1.63      0.00
   -5   -7   10     -6.33      0.00
   -4   -7   10     -3.86      0.00
   -3   -7   10     -5.43      0.00
   -2   -7   10      3.27      0.00
   -1   -7   10      1.16      0.00
    0   -7   10      2.92      0.00
    1   -7   10      4.42      0.00
    2   -7   10     -1.55      0.00
    3   -7   10     -0.39      0.00
    4   -7   10     -1.35      0.00
  -11   -6   10     -3.32      0.00
  -10   -6   10     -1.38      0.00
   -9   -6   10     -0.83      0.00
   -8   -6   10      0.94      0.00
   -7   -6   10      1.70      0.00
   -6   -6   10      1.02      0.00
   -5   -6   10      2.71      0.00
   -4   -6   10      4.91      0.00
   -3   -6   10      1.08      0.00
   -2   -6   10     -0.55      0.00
   -1   -6   10      0.88      0.00
    0   -6   10     -4.57      0.00
    1   -6   10     -0.44      0.00
    2   -6   10      1.57      0.00
    3   -6   10      0.19      0.00
    4   -6   10      1.84      0.00
    5   -6   10     -0.06      0.00
  -11   -5   10      2.74      0.00
  -10   -5   10      1.34      0.00
   -9   -5   10      3.84      0.00
   -8   -5   10     -1.81      0.00
   -7   -5   10     -1.72      0.00
   -6   -5   10     -0.98      0.00
   -5   -5   10     -0.52      0.00
   -4   -5   10     -3.92      0.00
   -3   -5   10      0.83      0.00
   -2   -5   10     -3.63      0.00
   -1   -5   10     -0.96      0.00
    0   -5   10     -0.93      0.00
    1   -5   10     -0.24      0.00
    2   -5   10     -4.19      0.00
    3   -5   10     -1.39      0.00
    4   -5   10     -2.41      0.00
    5   -5   10      0.32      0.00
    6   -5   10      2.27      0.00
  -11   -4   10     -0.50      0.00
  -10   -4   10     -0.59      0.00
   -9   -4   10     -5.30      0.00
   -8   -4   10     -1.45      0.00
   -7   -4   10      0.94      0.00
   -6   -4   10     -2.38      0.00
   -5   -4   10      1.60      0.00
   -4   -4   10      0.48      0.00
   -3   -4   10      1.22      0.00
   -2   -4   10      6.65      0.00
   -1   -4   10      4.49      0.00
    0   -4   10     -0.48      0.00
    1   -4   10      5.41      0.00
    2   -4   10      2.49      0.00
    3   -4   10      4.14      0.00
    4   -4   10      3.96      0.00
    5   -4   10     -0.33      0.00
    6   -4   10     -1.79      0.00
    7   -4   10     -0.70      0.00
    8   -4   10      3.07      0.00
    9   -4   10     -2.62      0.00
   10   -4   10     -2.78      0.00
   11   -4   10     -4.13      0.00
  -11   -3   10     -6.47      0.00
  -10   -3   10     -1.69      0.00
   -9   -3   10      7.74      0.00
   -8   -3   10      0.27      0.00
   -7   -3   10      4.27      0.00
   -6   -3   10      2.26      0.00
   -5   -3   10      1.30      0.00
   -4   -3   10     -1.61      0.00
   -3   -3   10     -2.45      0.00
   -2   -3   10     -9.04      0.00
   -1   -3   10     -2.83      0.00
    1   -3   10     -0.80      0.00
    2   -3   10     -3.64      0.00
    3   -3   10     -4.46      0.00
    4   -3   10     -1.83      0.00
    5   -3   10     -2.64      0.00
    6   -3   10      2.91      0.00
    7   -3   10     -0.27      0.00
    8   -3   10     -0.84      0.00
    9   -3   10      2.03      0.00
   10   -3   10      2.49      0.00
   11   -3   10      1.79      0.00
  -11   -2   10      9.25      0.00
  -10   -2   10      0.48      0.00
   -9   -2   10     -1.21      0.00
   -8   -2   10     -2.96      0.00
   -7   -2   10     -4.16      0.00
   -6   -2   10     -2.73      0.00
   -5   -2   10      1.14      0.00
   -4   -2   10     -0.87      0.00
   -3   -2   10      4.56      0.00
   -2   -2   10      7.15      0.00
   -1   -2   10      3.17      0.00
    0   -2   10     -1.04      0.00
    1   -2   10      3.20      0.00
    2   -2   10     -0.33      0.00
    3   -2   10      1.12      0.00
    4   -2   10      2.20      0.00
    5   -2   10      0.73      0.00
    6   -2   10     -1.96      0.00
    7   -2   10      0.18      0.00
    8   -2   10     -0.39      0.00
    9   -2   10     -0.80      0.00
   10   -2   10      0.50      0.00
   11   -2   10      2.12      0.00
  -11   -1   10     -4.57      0.00
  -10   -1   10     -4.62      0.00
   -9   -1   10      1.93      0.00
   -8   -1   10     -0.04      0.00
   -7   -1   10      3.01      0.00
   -6   -1   10     -0.63      0.00
   -5   -1   10     -2.46      0.00
   -4   -1   10      0.07      0.00
   -3   -1   10     -3.96      0.00
   -2   -1   10     -3.95      0.00
   -1   -1   10      0.28      0.00
    0   -1   10     -2.35      0.00
    1   -1   10      2.47      0.00
    3   -1   10      4.62      0.00
    4   -1   10     -1.62      0.00
    5   -1   10     -0.03      0.00
    6   -1   10      4.14      0.00
    7   -1   10     -1.37      0.00
    8   -1   10      1.74      0.00
    9   -1   10     -0.69      0.00
   10   -1   10     -4.60      0.00
  -11    0   10      3.28      0.00
  -10    0   10      1.11      0.00
   -9    0   10      3.31      0.00
   -8    0   10     -2.42      0.00
   -7    0   10      0.17      0.00
   -6    0   10      3.46      0.00
   -5    0   10      3.11      0.00
   -4    0   10      2.38      0.00
   -3    0   10      1.68      0.00
   -2    0   10      1.16      0.00
   -1    0   10      1.32      0.00
    0    0   10     -3.15      0.00
    1    0   10      5.16      0.00
    2    0   10     -3.91      0.00
    3    0   10     -0.88      0.00
    4    0   10      1.96      0.00
    5    0   10     -5.59      0.00
    6    0   10     -0.63      0.00
    7    0   10     -1.34      0.00
    8    0   10     -2.62      0.00
    9    0   10      3.91      0.00
   10    0   10      3.43      0.00
  -10    1   10     -5.12      0.00
   -9    1   10      0.60      0.00
   -8    1   10     -0.30      0.00
   -7    1   10      0.55      0.00
   -6    1   10     -2.16      0.00
   -5    1   10     -4.64      0.00
   -4    1   10     -1.63      0.00
   -3    1   10     -1.36      0.00
   -2    1   10     -3.26      0.00
   -1    1   10      2.67      0.00
    0    1   10     -1.95      0.00
    1    1   10     -0.25      0.00
    2    1   10     -0.57      0.00
    3    1   10     -0.78      0.00
    4    1   10     -0.04      0.00
    5    1   10      3.93      0.00
    6    1   10     -0.02      0.00
    7    1   10      3.70      0.00
    8    1   10      0.60      0.00
    9    1   10     -3.94      0.00
   10    1   10     -3.48      0.00
  -10    2   10      2.52      0.00
   -9    2   10      2.51      0.00
   -8    2   10     -1.43      0.00
   -7    2   10     -0.93      0.00
   -6    2   10      0.25      0.00
   -5    2   10      1.54      0.00
   -4    2   10      2.65      0.00
   -3    2   10      1.30      0.00
   -2    2   10      6.25      0.00
   -1    2   10     -2.64      0.00
    0    2   10      1.89      0.00
    1    2   10      0.33      0.00
    2    2   10      0.04      0.00
    3    2   10      3.34      0.00
    4    2   10     -2.19      0.00
    5    2   10     -0.72      0.00
    6    2   10      1.15      0.00
    7    2   10     -4.00      0.00
    8    2   10      2.73      0.00
    9    2   10      3.80      0.00
   10    2   10      3.92      0.00
  -10    3   10     -2.34      0.00
   -9    3   10     -0.78      0.00
   -8    3   10     -2.03      0.00
   -7    3   10      3.66      0.00
   -6    3   10      0.21      0.00
   -5    3   10     -0.67      0.00
   -4    3   10      1.92      0.00
   -3    3   10     -8.83      0.00
   -2    3   10     -2.42      0.00
   -1    3   10     -1.32      0.00
    0    3   10     -0.98      0.00
    1    3   10      2.66      0.00
    2    3   10     -3.42      0.00
    3    3   10      1.05      0.00
    4    3   10      3.02      0.00
    6    3   10      0.75      0.00
    7    3   10      0.69      0.00
    8    3   10     -4.27      0.00
    9    3   10     -6.56      0.00
  -10    4   10     -0.51      0.00
   -9    4   10      3.75      0.00
   -8    4   10     -0.03      0.00
   -7    4   10     -1.64      0.00
   -6    4   10      1.51      0.00
   -5    4   10     -4.49      0.00
   -4    4   10      4.22      0.00
   -3    4   10      4.06      0.00
   -2    4   10      4.05      0.00
   -1    4   10      1.41      0.00
    0    4   10     -2.69      0.00
    1    4   10      0.75      0.00
    2    4   10      0.92      0.00
    3    4   10     -5.26      0.00
    4    4   10      2.93      0.00
    5    4   10      2.49      0.00
    6    4   10      0.36      0.00
    7    4   10      1.70      0.00
    8    4   10      4.30      0.00
    9    4   10      6.57      0.00
  -10    5   10     -1.03      0.00
   -9    5   10     -2.92      0.00
   -8    5   10      1.13      0.00
   -7    5   10     -2.74      0.00
   -6    5   10      0.93      0.00
   -5    5   10     -0.03      0.00
   -4    5   10     -2.51      0.00
   -3    5   10     -4.30      0.00
   -2    5   10     -0.25      0.00
   -1    5   10      0.30      0.00
    0    5   10      1.71      0.00
    1    5   10     -0.31      0.00
    2    5   10      0.56      0.00
    3    5   10      1.52      0.00
    4    5   10     -1.40      0.00
    5    5   10     -4.25      0.00
    6    5   10     -0.01      0.00
    7    5   10      1.01      0.00
    8    5   10     -5.11      0.00
    9    5   10     -3.84      0.00
  -11    6   10      0.01      0.00
  -10    6   10      2.81      0.00
   -9    6   10      0.18      0.00
   -8    6   10      0.88      0.00
   -7    6   10      2.67      0.00
   -6    6   10      0.49      0.00
   -5    6   10      3.33      0.00
   -4    6   10      3.88      0.00
   -3    6   10      0.36      0.00
   -2    6   10      0.31      0.00
   -1    6   10     -0.76      0.00
    0    6   10     -2.36      0.00
    1    6   10      3.15      0.00
    2    6   10     -0.02      0.00
    3    6   10     -0.83      0.00
    4    6   10      3.87      0.00
    5    6   10      0.52      0.00
    6    6   10     -2.97      0.00
    7    6   10     -0.77      0.00
    8    6   10      1.58      0.00
    9    6   10      1.89      0.00
  -10    7   10     -0.63      0.00
   -9    7   10     -0.72      0.00
   -8    7   10      0.19      0.00
   -7    7   10     -3.31      0.00
   -6    7   10     -2.17      0.00
   -5    7   10     -6.42      0.00
   -4    7   10     -2.46      0.00
   -3    7   10     -0.42      0.00
   -2    7   10     -1.86      0.00
   -1    7   10      1.60      0.00
    0    7   10     -3.09      0.00
    1    7   10     -2.21      0.00
    2    7   10     -2.16      0.00
    3    7   10     -0.40      0.00
    4    7   10      0.31      0.00
    5    7   10      3.10      0.00
    6    7   10      6.60      0.00
    7    7   10      1.64      0.00
    8    7   10     -0.68      0.00
    9    7   10      0.89      0.00
   -7    8   10      2.76      0.00
   -6    8   10      3.36      0.00
   -5    8   10      8.04      0.00
   -4    8   10     -1.65      0.00
   -3    8   10      3.08      0.00
   -2    8   10     -0.03      0.00
   -1    8   10      3.03      0.00
    0    8   10      2.52      0.00
    1    8   10      3.09      0.00
    2    8   10      2.79      0.00
    3    8   10     -2.01      0.00
    4    8   10     -2.99      0.00
    5    8   10     -9.81      0.00
    6    8   10     -5.36      0.00
    7    8   10     -2.53      0.00
    8    8   10     -0.61      0.00
    9    8   10     -0.25      0.00
   -6    9   10     -9.18      0.00
   -5    9   10      0.34      0.00
   -4    9   10     -1.59      0.00
   -3    9   10      1.74      0.00
   -2    9   10     -1.75      0.00
   -1    9   10     -0.69      0.00
    0    9   10     -1.18      0.00
    1    9   10     -1.93      0.00
    2    9   10      0.62      0.00
    3    9   10      1.34      0.00
    4    9   10      7.28      0.00
    5    9   10      9.07      0.00
    6    9   10      4.20      0.00
    7    9   10      1.24      0.00
    8    9   10      0.72      0.00
   -4   10   10     -2.62      0.00
   -3   10   10     -0.65      0.00
   -2   10   10     -2.98      0.00
   -1   10   10      1.71      0.00
    0   10   10     -4.75      0.00
    1   10   10     -1.06      0.00
    2   10   10      0.40      0.00
    3   10   10     -3.80      0.00
    4   10   10     -6.96      0.00
    5   10   10     -4.73      0.00
   -3   11   10      3.44      0.00
   -2   11   10     -0.47      0.00
   -1   11   10      4.22      0.00
    0   11   10      4.09      0.00
    1   11   10     -1.58      0.00
    2   11   10      3.65      0.00
   -3   12   10     -0.73      0.00
   -2   12   10     -1.89      0.00
   -1   12   10     -1.10      0.00
    0   12   10     -1.06      0.00
    1   12   10      1.46      0.00
    3  -12   11      2.05      0.00
    4  -12   11     -2.38      0.00
    0  -11   11      1.78      0.00
    1  -11   11     -1.19      0.00
    2  -11   11     -2.63      0.00
    3  -11   11      2.44      0.00
    4  -11   11      0.47      0.00
   -3  -10   11      1.07      0.00
   -2  -10   11      2.14      0.00
   -1  -10   11      1.75      0.00
    0  -10   11     -0.21      0.00
    1  -10   11      1.29      0.00
    2  -10   11     -0.86      0.00
    3  -10   11     -1.39      0.00
    4  -10   11     -2.57      0.00
   -6   -9   11     -0.17      0.00
   -5   -9   11     -3.30      0.00
   -4   -9   11     -1.43      0.00
   -3   -9   11     -1.88      0.00
   -2   -9   11     -0.81      0.00
   -1   -9   11     -3.46      0.00
    0   -9   11      1.50      0.00
    1   -9   11     -1.01      0.00
    2   -9   11      1.89      0.00
    3   -9   11      0.88      0.00
    4   -9   11      2.56      0.00
   -8   -8   11     -3.72      0.00
   -7   -8   11      0.23      0.00
   -6   -8   11      1.31      0.00
   -5   -8   11      1.39      0.00
   -4   -8   11      3.48      0.00
   -3   -8   11     -1.81      0.00
   -2   -8   11      2.46      0.00
   -1   -8   11     -1.60      0.00
    0   -8   11      0.36      0.00
    1   -8   11     -4.32      0.00
    2   -8   11     -0.54      0.00
    3   -8   11      0.03      0.00
    4   -8   11      0.62      0.00
  -10   -7   11     -1.99      0.00
   -9   -7   11      3.09      0.00
   -8   -7   11     -2.61      0.00
   -7   -7   11     -1.44      0.00
   -6   -7   11      1.73      0.00
   -5   -7   11     -3.29      0.00
   -4   -7   11     -0.86      0.00
   -3   -7   11      0.66      0.00
   -2   -7   11      2.91      0.00
   -1   -7   11      0.83      0.00
    0   -7   11      3.00      0.00
    1   -7   11      6.25      0.00
    2   -7   11     -0.42      0.00
    3   -7   11      0.07      0.00
    4   -7   11     -1.21      0.00
  -10   -6   11      0.82      0.00
   -9   -6   11      2.62      0.00
   -8   -6   11      6.15      0.00
   -7   -6   11      0.70      0.00
   -6   -6   11     -0.27      0.00
   -5   -6   11      0.49      0.00
   -4   -6   11      2.98      0.00
   -3   -6   11     -4.30      0.00
   -2   -6   11     -1.93      0.00
   -1   -6   11      1.02      0.00
    0   -6   11     -5.95      0.00
    1   -6   11     -1.18      0.00
    2   -6   11     -0.31      0.00
    3   -6   11     -1.20      0.00
    4   -6   11      2.20      0.00
    5   -6   11      1.25      0.00
  -11   -5   11      1.81      0.00
  -10   -5   11      1.66      0.00
   -9   -5   11     -2.33      0.00
   -8   -5   11     -7.19      0.00
   -7   -5   11     -1.03      0.00
   -6   -5   11      1.40      0.00
   -5   -5   11     -0.43      0.00
   -4   -5   11     -2.83      0.00
   -3   -5   11      3.94      0.00
   -2   -5   11     -2.20      0.00
   -1   -5   11     -0.48      0.00
    0   -5   11     -0.36      0.00
    1   -5   11     -0.83      0.00
    2   -5   11     -1.49      0.00
    3   -5   11      0.47      0.00
    4   -5   11     -0.61      0.00
    5   -5   11     -0.80      0.00
    6   -5   11     -0.13      0.00
  -11   -4   11     -3.78      0.00
  -10   -4   11     -4.62      0.00
   -9   -4   11      0.05      0.00
   -8   -4   11      3.91      0.00
   -7   -4   11      0.33      0.00
   -6   -4   11     -3.53      0.00
   -5   -4   11      3.39      0.00
   -4   -4   11      0.35      0.00
   -3   -4   11      0.78      0.00
   -2   -4   11      4.11      0.00
   -1   -4   11      4.19      0.00
    1   -4   11      5.55      0.00
    2   -4   11      1.23      0.00
    3   -4   11      1.13      0.00
    4   -4   11      0.45      0.00
    5   -4   11     -0.64      0.00
    6   -4   11     -0.71      0.00
    7   -4   11      0.11      0.00
    8   -4   11      0.42      0.00
    9   -4   11     -3.14      0.00
   10   -4   11     -2.44      0.00
   11   -4   11     -1.47      0.00
  -11   -3   11     -0.17      0.00
  -10   -3   11      6.24      0.00
   -9   -3   11      3.52      0.00
   -8   -3   11     -1.75      0.00
   -7   -3   11      3.16      0.00
   -6   -3   11      2.22      0.00
   -5   -3   11     -2.29      0.00
   -4   -3   11     -2.27      0.00
   -3   -3   11     -3.50      0.00
   -2   -3   11     -6.31      0.00
   -1   -3   11     -1.13      0.00
    0   -3   11     -0.12      0.00
    1   -3   11     -0.33      0.00
    2   -3   11     -3.21      0.00
    3   -3   11     -2.19      0.00
    4   -3   11      1.88      0.00
    5   -3   11     -0.80      0.00
    6   -3   11      1.81      0.00
    7   -3   11     -0.26      0.00
    8   -3   11      0.50      0.00
    9   -3   11      2.21      0.00
   10   -3   11      0.01      0.00
   11   -3   11     -1.71      0.00
  -11   -2   11      2.38      0.00
  -10   -2   11     -7.20      0.00
   -9   -2   11     -0.42      0.00
   -8   -2   11     -2.55      0.00
   -7   -2   11     -3.60      0.00
   -6   -2   11     -1.77      0.00
   -5   -2   11      4.29      0.00
   -4   -2   11      0.57      0.00
   -3   -2   11      6.26      0.00
   -2   -2   11      5.03      0.00
   -1   -2   11      0.27      0.00
    0   -2   11     -4.87      0.00
    1   -2   11      0.75      0.00
    2   -2   11      1.58      0.00
    3   -2   11     -0.39      0.00
    4   -2   11      1.26      0.00
    5   -2   11     -2.07      0.00
    6   -2   11     -0.35      0.00
    7   -2   11      0.01      0.00
    8   -2   11     -1.23      0.00
    9   -2   11      0.43      0.00
   10   -2   11      3.90      0.00
   11   -2   11      6.79      0.00
  -11   -1   11     -0.10      0.00
  -10   -1   11      1.66      0.00
   -9   -1   11      1.96      0.00
   -8   -1   11      1.12      0.00
   -7   -1   11      3.42      0.00
   -6   -1   11     -1.88      0.00
   -5   -1   11     -2.37      0.00
   -4   -1   11     -1.51      0.00
   -3   -1   11     -4.98      0.00
   -2   -1   11     -4.02      0.00
   -1   -1   11      1.91      0.00
    0   -1   11      1.45      0.00
    1   -1   11      2.33      0.00
    2   -1   11     -3.38      0.00
    3   -1   11      1.84      0.00
    4   -1   11     -0.08      0.00
    5   -1   11      0.14      0.00
    6   -1   11      2.25      0.00
    7   -1   11      0.08      0.00
    8   -1   11      0.89      0.00
    9   -1   11     -1.19      0.00
   10   -1   11     -7.64      0.00
  -11    0   11      0.72      0.00
  -10    0   11     -3.49      0.00
   -9    0   11      2.95      0.00
   -8    0   11     -3.37      0.00
   -7    0   11      0.66      0.00
   -6    0   11      3.16      0.00
   -5    0   11      1.48      0.00
   -4    0   11      1.63      0.00
   -3    0   11      2.35      0.00
   -2    0   11      2.20      0.00
   -1    0   11      2.43      0.00
    0    0   11     -3.44      0.00
    1    0   11      5.58      0.00
    2    0   11     -1.82      0.00
    3    0   11      0.35      0.00
    4    0   11      1.52      0.00
    5    0   11     -4.52      0.00
    6    0   11      0.56      0.00
    7    0   11     -2.47      0.00
    8    0   11     -0.84      0.00
    9    0   11      2.33      0.00
   10    0   11      4.46      0.00
  -10    1   11     -1.41      0.00
   -9    1   11      1.39      0.00
   -8    1   11     -0.58      0.00
   -7    1   11      0.14      0.00
   -6    1   11     -3.77      0.00
   -5    1   11     -1.64      0.00
   -4    1   11      0.55      0.00
   -3    1   11     -0.04      0.00
   -2    1   11     -4.76      0.00
   -1    1   11      0.45      0.00
    0    1   11     -3.89      0.00
    1    1   11     -1.76      0.00
    2    1   11     -0.84      0.00
    3    1   11     -1.43      0.00
    4    1   11      2.46      0.00
    5    1   11      1.31      0.00
    6    1   11      0.94      0.00
    7    1   11      3.10      0.00
    8    1   11     -0.85      0.00
    9    1   11     -1.46      0.00
  -10    2   11     -1.60      0.00
   -9    2   11      1.96      0.00
   -8    2   11     -2.80      0.00
   -7    2   11      1.36      0.00
   -6    2   11      2.00      0.00
   -5    2   11      0.73      0.00
   -4    2   11     -1.76      0.00
   -3    2   11      0.37      0.00
   -2    2   11      3.36      0.00
   -1    2   11      1.23      0.00
    0    2   11      1.70      0.00
    1    2   11      2.32      0.00
    2    2   11     -0.41      0.00
    3    2   11      1.17      0.00
    4    2   11     -2.89      0.00
    5    2   11      0.94      0.00
    6    2   11     -1.71      0.00
    7    2   11     -1.38      0.00
    8    2   11      4.30      0.00
    9    2   11     -0.18      0.00
  -10    3   11     -0.64      0.00
   -9    3   11      1.26      0.00
   -8    3   11      0.46      0.00
   -7    3   11      1.29      0.00
   -6    3   11     -2.12      0.00
   -5    3   11     -0.67      0.00
   -4    3   11      4.48      0.00
   -3    3   11     -5.55      0.00
   -2    3   11      0.75      0.00
   -1    3   11     -1.51      0.00
    0    3   11     -0.18      0.00
    1    3   11      1.19      0.00
    2    3   11     -1.58      0.00
    3    3   11      1.79      0.00
    4    3   11      1.31      0.00
    5    3   11     -4.63      0.00
    6    3   11      2.38      0.00
    7    3   11     -2.14      0.00
    8    3   11     -5.80      0.00
    9    3   11     -3.16      0.00
   -9    4   11      1.37      0.00
   -8    4   11     -2.63      0.00
   -7    4   11      0.50      0.00
   -6    4   11      2.39      0.00
   -5    4   11     -2.33      0.00
   -4    4   11      2.32      0.00
   -3    4   11      1.93      0.00
   -2    4   11      0.65      0.00
   -1    4   11      0.55      0.00
    0    4   11     -3.90      0.00
    1    4   11      1.66      0.00
    2    4   11     -0.96      0.00
    3    4   11     -3.69      0.00
    4    4   11      6.38      0.00
    5    4   11      2.70      0.00
    6    4   11     -1.13      0.00
    7    4   11      5.37      0.00
    8    4   11      6.54      0.00
    9    4   11      3.72      0.00
  -11    5   11      1.58      0.00
  -10    5   11     -0.21      0.00
   -9    5   11     -0.49      0.00
   -8    5   11      2.48      0.00
   -7    5   11     -3.18      0.00
   -6    5   11      0.56      0.00
   -5    5   11     -2.12      0.00
   -4    5   11     -1.59      0.00
   -3    5   11     -2.80      0.00
   -2    5   11      0.51      0.00
   -1    5   11      0.94      0.00
    0    5   11      1.42      0.00
    1    5   11     -0.33      0.00
    2    5   11      2.91      0.00
    3    5   11     -2.11      0.00
    4    5   11     -4.62      0.00
    5    5   11     -3.77      0.00
    6    5   11     -1.22      0.00
    7    5   11     -1.87      0.00
    8    5   11     -8.27      0.00
    9    5   11     -3.14      0.00
  -11    6   11     -0.36      0.00
  -10    6   11      1.49      0.00
   -9    6   11     -1.49      0.00
   -8    6   11      0.67      0.00
   -7    6   11      0.50      0.00
   -6    6   11      0.85      0.00
   -5    6   11      3.61      0.00
   -4    6   11      2.11      0.00
   -3    6   11     -1.38      0.00
   -2    6   11      0.64      0.00
   -1    6   11      0.17      0.00
    0    6   11     -1.38      0.00
    1    6   11      1.33      0.00
    2    6   11     -1.80      0.00
    3    6   11      0.80      0.00
    4    6   11      4.72      0.00
    5    6   11      1.34      0.00
    6    6   11     -1.64      0.00
    7    6   11      3.23      0.00
    8    6   11      3.77      0.00
    9    6   11      3.92      0.00
  -10    7   11      0.01      0.00
   -9    7   11     -0.80      0.00
   -8    7   11      0.26      0.00
   -7    7   11      1.19      0.00
   -6    7   11     -3.45      0.00
   -5    7   11     -4.22      0.00
   -4    7   11      1.07      0.00
   -3    7   11      3.05      0.00
   -2    7   11     -1.34      0.00
   -1    7   11      0.63      0.00
    0    7   11     -2.44      0.00
    1    7   11     -0.93      0.00
    2    7   11      2.05      0.00
    3    7   11      0.55      0.00
    4    7   11      2.01      0.00
    5    7   11      2.98      0.00
    6    7   11      3.37      0.00
    7    7   11     -1.15      0.00
    8    7   11     -2.25      0.00
    9    7   11     -1.34      0.00
   -7    8   11     -0.51      0.00
   -6    8   11      4.54      0.00
   -5    8   11      4.75      0.00
   -4    8   11     -4.56      0.00
   -3    8   11     -2.04      0.00
   -2    8   11     -2.12      0.00
   -1    8   11      3.13      0.00
    0    8   11      1.79      0.00
    1    8   11      1.64      0.00
    2    8   11     -1.92      0.00
    3    8   11     -4.77      0.00
    4    8   11     -7.97      0.00
    5    8   11     -8.76      0.00
    6    8   11     -3.18      0.00
    7    8   11     -0.24      0.00
    8    8   11     -1.10      0.00
   -6    9   11     -9.97      0.00
   -5    9   11      1.64      0.00
   -4    9   11      1.14      0.00
   -3    9   11      5.29      0.00
   -2    9   11     -0.06      0.00
   -1    9   11     -1.01      0.00
    0    9   11     -1.55      0.00
    1    9   11     -2.54      0.00
    2    9   11      3.28      0.00
    3    9   11      5.50      0.00
    4    9   11     11.37      0.00
    5    9   11      8.47      0.00
    6    9   11      3.26      0.00
    7    9   11      0.77      0.00
   -4   10   11     -3.65      0.00
   -3   10   11     -2.92      0.00
   -2   10   11     -2.22      0.00
   -1   10   11      2.40      0.00
    0   10   11     -1.21      0.00
    1   10   11      0.86      0.00
    2   10   11      0.08      0.00
    3   10   11     -5.88      0.00
    4   10   11     -9.19      0.00
   -3   11   11      3.87      0.00
   -2   11   11     -1.97      0.00
   -1   11   11      2.81      0.00
    0   11   11      0.29      0.00
    1   11   11     -2.90      0.00
    2   11   11      2.03      0.00
    3   11   11      3.33      0.00
   -3   12   11     -1.25      0.00
   -2   12   11     -0.41      0.00
   -1   12   11     -0.82      0.00
    0   12   11      1.77      0.00
    1   12   11     -0.21      0.00
    4  -12   12     -0.61      0.00
    1  -11   12     -1.15      0.00
    2  -11   12     -1.27      0.00
    3  -11   12      1.97      0.00
    4  -11   12     -1.49      0.00
   -2  -10   12      1.91      0.00
   -1  -10   12      0.65      0.00
    0  -10   12      3.04      0.00
    1  -10   12      1.15      0.00
    2  -10   12     -1.79      0.00
    3  -10   12     -0.72      0.00
    4  -10   12     -0.24      0.00
   -5   -9   12      0.63      0.00
   -4   -9   12      0.82      0.00
   -3   -9   12      1.39      0.00
   -2   -9   12     -1.02      0.00
   -1   -9   12     -2.65      0.00
    0   -9   12     -2.17      0.00
    1   -9   12     -0.34      0.00
    2   -9   12      2.96      0.00
    3   -9   12      1.55      0.00
    4   -9   12      1.74      0.00
   -7   -8   12      2.88      0.00
   -6   -8   12      0.62      0.00
   -5   -8   12     -3.48      0.00
   -4   -8   12     -0.35      0.00
   -3   -8   12     -3.31      0.00
   -2   -8   12      2.56      0.00
   -1   -8   12     -0.28      0.00
    0   -8   12      2.44      0.00
    1   -8   12     -3.66      0.00
    2   -8   12     -1.12      0.00
    3   -8   12     -2.10      0.00
    4   -8   12     -0.68      0.00
   -9   -7   12      0.32      0.00
   -8   -7   12     -3.71      0.00
   -7   -7   12     -2.14      0.00
   -6   -7   12      3.54      0.00
   -5   -7   12      2.48      0.00
   -4   -7   12      3.94      0.00
   -3   -7   12      1.54      0.00
   -2   -7   12      2.37      0.00
   -1   -7   12      0.32      0.00
    0   -7   12      2.26      0.00
    1   -7   12      3.60      0.00
    2   -7   12     -0.96      0.00
    3   -7   12      1.23      0.00
    4   -7   12      0.78      0.00
    5   -7   12     -3.07      0.00
  -10   -6   12      1.25      0.00
   -9   -6   12      4.43      0.00
   -8   -6   12      4.38      0.00
   -7   -6   12     -0.42      0.00
   -6   -6   12     -2.92      0.00
   -5   -6   12     -4.10      0.00
   -4   -6   12     -2.81      0.00
   -3   -6   12     -4.26      0.00
   -2   -6   12     -3.51      0.00
   -1   -6   12     -0.01      0.00
    0   -6   12     -7.16      0.00
    1   -6   12      0.40      0.00
    2   -6   12      1.82      0.00
    3   -6   12     -1.02      0.00
    4   -6   12      1.23      0.00
    5   -6   12      0.97      0.00
  -11   -5   12     -1.93      0.00
  -10   -5   12      0.15      0.00
   -9   -5   12     -6.04      0.00
   -8   -5   12     -5.21      0.00
   -7   -5   12     -1.40      0.00
   -6   -5   12      2.64      0.00
   -5   -5   12      1.22      0.00
   -4   -5   12      2.36      0.00
   -3   -5   12      3.23      0.00
   -2   -5   12      0.18      0.00
   -1   -5   12      2.32      0.00
    0   -5   12      2.72      0.00
    1   -5   12      0.15      0.00
    2   -5   12     -1.96      0.00
    3   -5   12      0.00      0.00
    4   -5   12      0.43      0.00
    5   -5   12     -0.56      0.00
    6   -5   12     -1.00      0.00
    7   -5   12      2.11      0.00
  -11   -4   12     -4.37      0.00
  -10   -4   12     -3.42      0.00
   -9   -4   12      4.78      0.00
   -8   -4   12      5.44      0.00
   -7   -4   12      2.76      0.00
   -6   -4   12     -0.90      0.00
   -5   -4   12      3.01      0.00
   -4   -4   12     -1.86      0.00
   -3   -4   12      1.21      0.00
   -2   -4   12      2.26      0.00
   -1   -4   12      1.19      0.00
    0   -4   12     -3.56      0.00
    1   -4   12      1.13      0.00
    2   -4   12      0.29      0.00
    3   -4   12     -0.73      0.00
    4   -4   12     -1.45      0.00
    5   -4   12     -0.71      0.00
    6   -4   12     -2.17      0.00
    7   -4   12     -1.06      0.00
    8   -4   12     -1.96      0.00
    9   -4   12     -3.23      0.00
   10   -4   12     -1.69      0.00
   11   -4   12     -1.41      0.00
  -11   -3   12      6.95      0.00
  -10   -3   12      7.98      0.00
   -9   -3   12     -0.62      0.00
   -8   -3   12     -3.91      0.00
   -7   -3   12     -1.16      0.00
   -6   -3   12     -1.40      0.00
   -5   -3   12     -1.95      0.00
   -4   -3   12     -1.17      0.00
   -3   -3   12     -2.56      0.00
   -2   -3   12     -4.43      0.00
   -1   -3   12      1.07      0.00
    0   -3   12      1.39      0.00
    1   -3   12      3.44      0.00
    2   -3   12     -1.12      0.00
    3   -3   12      0.78      0.00
    4   -3   12      3.78      0.00
    5   -3   12      0.12      0.00
    6   -3   12      3.19      0.00
    7   -3   12      3.02      0.00
    8   -3   12      0.73      0.00
    9   -3   12      2.38      0.00
   10   -3   12     -0.55      0.00
   11   -3   12      0.62      0.00
  -11   -2   12     -7.92      0.00
  -10   -2   12    -10.62      0.00
   -9   -2   12     -0.45      0.00
   -8   -2   12     -0.68      0.00
   -7   -2   12     -0.95      0.00
   -6   -2   12      0.31      0.00
   -5   -2   12      2.03      0.00
   -4   -2   12     -0.61      0.00
   -3   -2   12      2.70      0.00
   -2   -2   12      1.58      0.00
   -1   -2   12     -2.54      0.00
    0   -2   12     -5.31      0.00
    1   -2   12     -1.73      0.00
    2   -2   12      0.64      0.00
    3   -2   12     -2.87      0.00
    4   -2   12      0.53      0.00
    5   -2   12     -2.43      0.00
    6   -2   12     -1.90      0.00
    7   -2   12     -2.02      0.00
    8   -2   12     -0.77      0.00
    9   -2   12      1.79      0.00
   10   -2   12      3.50      0.00
   11   -2   12      3.29      0.00
  -11   -1   12      8.20      0.00
  -10   -1   12      5.51      0.00
   -9   -1   12      3.89      0.00
   -8   -1   12      1.16      0.00
   -7   -1   12      3.37      0.00
   -6   -1   12     -2.06      0.00
   -5   -1   12      1.27      0.00
   -4   -1   12     -0.68      0.00
   -3   -1   12      0.11      0.00
   -2   -1   12      0.71      0.00
   -1   -1   12      5.50      0.00
    0   -1   12      2.56      0.00
    1   -1   12      2.26      0.00
    3   -1   12      0.85      0.00
    4   -1   12      1.93      0.00
    5   -1   12     -1.67      0.00
    6   -1   12      3.26      0.00
    7   -1   12      1.10      0.00
    8   -1   12     -0.77      0.00
    9   -1   12     -3.29      0.00
   10   -1   12     -7.45      0.00
  -10    0   12     -5.92      0.00
   -9    0   12     -0.02      0.00
   -8    0   12     -4.72      0.00
   -7    0   12      0.11      0.00
   -6    0   12      0.26      0.00
   -5    0   12      0.67      0.00
   -4    0   12      1.45      0.00
   -3    0   12     -0.13      0.00
   -2    0   12     -2.85      0.00
   -1    0   12     -0.48      0.00
    0    0   12     -3.88      0.00
    1    0   12      4.50      0.00
    2    0   12     -0.98      0.00
    3    0   12     -0.58      0.00
    4    0   12      1.31      0.00
    5    0   12     -2.45      0.00
    6    0   12     -0.63      0.00
    7    0   12     -2.04      0.00
    8    0   12      0.32      0.00
    9    0   12      3.33      0.00
  -10    1   12      0.14      0.00
   -9    1   12      4.43      0.00
   -8    1   12      1.14      0.00
   -7    1   12      2.64      0.00
   -6    1   12     -1.15      0.00
   -5    1   12     -2.47      0.00
   -4    1   12     -1.62      0.00
   -3    1   12     -0.35      0.00
   -2    1   12     -2.06      0.00
   -1    1   12      2.10      0.00
    0    1   12     -3.70      0.00
    1    1   12     -0.71      0.00
    2    1   12     -0.43      0.00
    3    1   12     -1.25      0.00
    4    1   12      2.50      0.00
    5    1   12     -0.97      0.00
    6    1   12      1.94      0.00
    7    1   12      1.59      0.00
    8    1   12      0.55      0.00
    9    1   12     -0.49      0.00
  -10    2   12     -2.66      0.00
   -9    2   12     -0.93      0.00
   -8    2   12     -5.22      0.00
   -7    2   12     -1.11      0.00
   -6    2   12     -0.87      0.00
   -5    2   12      2.18      0.00
   -4    2   12      0.44      0.00
   -3    2   12      2.28      0.00
   -2    2   12      0.99      0.00
   -1    2   12      1.78      0.00
    0    2   12      0.74      0.00
    1    2   12      0.27      0.00
    2    2   12     -0.32      0.00
    3    2   12     -0.59      0.00
    4    2   12     -0.45      0.00
    5    2   12      2.15      0.00
    6    2   12     -2.04      0.00
    7    2   12      0.70      0.00
    8    2   12      0.92      0.00
    9    2   12     -4.13      0.00
  -10    3   12     -0.87      0.00
   -9    3   12      4.06      0.00
   -8    3   12      2.33      0.00
   -7    3   12      2.68      0.00
   -6    3   12     -0.68      0.00
   -5    3   12     -0.03      0.00
   -4    3   12      3.08      0.00
   -3    3   12     -3.12      0.00
   -2    3   12      1.82      0.00
   -1    3   12     -0.57      0.00
    0    3   12      0.12      0.00
    1    3   12      3.12      0.00
    2    3   12     -0.58      0.00
    3    3   12      2.24      0.00
    4    3   12     -1.32      0.00
    5    3   12     -2.54      0.00
    6    3   12      0.25      0.00
    7    3   12     -2.86      0.00
    8    3   12     -0.42      0.00
    9    3   12      2.37      0.00
   -9    4   12     -1.81      0.00
   -8    4   12     -2.31      0.00
   -7    4   12      0.57      0.00
   -6    4   12      2.80      0.00
   -5    4   12     -3.79      0.00
   -4    4   12      0.61      0.00
   -3    4   12     -4.31      0.00
   -2    4   12     -1.95      0.00
   -1    4   12     -1.03      0.00
    0    4   12     -3.20      0.00
    1    4   12      0.58      0.00
    2    4   12     -0.59      0.00
    3    4   12     -2.80      0.00
    4    4   12      5.46      0.00
    5    4   12      0.18      0.00
    6    4   12     -0.67      0.00
    7    4   12      5.42      0.00
    8    4   12     -0.30      0.00
    9    4   12     -3.05      0.00
  -11    5   12      0.73      0.00
  -10    5   12      0.27      0.00
   -9    5   12      2.18      0.00
   -8    5   12      1.30      0.00
   -7    5   12     -3.54      0.00
   -6    5   12     -1.39      0.00
   -5    5   12     -0.16      0.00
   -4    5   12      1.53      0.00
   -3    5   12      5.27      0.00
   -2    5   12      3.18      0.00
   -1    5   12      3.33      0.00
    0    5   12      0.14      0.00
    1    5   12     -0.94      0.00
    2    5   12      0.66      0.00
    3    5   12     -3.53      0.00
    4    5   12     -1.98      0.00
    5    5   12      0.29      0.00
    6    5   12     -2.16      0.00
    7    5   12     -1.65      0.00
    8    5   12     -0.97      0.00
    9    5   12      2.30      0.00
  -11    6   12     -0.21      0.00
  -10    6   12      0.84      0.00
   -9    6   12     -3.23      0.00
   -8    6   12      1.19      0.00
   -7    6   12     -0.02      0.00
   -6    6   12      1.69      0.00
   -5    6   12      0.93      0.00
   -4    6   12     -1.21      0.00
   -3    6   12     -6.32      0.00
   -2    6   12     -1.57      0.00
   -1    6   12     -2.32      0.00
    0    6   12     -1.21      0.00
    1    6   12      0.99      0.00
    2    6   12      2.36      0.00
    3    6   12      1.57      0.00
    4    6   12      1.98      0.00
    5    6   12      0.29      0.00
    6    6   12     -0.30      0.00
    7    6   12      5.18      0.00
    8    6   12     -0.78      0.00
  -10    7   12     -0.14      0.00
   -9    7   12     -0.42      0.00
   -8    7   12      0.40      0.00
   -7    7   12      2.97      0.00
   -6    7   12     -1.77      0.00
   -5    7   12     -0.08      0.00
   -4    7   12      4.31      0.00
   -3    7   12      3.79      0.00
   -2    7   12     -1.08      0.00
   -1    7   12      3.54      0.00
    0    7   12      1.14      0.00
    1    7   12      0.21      0.00
    2    7   12     -0.39      0.00
    3    7   12      0.48      0.00
    4    7   12      0.95      0.00
    5    7   12      1.30      0.00
    6    7   12     -0.72      0.00
    7    7   12     -4.48      0.00
    8    7   12     -2.08      0.00
   -6    8   12      0.73      0.00
   -5    8   12     -1.29      0.00
   -4    8   12     -6.86      0.00
   -3    8   12     -1.04      0.00
   -2    8   12     -1.11      0.00
   -1    8   12     -0.93      0.00
    0    8   12     -2.61      0.00
    1    8   12     -2.06      0.00
    2    8   12     -0.43      0.00
    3    8   12     -4.13      0.00
    4    8   12     -4.01      0.00
    5    8   12     -4.01      0.00
    6    8   12      1.40      0.00
    7    8   12      3.01      0.00
    8    8   12      0.39      0.00
   -5    9   12      4.84      0.00
   -4    9   12      5.09      0.00
   -3    9   12      3.77      0.00
   -2    9   12     -0.85      0.00
   -1    9   12      2.68      0.00
    0    9   12      2.61      0.00
    1    9   12     -0.04      0.00
    2    9   12      0.69      0.00
    3    9   12      5.06      0.00
    4    9   12      4.76      0.00
    5    9   12      4.28      0.00
    6    9   12     -0.53      0.00
    7    9   12      0.28      0.00
   -3   10   12     -3.03      0.00
   -2   10   12     -1.10      0.00
   -1   10   12     -1.24      0.00
    0   10   12     -1.87      0.00
    1   10   12      1.10      0.00
    2   10   12      3.31      0.00
    3   10   12     -3.46      0.00
    4   10   12     -4.14      0.00
   -2   11   12     -2.07      0.00
   -1   11   12      4.13      0.00
    0   11   12     -0.37      0.00
    1   11   12     -5.15      0.00
    2   11   12     -1.92      0.00
    3   11   12      1.50      0.00
    4   11   12     -0.51      0.00
   -2   12   12     -0.22      0.00
   -1   12   12     -1.60      0.00
    0   12   12      2.68      0.00
    1   12   12      1.67      0.00
    2   12   12      2.00      0.00
    3  -11   13     -0.41      0.00
    4  -11   13     -1.72      0.00
   -1  -10   13     -0.69      0.00
    0  -10   13      3.28      0.00
    1  -10   13      0.76      0.00
    2  -10   13     -1.39      0.00
    3  -10   13      1.74      0.00
    4  -10   13      0.56      0.00
   -4   -9   13      3.05      0.00
   -3   -9   13      0.05      0.00
   -2   -9   13     -0.61      0.00
   -1   -9   13     -2.62      0.00
    0   -9   13     -2.14      0.00
    1   -9   13      0.78      0.00
    2   -9   13      2.84      0.00
    3   -9   13     -0.53      0.00
    4   -9   13      0.84      0.00
   -6   -8   13     -0.94      0.00
   -5   -8   13     -5.84      0.00
   -4   -8   13     -3.71      0.00
   -3   -8   13     -0.37      0.00
   -2   -8   13      1.08      0.00
   -1   -8   13      1.96      0.00
    0   -8   13      1.61      0.00
    1   -8   13     -5.50      0.00
    2   -8   13     -1.82      0.00
    3   -8   13     -0.78      0.00
    4   -8   13     -0.19      0.00
    5   -8   13      2.20      0.00
   -8   -7   13     -1.93      0.00
   -7   -7   13     -2.30      0.00
   -6   -7   13      4.93      0.00
   -5   -7   13      3.81      0.00
   -4   -7   13      5.46      0.00
   -3   -7   13     -0.80      0.00
   -2   -7   13      2.25      0.00
   -1   -7   13     -2.61      0.00
    0   -7   13      1.75      0.00
    1   -7   13      4.70      0.00
    2   -7   13      0.82      0.00
    3   -7   13      0.75      0.00
    4   -7   13      0.15      0.00
    5   -7   13     -3.51      0.00
  -10   -6   13      1.38      0.00
   -9   -6   13     -0.96      0.00
   -8   -6   13     -0.10      0.00
   -7   -6   13     -2.19      0.00
   -6   -6   13     -3.95      0.00
   -5   -6   13     -4.42      0.00
   -4   -6   13     -2.55      0.00
   -3   -6   13     -2.92      0.00
   -2   -6   13     -2.57      0.00
   -1   -6   13      3.07      0.00
    0   -6   13     -2.67      0.00
    1   -6   13     -0.38      0.00
    2   -6   13      1.17      0.00
    3   -6   13     -1.05      0.00
    4   -6   13      1.80      0.00
    5   -6   13      1.94      0.00
    6   -6   13      0.42      0.00
  -10   -5   13     -0.10      0.00
   -9   -5   13      0.11      0.00
   -8   -5   13     -0.05      0.00
   -7   -5   13      1.25      0.00
   -6   -5   13      3.80      0.00
   -5   -5   13      1.79      0.00
   -4   -5   13      2.10      0.00
   -3   -5   13      4.06      0.00
   -2   -5   13      0.51      0.00
   -1   -5   13     -0.32      0.00
    0   -5   13     -2.30      0.00
    1   -5   13     -1.26      0.00
    2   -5   13     -1.71      0.00
    3   -5   13      0.22      0.00
    4   -5   13     -0.16      0.00
    5   -5   13     -2.38      0.00
    6   -5   13     -2.92      0.00
    7   -5   13      4.54      0.00
    8   -5   13     -0.35      0.00
  -11   -4   13     -1.57      0.00
  -10   -4   13      0.64      0.00
   -9   -4   13      2.56      0.00
   -8   -4   13      4.22      0.00
   -7   -4   13      0.60      0.00
   -6   -4   13     -1.38      0.00
   -5   -4   13      0.13      0.00
   -4   -4   13     -1.17      0.00
   -3   -4   13     -3.24      0.00
   -2   -4   13      0.17      0.00
   -1   -4   13      0.84      0.00
    0   -4   13      0.55      0.00
    1   -4   13      1.74      0.00
    2   -4   13      0.08      0.00
    3   -4   13     -1.92      0.00
    4   -4   13     -1.59      0.00
    5   -4   13      2.96      0.00
    6   -4   13     -1.52      0.00
    7   -4   13     -1.35      0.00
    8   -4   13     -2.03      0.00
    9   -4   13     -0.55      0.00
   10   -4   13      1.58      0.00
   11   -4   13     -1.40      0.00
  -11   -3   13      4.32      0.00
  -10   -3   13      0.04      0.00
   -9   -3   13     -3.89      0.00
   -8   -3   13     -7.05      0.00
   -7   -3   13     -1.69      0.00
   -6   -3   13     -0.68      0.00
   -5   -3   13      0.54      0.00
   -4   -3   13     -0.92      0.00
   -3   -3   13      2.54      0.00
   -2   -3   13     -0.38      0.00
   -1   -3   13      2.22      0.00
    0   -3   13      0.58      0.00
    1   -3   13      3.33      0.00
    2   -3   13      0.46      0.00
    3   -3   13      3.12      0.00
    4   -3   13      3.72      0.00
    5   -3   13     -1.71      0.00
    6   -3   13      2.05      0.00
    7   -3   13      4.04      0.00
    8   -3   13      0.73      0.00
    9   -3   13      1.00      0.00
   10   -3   13     -1.30      0.00
   11   -3   13      1.75      0.00
  -10   -2   13     -3.19      0.00
   -9   -2   13      3.63      0.00
   -8   -2   13      4.56      0.00
   -7   -2   13      0.90      0.00
   -6   -2   13     -1.11      0.00
   -5   -2   13      1.08      0.00
   -4   -2   13     -0.85      0.00
   -3   -2   13     -1.26      0.00
   -2   -2   13     -2.40      0.00
   -1   -2   13     -2.63      0.00
    0   -2   13     -5.79      0.00
    1   -2   13     -1.79      0.00
    2   -2   13     -1.21      0.00
    3   -2   13     -4.95      0.00
    4   -2   13      0.45      0.00
    5   -2   13     -1.69      0.00
    6   -2   13     -2.23      0.00
    7   -2   13     -1.76      0.00
    8   -2   13     -2.26      0.00
    9   -2   13      1.35      0.00
   10   -2   13     -0.18      0.00
   11   -2   13      0.32      0.00
  -10   -1   13      2.54      0.00
   -9   -1   13      1.59      0.00
   -8   -1   13     -2.60      0.00
   -7   -1   13      2.98      0.00
   -6   -1   13      0.05      0.00
   -5   -1   13      1.31      0.00
   -4   -1   13     -0.67      0.00
   -3   -1   13      2.94      0.00
   -2   -1   13      3.19      0.00
   -1   -1   13      4.67      0.00
    0   -1   13      2.95      0.00
    1   -1   13      1.53      0.00
    2   -1   13     -0.09      0.00
    3   -1   13      0.52      0.00
    4   -1   13      2.82      0.00
    5   -1   13     -2.18      0.00
    6   -1   13      2.92      0.00
    7   -1   13      0.16      0.00
    8   -1   13      0.02      0.00
    9   -1   13     -1.73      0.00
  -10    0   13     -5.47      0.00
   -9    0   13      0.18      0.00
   -8    0   13     -2.42      0.00
   -7    0   13     -0.18      0.00
   -6    0   13     -3.44      0.00
   -5    0   13      1.83      0.00
   -4    0   13      0.92      0.00
   -3    0   13     -1.97      0.00
   -2    0   13     -5.02      0.00
   -1    0   13      0.22      0.00
    0    0   13     -3.94      0.00
    1    0   13      3.51      0.00
    2    0   13      0.79      0.00
    3    0   13     -2.25      0.00
    4    0   13      2.35      0.00
    5    0   13     -2.01      0.00
    6    0   13      0.67      0.00
    7    0   13      0.28      0.00
    8    0   13      1.56      0.00
    9    0   13      2.55      0.00
  -10    1   13      1.16      0.00
   -9    1   13      3.61      0.00
   -8    1   13     -1.59      0.00
   -7    1   13      3.57      0.00
   -6    1   13      0.55      0.00
   -5    1   13     -3.72      0.00
   -4    1   13     -2.02      0.00
   -3    1   13      1.76      0.00
   -2    1   13     -0.77      0.00
   -1    1   13      2.52      0.00
    0    1   13     -2.35      0.00
    1    1   13     -0.12      0.00
    2    1   13     -0.81      0.00
    3    1   13     -0.50      0.00
    4    1   13      1.56      0.00
    5    1   13     -1.40      0.00
    6    1   13     -0.72      0.00
    7    1   13     -1.28      0.00
    8    1   13     -1.08      0.00
    9    1   13     -1.16      0.00
  -10    2   13     -4.26      0.00
   -9    2   13     -0.91      0.00
   -8    2   13     -2.33      0.00
   -7    2   13     -1.65      0.00
   -6    2   13     -0.27      0.00
   -5    2   13      3.38      0.00
   -4    2   13      2.49      0.00
   -3    2   13      0.25      0.00
   -2    2   13      0.52      0.00
   -1    2   13      1.27      0.00
    0    2   13     -1.22      0.00
    1    2   13     -1.02      0.00
    2    2   13      0.87      0.00
    3    2   13     -1.80      0.00
    4    2   13      1.04      0.00
    5    2   13      2.84      0.00
    6    2   13      0.66      0.00
    7    2   13      2.69      0.00
    8    2   13      1.04      0.00
    9    2   13     -3.74      0.00
   -9    3   13      5.09      0.00
   -8    3   13      1.77      0.00
   -7    3   13      3.02      0.00
   -6    3   13     -1.09      0.00
   -5    3   13     -0.55      0.00
   -4    3   13      0.72      0.00
   -3    3   13     -0.45      0.00
   -2    3   13     -0.05      0.00
   -1    3   13      0.13      0.00
    0    3   13      2.08      0.00
    1    3   13      3.44      0.00
    2    3   13     -0.75      0.00
    3    3   13      1.55      0.00
    4    3   13     -2.60      0.00
    5    3   13     -1.61      0.00
    6    3   13     -3.02      0.00
    7    3   13     -2.69      0.00
    8    3   13      2.60      0.00
    9    3   13      3.68      0.00
   -9    4   13     -4.35      0.00
   -8    4   13     -2.24      0.00
   -7    4   13     -0.22      0.00
   -6    4   13      1.19      0.00
   -5    4   13     -4.70      0.00
   -4    4   13     -0.17      0.00
   -3    4   13     -5.84      0.00
   -2    4   13      0.45      0.00
   -1    4   13     -0.42      0.00
    0    4   13     -4.47      0.00
    1    4   13     -0.20      0.00
    2    4   13     -0.26      0.00
    3    4   13     -1.38      0.00
    4    4   13      3.31      0.00
    5    4   13     -0.06      0.00
    6    4   13     -0.34      0.00
    7    4   13      3.11      0.00
    8    4   13     -5.34      0.00
  -11    5   13     -0.28      0.00
  -10    5   13      2.50      0.00
   -9    5   13      3.17      0.00
   -8    5   13      0.85      0.00
   -7    5   13     -3.82      0.00
   -6    5   13      1.54      0.00
   -5    5   13      2.09      0.00
   -4    5   13      5.15      0.00
   -3    5   13      5.64      0.00
   -2    5   13     -0.42      0.00
   -1    5   13      1.06      0.00
    0    5   13      0.89      0.00
    1    5   13     -0.66      0.00
    2    5   13      0.56      0.00
    3    5   13     -2.68      0.00
    4    5   13      0.42      0.00
    5    5   13      2.65      0.00
    6    5   13     -1.01      0.00
    7    5   13      2.20      0.00
    8    5   13      5.76      0.00
  -10    6   13     -0.90      0.00
   -9    6   13     -3.39      0.00
   -8    6   13      1.47      0.00
   -7    6   13      1.73      0.00
   -6    6   13     -1.49      0.00
   -5    6   13     -1.42      0.00
   -4    6   13     -5.33      0.00
   -3    6   13     -3.41      0.00
   -2    6   13      2.04      0.00
   -1    6   13      1.49      0.00
    0    6   13     -0.25      0.00
    1    6   13      0.60      0.00
    2    6   13      2.61      0.00
    3    6   13     -0.04      0.00
    4    6   13      0.74      0.00
    5    6   13     -0.62      0.00
    6    6   13     -0.49      0.00
    7    6   13      0.72      0.00
    8    6   13     -5.54      0.00
  -10    7   13      1.85      0.00
   -9    7   13      0.99      0.00
   -8    7   13      1.21      0.00
   -7    7   13      2.75      0.00
   -6    7   13      2.38      0.00
   -5    7   13      1.49      0.00
   -4    7   13      6.10      0.00
   -3    7   13     -0.92      0.00
   -2    7   13     -4.79      0.00
   -1    7   13     -0.41      0.00
    0    7   13      0.75      0.00
    1    7   13     -1.03      0.00
    2    7   13      0.23      0.00
    3    7   13      0.46      0.00
    4    7   13     -2.61      0.00
    5    7   13     -1.12      0.00
    6    7   13     -4.49      0.00
    7    7   13     -2.91      0.00
    8    7   13     -0.91      0.00
   -6    8   13     -4.71      0.00
   -5    8   13     -4.45      0.00
   -4    8   13     -4.85      0.00
   -3    8   13      3.16      0.00
   -2    8   13      1.24      0.00
   -1    8   13      0.20      0.00
    0    8   13     -1.84      0.00
    1    8   13     -1.90      0.00
    2    8   13     -1.36      0.00
    3    8   13     -0.16      0.00
    4    8   13      2.48      0.00
    5    8   13      1.94      0.00
    6    8   13      7.99      0.00
    7    8   13      5.51      0.00
    8    8   13      2.88      0.00
   -5    9   13      6.28      0.00
   -4    9   13      3.55      0.00
   -3    9   13      0.29      0.00
   -2    9   13     -0.70      0.00
   -1    9   13      3.16      0.00
    0    9   13      3.72      0.00
    1    9   13     -0.48      0.00
    2    9   13      1.16      0.00
    3    9   13     -0.63      0.00
    4    9   13     -2.12      0.00
    5    9   13     -1.40      0.00
    6    9   13     -6.08      0.00
    7    9   13     -2.89      0.00
   -3   10   13     -0.97      0.00
   -2   10   13     -1.65      0.00
   -1   10   13     -3.13      0.00
    0   10   13     -1.82      0.00
    1   10   13      2.51      0.00
    2   10   13      2.44      0.00
    3   10   13      3.46      0.00
    4   10   13     -0.61      0.00
    5   10   13      2.05      0.00
   -2   11   13     -1.14      0.00
   -1   11   13      3.69      0.00
    0   11   13     -1.58      0.00
    1   11   13     -7.36      0.00
    2   11   13     -2.35      0.00
    3   11   13     -3.01      0.00
    4   11   13     -1.35      0.00
   -2   12   13      0.08      0.00
   -1   12   13     -0.14      0.00
    0   12   13      5.25      0.00
    3  -11   14     -0.70      0.00
    4  -11   14      0.37      0.00
    0  -10   14      4.24      0.00
    1  -10   14      1.86      0.00
    2  -10   14     -0.76      0.00
    3  -10   14      2.56      0.00
    4  -10   14      0.22      0.00
   -3   -9   14     -1.32      0.00
   -2   -9   14      1.05      0.00
   -1   -9   14     -3.47      0.00
    0   -9   14     -3.35      0.00
    1   -9   14     -0.30      0.00
    2   -9   14      1.80      0.00
    3   -9   14     -1.73      0.00
    4   -9   14     -0.84      0.00
    5   -9   14     -3.53      0.00
   -6   -8   14     -1.78      0.00
   -5   -8   14     -4.33      0.00
   -4   -8   14     -0.16      0.00
   -3   -8   14      1.72      0.00
   -2   -8   14     -0.77      0.00
   -1   -8   14      2.09      0.00
    0   -8   14      2.72      0.00
    1   -8   14     -5.19      0.00
    2   -8   14     -1.19      0.00
    3   -8   14      0.11      0.00
    4   -8   14      1.58      0.00
    5   -8   14      1.67      0.00
   -8   -7   14     -4.91      0.00
   -7   -7   14     -4.78      0.00
   -6   -7   14      2.98      0.00
   -5   -7   14      0.93      0.00
   -4   -7   14     -1.23      0.00
   -3   -7   14     -1.81      0.00
   -2   -7   14      1.63      0.00
   -1   -7   14     -2.96      0.00
    0   -7   14      1.24      0.00
    1   -7   14      3.54      0.00
    2   -7   14      1.02      0.00
    3   -7   14      0.94      0.00
    4   -7   14     -0.93      0.00
    5   -7   14     -1.82      0.00
    6   -7   14      1.67      0.00
   -9   -6   14     -5.00      0.00
   -8   -6   14      2.15      0.00
   -7   -6   14      0.53      0.00
   -6   -6   14      0.05      0.00
   -5   -6   14     -0.84      0.00
   -4   -6   14      4.52      0.00
   -3   -6   14     -2.39      0.00
   -2   -6   14      1.03      0.00
    0   -6   14     -0.27      0.00
    1   -6   14      0.11      0.00
    2   -6   14      1.40      0.00
    3   -6   14     -1.27      0.00
    4   -6   14      0.72      0.00
    5   -6   14      0.36      0.00
    6   -6   14      1.31      0.00
  -10   -5   14      4.48      0.00
   -9   -5   14      4.60      0.00
   -8   -5   14     -0.37      0.00
   -7   -5   14      0.10      0.00
   -6   -5   14      0.49      0.00
   -5   -5   14     -1.42      0.00
   -4   -5   14     -1.75      0.00
   -3   -5   14      3.05      0.00
   -2   -5   14     -2.70      0.00
   -1   -5   14     -4.11      0.00
    0   -5   14     -3.04      0.00
    1   -5   14     -3.35      0.00
    2   -5   14     -2.04      0.00
    3   -5   14      0.35      0.00
    4   -5   14      1.40      0.00
    5   -5   14     -0.07      0.00
    6   -5   14     -4.65      0.00
    7   -5   14      4.65      0.00
    8   -5   14     -1.13      0.00
    9   -5   14      1.24      0.00
  -10   -4   14     -1.94      0.00
   -9   -4   14      0.05      0.00
   -8   -4   14      1.98      0.00
   -7   -4   14     -0.74      0.00
   -6   -4   14     -0.37      0.00
   -5   -4   14      1.26      0.00
   -4   -4   14     -0.01      0.00
   -3   -4   14     -3.85      0.00
   -2   -4   14      2.55      0.00
   -1   -4   14      4.25      0.00
    0   -4   14      1.09      0.00
    1   -4   14      3.84      0.00
    2   -4   14      0.85      0.00
    3   -4   14     -1.06      0.00
    4   -4   14     -2.89      0.00
    5   -4   14      1.81      0.00
    6   -4   14     -2.72      0.00
    7   -4   14      1.47      0.00
    8   -4   14     -0.84      0.00
    9   -4   14      1.66      0.00
   10   -4   14      1.18      0.00
  -10   -3   14     -1.19      0.00
   -9   -3   14     -2.89      0.00
   -8   -3   14     -3.14      0.00
   -7   -3   14      1.75      0.00
   -6   -3   14      1.13      0.00
   -5   -3   14     -0.24      0.00
   -4   -3   14      1.18      0.00
   -3   -3   14      3.48      0.00
   -2   -3   14     -0.53      0.00
   -1   -3   14     -0.91      0.00
    0   -3   14      1.13      0.00
    1   -3   14      1.46      0.00
    2   -3   14     -0.89      0.00
    3   -3   14      1.18      0.00
    4   -3   14      1.81      0.00
    5   -3   14      0.90      0.00
    6   -3   14      2.85      0.00
    7   -3   14      2.32      0.00
    8   -3   14     -1.48      0.00
    9   -3   14     -1.84      0.00
   10   -3   14     -0.62      0.00
   11   -3   14      1.92      0.00
  -10   -2   14     -0.81      0.00
   -9   -2   14      3.60      0.00
   -8   -2   14      0.39      0.00
   -7   -2   14     -2.38      0.00
   -6   -2   14     -3.80      0.00
   -5   -2   14      1.79      0.00
   -4   -2   14     -4.05      0.00
   -3   -2   14     -2.41      0.00
   -2   -2   14     -2.40      0.00
   -1   -2   14      0.03      0.00
    0   -2   14     -6.81      0.00
    1   -2   14     -0.83      0.00
    2   -2   14      0.17      0.00
    3   -2   14     -1.03      0.00
    4   -2   14      3.97      0.00
    5   -2   14     -3.12      0.00
    6   -2   14     -3.62      0.00
    7   -2   14     -1.09      0.00
    8   -2   14     -1.10      0.00
    9   -2   14      2.24      0.00
   10   -2   14     -1.86      0.00
   11   -2   14     -0.14      0.00
  -10   -1   14      1.80      0.00
   -9   -1   14      1.02      0.00
   -8   -1   14     -0.29      0.00
   -7   -1   14      4.87      0.00
   -6   -1   14      0.36      0.00
   -5   -1   14      0.55      0.00
   -4   -1   14      2.21      0.00
   -3   -1   14      4.56      0.00
   -2   -1   14      1.31      0.00
   -1   -1   14      3.00      0.00
    0   -1   14      3.43      0.00
    1   -1   14      1.82      0.00
    2   -1   14     -0.80      0.00
    3   -1   14     -4.55      0.00
    4   -1   14     -0.39      0.00
    5   -1   14     -1.76      0.00
    6   -1   14      2.66      0.00
    7   -1   14      0.99      0.00
    8   -1   14     -0.25      0.00
    9   -1   14      0.44      0.00
   10   -1   14      1.43      0.00
   11   -1   14      2.53      0.00
  -10    0   14     -6.00      0.00
   -9    0   14      0.41      0.00
   -8    0   14     -2.73      0.00
   -7    0   14      0.35      0.00
   -6    0   14     -1.20      0.00
   -5    0   14      3.04      0.00
   -4    0   14     -1.22      0.00
   -3    0   14     -4.16      0.00
   -2    0   14     -2.92      0.00
   -1    0   14      0.95      0.00
    0    0   14     -3.73      0.00
    1    0   14      1.88      0.00
    2    0   14      2.88      0.00
    3    0   14     -0.16      0.00
    4    0   14      4.69      0.00
    5    0   14     -1.55      0.00
    6    0   14      1.40      0.00
    7    0   14      0.07      0.00
    8    0   14      2.61      0.00
    9    0   14     -0.48      0.00
  -10    1   14      2.96      0.00
   -9    1   14      1.96      0.00
   -8    1   14     -1.70      0.00
   -7    1   14      2.60      0.00
   -6    1   14     -2.64      0.00
   -5    1   14     -5.43      0.00
   -4    1   14     -0.13      0.00
   -3    1   14      4.57      0.00
   -2    1   14     -1.22      0.00
   -1    1   14      2.84      0.00
    0    1   14     -1.67      0.00
    1    1   14     -1.28      0.00
    2    1   14     -0.96      0.00
    3    1   14     -2.52      0.00
    4    1   14      1.22      0.00
    5    1   14     -1.10      0.00
    6    1   14     -1.33      0.00
    7    1   14     -2.49      0.00
    8    1   14     -3.55      0.00
  -10    2   14     -3.89      0.00
   -9    2   14      1.27      0.00
   -8    2   14     -2.01      0.00
   -7    2   14     -2.15      0.00
   -6    2   14      1.57      0.00
   -5    2   14      4.15      0.00
   -4    2   14      1.26      0.00
   -3    2   14     -2.39      0.00
   -2    2   14     -0.76      0.00
   -1    2   14      0.15      0.00
    0    2   14     -1.67      0.00
    1    2   14      0.83      0.00
    2    2   14      1.77      0.00
    3    2   14     -0.17      0.00
    4    2   14      0.70      0.00
    5    2   14      2.59      0.00
    6    2   14     -0.08      0.00
    7    2   14      3.51      0.00
    8    2   14      4.13      0.00
   -9    3   14      0.67      0.00
   -8    3   14      2.56      0.00
   -7    3   14      4.15      0.00
   -6    3   14      1.25      0.00
   -5    3   14     -1.31      0.00
   -4    3   14      2.21      0.00
   -3    3   14      0.53      0.00
   -2    3   14      0.65      0.00
   -1    3   14      0.66      0.00
    0    3   14      2.81      0.00
    1    3   14      0.87      0.00
    2    3   14     -0.30      0.00
    3    3   14     -0.60      0.00
    4    3   14     -3.40      0.00
    5    3   14     -0.92      0.00
    6    3   14     -2.07      0.00
    7    3   14     -1.89      0.00
    8    3   14      1.42      0.00
   -9    4   14     -0.31      0.00
   -8    4   14     -2.04      0.00
   -7    4   14     -2.63      0.00
   -6    4   14     -3.72      0.00
   -5    4   14     -4.25      0.00
   -4    4   14     -2.55      0.00
   -3    4   14     -3.49      0.00
   -2    4   14      0.55      0.00
   -1    4   14      0.54      0.00
    0    4   14     -4.27      0.00
    1    4   14      0.37      0.00
    2    4   14     -1.73      0.00
    3    4   14      0.24      0.00
    4    4   14      3.02      0.00
    5    4   14      1.00      0.00
    6    4   14     -1.04      0.00
    7    4   14     -0.03      0.00
    8    4   14     -5.61      0.00
  -11    5   14      0.11      0.00
  -10    5   14      1.68      0.00
   -9    5   14     -1.16      0.00
   -8    5   14     -0.39      0.00
   -7    5   14     -1.10      0.00
   -6    5   14      6.36      0.00
   -5    5   14      2.19      0.00
   -4    5   14      6.59      0.00
   -3    5   14      2.84      0.00
   -2    5   14     -1.25      0.00
   -1    5   14     -0.60      0.00
    0    5   14      0.77      0.00
    1    5   14     -0.96      0.00
    2    5   14      2.75      0.00
    3    5   14     -1.43      0.00
    4    5   14      0.47      0.00
    5    5   14      2.55      0.00
    6    5   14     -0.77      0.00
    7    5   14      4.90      0.00
    8    5   14      7.62      0.00
  -10    6   14     -0.14      0.00
   -9    6   14      0.82      0.00
   -8    6   14      3.88      0.00
   -7    6   14      0.13      0.00
   -6    6   14     -3.53      0.00
   -5    6   14     -1.37      0.00
   -4    6   14     -4.70      0.00
   -3    6   14     -0.65      0.00
   -2    6   14      0.89      0.00
   -1    6   14      1.68      0.00
    0    6   14      1.18      0.00
    1    6   14      1.24      0.00
    2    6   14      0.71      0.00
    3    6   14     -0.72      0.00
    4    6   14     -0.74      0.00
    5    6   14     -1.38      0.00
    6    6   14      0.07      0.00
    7    6   14     -2.55      0.00
    8    6   14     -5.73      0.00
   -9    7   14     -1.73      0.00
   -8    7   14     -2.42      0.00
   -7    7   14      3.12      0.00
   -6    7   14      2.22      0.00
   -5    7   14     -0.64      0.00
   -4    7   14      1.94      0.00
   -3    7   14     -2.01      0.00
   -2    7   14     -2.45      0.00
   -1    7   14      0.44      0.00
    0    7   14      0.00      0.00
    1    7   14     -3.74      0.00
    2    7   14      0.84      0.00
    3    7   14     -1.48      0.00
    4    7   14     -1.40      0.00
    5    7   14     -1.20      0.00
    6    7   14     -4.21      0.00
    7    7   14     -0.83      0.00
    8    7   14     -0.88      0.00
   -6    8   14     -2.89      0.00
   -5    8   14     -2.60      0.00
   -4    8   14      2.05      0.00
   -3    8   14      3.80      0.00
   -2    8   14     -0.65      0.00
   -1    8   14     -1.55      0.00
    0    8   14     -0.03      0.00
    1    8   14     -0.29      0.00
    2    8   14     -0.60      0.00
    3    8   14      5.00      0.00
    4    8   14      2.09      0.00
    5    8   14      3.95      0.00
    6    8   14      7.79      0.00
    7    8   14      4.87      0.00
   -4    9   14     -0.63      0.00
   -3    9   14     -0.60      0.00
   -2    9   14      0.15      0.00
   -1    9   14      3.11      0.00
    0    9   14      3.34      0.00
    1    9   14     -0.22      0.00
    2    9   14     -0.46      0.00
    3    9   14     -5.30      0.00
    4    9   14     -2.19      0.00
    5    9   14     -4.77      0.00
    6    9   14     -6.73      0.00
   -2   10   14     -1.60      0.00
   -1   10   14     -3.28      0.00
    0   10   14     -1.73      0.00
    1   10   14     -0.04      0.00
    2   10   14      3.34      0.00
    3   10   14      6.09      0.00
    4   10   14     -1.14      0.00
   -2   11   14      0.15      0.00
   -1   11   14      3.44      0.00
    0   11   14     -0.63      0.00
    1   11   14     -3.17      0.00
    2   11   14     -4.20      0.00
    3   11   14     -2.74      0.00
    4  -11   15      0.49      0.00
    2  -10   15      0.88      0.00
    3  -10   15      0.72      0.00
    4  -10   15     -0.44      0.00
   -1   -9   15     -1.41      0.00
    0   -9   15     -3.37      0.00
    1   -9   15     -2.00      0.00
    2   -9   15     -1.05      0.00
    3   -9   15     -1.12      0.00
    4   -9   15     -0.16      0.00
    5   -9   15      1.14      0.00
   -5   -8   15     -1.99      0.00
   -4   -8   15      4.77      0.00
   -3   -8   15      2.07      0.00
   -2   -8   15      0.59      0.00
   -1   -8   15      0.94      0.00
    0   -8   15      3.81      0.00
    1   -8   15     -3.23      0.00
    2   -8   15      2.50      0.00
    3   -8   15      2.22      0.00
    4   -8   15      1.14      0.00
    5   -8   15     -2.29      0.00
   -7   -7   15     -5.86      0.00
   -6   -7   15     -0.22      0.00
   -5   -7   15     -2.28      0.00
   -4   -7   15     -4.43      0.00
   -3   -7   15     -0.65      0.00
   -2   -7   15      0.95      0.00
   -1   -7   15     -3.93      0.00
    0   -7   15      1.96      0.00
    1   -7   15      1.47      0.00
    2   -7   15     -1.39      0.00
    3   -7   15     -1.89      0.00
    4   -7   15     -2.09      0.00
    5   -7   15      0.78      0.00
    6   -7   15     -1.89      0.00
   -9   -6   15     -0.19      0.00
   -8   -6   15      6.74      0.00
   -7   -6   15      4.31      0.00
   -6   -6   15      4.38      0.00
   -5   -6   15      3.25      0.00
   -4   -6   15      5.73      0.00
   -3   -6   15     -2.77      0.00
   -2   -6   15      2.87      0.00
    0   -6   15     -0.27      0.00
    1   -6   15     -0.88      0.00
    2   -6   15      1.15      0.00
    3   -6   15      1.30      0.00
    4   -6   15      1.31      0.00
    5   -6   15      0.90      0.00
    6   -6   15      3.71      0.00
    7   -6   15      3.48      0.00
  -10   -5   15      6.59      0.00
   -9   -5   15      0.24      0.00
   -8   -5   15     -3.69      0.00
   -7   -5   15     -2.74      0.00
   -6   -5   15     -2.45      0.00
   -5   -5   15     -5.13      0.00
   -4   -5   15     -0.84      0.00
   -3   -5   15     -0.29      0.00
   -2   -5   15     -4.02      0.00
   -1   -5   15     -6.91      0.00
    0   -5   15     -1.57      0.00
    1   -5   15     -1.42      0.00
    2   -5   15     -0.08      0.00
    3   -5   15      0.19      0.00
    4   -5   15      0.74      0.00
    5   -5   15     -1.19      0.00
    6   -5   15     -7.31      0.00
    7   -5   15      2.89      0.00
    8   -5   15     -2.38      0.00
    9   -5   15     -1.16      0.00
  -10   -4   15     -4.27      0.00
   -9   -4   15      1.95      0.00
   -8   -4   15     -0.43      0.00
   -7   -4   15     -0.43      0.00
   -6   -4   15     -0.34      0.00
   -5   -4   15      2.23      0.00
   -4   -4   15     -1.56      0.00
   -3   -4   15     -0.66      0.00
   -2   -4   15      4.99      0.00
   -1   -4   15      5.89      0.00
    1   -4   15      2.03      0.00
    2   -4   15     -1.15      0.00
    3   -4   15     -1.91      0.00
    4   -4   15     -3.26      0.00
    5   -4   15      3.84      0.00
    6   -4   15     -1.29      0.00
    7   -4   15      4.07      0.00
    8   -4   15     -0.42      0.00
    9   -4   15      2.60      0.00
   10   -4   15      1.57      0.00
  -10   -3   15     -1.33      0.00
   -9   -3   15     -0.65      0.00
   -8   -3   15      1.94      0.00
   -7   -3   15      3.29      0.00
   -6   -3   15      1.46      0.00
   -5   -3   15      0.15      0.00
   -4   -3   15      3.85      0.00
   -3   -3   15      2.00      0.00
   -2   -3   15     -2.22      0.00
   -1   -3   15     -1.62      0.00
    0   -3   15     -1.25      0.00
    1   -3   15      2.09      0.00
    2   -3   15     -0.91      0.00
    3   -3   15      2.05      0.00
    4   -3   15      1.88      0.00
    5   -3   15      1.49      0.00
    6   -3   15     -0.75      0.00
    7   -3   15     -0.38      0.00
    8   -3   15     -3.11      0.00
    9   -3   15     -2.71      0.00
   10   -3   15     -1.78      0.00
  -10   -2   15      0.06      0.00
   -9   -2   15      0.53      0.00
   -8   -2   15     -4.75      0.00
   -7   -2   15     -2.36      0.00
   -6   -2   15     -1.86      0.00
   -5   -2   15      1.78      0.00
   -4   -2   15     -5.72      0.00
   -3   -2   15     -2.61      0.00
   -2   -2   15     -0.70      0.00
   -1   -2   15      0.29      0.00
    0   -2   15     -3.40      0.00
    1   -2   15      0.08      0.00
    2   -2   15      2.14      0.00
    3   -2   15      0.83      0.00
    4   -2   15      2.61      0.00
    5   -2   15     -4.12      0.00
    6   -2   15     -0.71      0.00
    7   -2   15      1.50      0.00
    8   -2   15      1.43      0.00
    9   -2   15      2.95      0.00
   10   -2   15      0.54      0.00
  -10   -1   15      0.69      0.00
   -9   -1   15      2.89      0.00
   -8   -1   15      2.56      0.00
   -7   -1   15      3.97      0.00
   -6   -1   15     -3.18      0.00
   -5   -1   15     -0.24      0.00
   -4   -1   15      2.31      0.00
   -3   -1   15      3.83      0.00
   -2   -1   15     -1.58      0.00
   -1   -1   15      2.83      0.00
    0   -1   15      0.25      0.00
    1   -1   15      0.90      0.00
    2   -1   15     -3.98      0.00
    3   -1   15     -9.16      0.00
    4   -1   15      0.37      0.00
    5   -1   15     -0.53      0.00
    6   -1   15      0.87      0.00
    7   -1   15      0.62      0.00
    8   -1   15     -0.91      0.00
    9   -1   15      0.92      0.00
   10   -1   15     -0.56      0.00
  -10    0   15     -3.33      0.00
   -9    0   15      0.58      0.00
   -8    0   15     -3.10      0.00
   -7    0   15      0.96      0.00
   -6    0   15      1.20      0.00
   -5    0   15      2.28      0.00
   -4    0   15     -0.59      0.00
   -3    0   15     -1.58      0.00
   -2    0   15      0.46      0.00
   -1    0   15      1.80      0.00
    0    0   15     -2.03      0.00
    1    0   15      1.09      0.00
    2    0   15      6.72      0.00
    3    0   15      3.98      0.00
    4    0   15      5.32      0.00
    5    0   15     -0.57      0.00
    6    0   15      1.21      0.00
    7    0   15     -1.29      0.00
    8    0   15      0.23      0.00
    9    0   15     -2.76      0.00
   10    0   15     -3.43      0.00
  -10    1   15      0.31      0.00
   -9    1   15     -1.97      0.00
   -8    1   15     -3.14      0.00
   -7    1   15      1.12      0.00
   -6    1   15     -2.21      0.00
   -5    1   15     -3.88      0.00
   -4    1   15      1.31      0.00
   -3    1   15      1.06      0.00
   -2    1   15     -3.28      0.00
   -1    1   15      0.54      0.00
    0    1   15     -1.81      0.00
    1    1   15     -1.59      0.00
    2    1   15     -1.61      0.00
    3    1   15     -5.07      0.00
    4    1   15     -0.09      0.00
    5    1   15     -2.39      0.00
    6    1   15     -1.32      0.00
    7    1   15     -1.80      0.00
    8    1   15      0.07      0.00
    9    1   15      2.83      0.00
   -9    2   15      5.57      0.00
   -8    2   15      2.11      0.00
   -7    2   15      0.19      0.00
   -6    2   15      1.91      0.00
   -5    2   15      2.01      0.00
   -4    2   15     -0.59      0.00
   -3    2   15     -0.08      0.00
   -2    2   15     -0.08      0.00
   -1    2   15      2.87      0.00
    0    2   15      0.94      0.00
    1    2   15      1.81      0.00
    2    2   15      2.22      0.00
    3    2   15     -0.39      0.00
    4    2   15      0.39      0.00
    5    2   15      2.98      0.00
    6    2   15      1.12      0.00
    7    2   15      3.90      0.00
    8    2   15      2.62      0.00
   -9    3   15     -3.63      0.00
   -8    3   15     -1.19      0.00
   -7    3   15      0.84      0.00
   -6    3   15      0.22      0.00
   -5    3   15     -1.60      0.00
   -4    3   15      2.38      0.00
   -3    3   15     -0.94      0.00
   -2    3   15      0.21      0.00
   -1    3   15     -1.83      0.00
    0    3   15     -1.30      0.00
    1    3   15     -2.32      0.00
    2    3   15     -1.55      0.00
    3    3   15      0.37      0.00
    4    3   15     -2.24      0.00
    5    3   15      0.50      0.00
    6    3   15     -3.10      0.00
    7    3   15     -4.05      0.00
    8    3   15      0.49      0.00
  -10    4   15     -0.05      0.00
   -9    4   15      1.74      0.00
   -8    4   15      0.87      0.00
   -7    4   15     -1.97      0.00
   -6    4   15     -1.72      0.00
   -5    4   15     -2.30      0.00
   -4    4   15      0.21      0.00
   -3    4   15      0.03      0.00
   -2    4   15      1.41      0.00
   -1    4   15      0.76      0.00
    0    4   15     -0.58      0.00
    1    4   15      1.87      0.00
    2    4   15      0.80      0.00
    3    4   15      1.17      0.00
    4    4   15      1.51      0.00
    5    4   15     -0.43      0.00
    6    4   15      0.09      0.00
    7    4   15      0.99      0.00
    8    4   15     -2.73      0.00
  -10    5   15     -0.36      0.00
   -9    5   15     -2.64      0.00
   -8    5   15     -1.90      0.00
   -7    5   15      0.87      0.00
   -6    5   15      4.25      0.00
   -5    5   15      0.60      0.00
   -4    5   15      0.14      0.00
   -3    5   15     -1.41      0.00
   -2    5   15     -3.71      0.00
   -1    5   15      1.08      0.00
    0    5   15      1.61      0.00
    1    5   15      0.56      0.00
    2    5   15      0.54      0.00
    3    5   15     -2.89      0.00
    4    5   15      0.06      0.00
    5    5   15      2.69      0.00
    6    5   15     -0.40      0.00
    7    5   15      3.49      0.00
    8    5   15      6.13      0.00
  -10    6   15      1.81      0.00
   -9    6   15      2.31      0.00
   -8    6   15      4.65      0.00
   -7    6   15     -1.87      0.00
   -6    6   15     -0.29      0.00
   -5    6   15     -0.56      0.00
   -4    6   15      1.74      0.00
   -3    6   15      3.82      0.00
   -2    6   15      3.58      0.00
   -1    6   15     -1.07      0.00
    0    6   15     -0.87      0.00
    1    6   15     -3.14      0.00
    2    6   15      1.12      0.00
    3    6   15      1.75      0.00
    4    6   15     -0.46      0.00
    5    6   15     -0.74      0.00
    6    6   15     -0.04      0.00
    7    6   15     -2.98      0.00
   -9    7   15     -2.42      0.00
   -8    7   15     -3.08      0.00
   -6    7   15     -1.19      0.00
   -5    7   15     -2.76      0.00
   -4    7   15     -2.48      0.00
   -3    7   15     -2.87      0.00
   -2    7   15     -4.84      0.00
   -1    7   15      0.44      0.00
    0    7   15      1.16      0.00
    1    7   15     -0.14      0.00
    2    7   15     -0.03      0.00
    3    7   15     -2.82      0.00
    4    7   15     -0.67      0.00
    5    7   15     -2.46      0.00
    6    7   15     -2.60      0.00
    7    7   15     -0.20      0.00
   -5    8   15      0.08      0.00
   -4    8   15      3.43      0.00
   -3    8   15      2.42      0.00
   -2    8   15      1.18      0.00
   -1    8   15      0.86      0.00
    0    8   15      2.81      0.00
    1    8   15     -2.86      0.00
    2    8   15      1.59      0.00
    3    8   15      4.72      0.00
    4    8   15      1.09      0.00
    5    8   15      3.81      0.00
    6    8   15      5.72      0.00
    7    8   15      4.10      0.00
   -4    9   15      0.15      0.00
   -3    9   15      1.03      0.00
   -2    9   15     -2.05      0.00
   -1    9   15     -1.78      0.00
    0    9   15      0.55      0.00
    1    9   15      2.38      0.00
    2    9   15     -3.05      0.00
    3    9   15     -2.76      0.00
    4    9   15     -1.48      0.00
    5    9   15     -3.78      0.00
   -2   10   15      1.57      0.00
   -1   10   15      0.72      0.00
    0   10   15     -0.85      0.00
    1   10   15     -4.07      0.00
    2   10   15      3.80      0.00
    3   10   15      2.20      0.00
    4   10   15     -0.17      0.00
   -2   11   15     -2.27      0.00
   -1   11   15      0.59      0.00
    0   11   15      1.47      0.00
    1   11   15      1.63      0.00
    2   11   15     -3.34      0.00
    3  -10   16     -0.94      0.00
    4  -10   16     -1.97      0.00
    0   -9   16     -2.08      0.00
    1   -9   16     -1.72      0.00
    2   -9   16      0.10      0.00
    3   -9   16      0.36      0.00
    4   -9   16      2.42      0.00
    5   -9   16      3.95      0.00
   -3   -8   16      2.53      0.00
   -2   -8   16     -1.07      0.00
   -1   -8   16     -0.10      0.00
    0   -8   16      4.09      0.00
    1   -8   16     -2.07      0.00
    2   -8   16      2.14      0.00
    3   -8   16      1.60      0.00
    4   -8   16     -2.78      0.00
    5   -8   16     -3.21      0.00
   -6   -7   16     -1.04      0.00
   -5   -7   16     -4.45      0.00
   -4   -7   16     -2.95      0.00
   -3   -7   16     -2.12      0.00
   -2   -7   16      2.79      0.00
   -1   -7   16     -5.28      0.00
    0   -7   16      1.72      0.00
    1   -7   16     -1.23      0.00
    2   -7   16     -1.97      0.00
    3   -7   16     -0.73      0.00
    4   -7   16      1.05      0.00
    5   -7   16      0.37      0.00
    6   -7   16     -4.71      0.00
   -8   -6   16      9.36      0.00
   -7   -6   16      6.03      0.00
   -6   -6   16      3.18      0.00
   -5   -6   16      1.74      0.00
   -4   -6   16      1.27      0.00
   -3   -6   16     -2.50      0.00
   -2   -6   16      2.50      0.00
   -1   -6   16      3.08      0.00
    0   -6   16      1.32      0.00
    1   -6   16     -0.06      0.00
    2   -6   16      1.38      0.00
    3   -6   16      0.91      0.00
    4   -6   16     -1.89      0.00
    5   -6   16      3.63      0.00
    6   -6   16      6.36      0.00
    7   -6   16      5.43      0.00
   -9   -5   16     -5.50      0.00
   -8   -5   16     -7.50      0.00
   -7   -5   16     -4.49      0.00
   -6   -5   16     -1.26      0.00
   -5   -5   16     -1.71      0.00
   -4   -5   16      3.58      0.00
   -3   -5   16     -0.52      0.00
   -2   -5   16     -1.89      0.00
   -1   -5   16     -4.44      0.00
    0   -5   16     -0.69      0.00
    1   -5   16      0.33      0.00
    2   -5   16     -0.58      0.00
    3   -5   16      1.27      0.00
    4   -5   16      2.62      0.00
    5   -5   16     -3.22      0.00
    6   -5   16    -10.23      0.00
    7   -5   16      1.67      0.00
    8   -5   16     -4.21      0.00
    9   -5   16     -0.55      0.00
  -10   -4   16     -0.37      0.00
   -9   -4   16      4.93      0.00
   -8   -4   16      0.65      0.00
   -7   -4   16      1.78      0.00
   -6   -4   16     -0.69      0.00
   -5   -4   16     -0.11      0.00
   -4   -4   16     -1.70      0.00
   -3   -4   16     -0.98      0.00
   -2   -4   16      3.55      0.00
   -1   -4   16      1.12      0.00
    0   -4   16     -0.31      0.00
    1   -4   16     -0.59      0.00
    2   -4   16     -1.12      0.00
    3   -4   16     -2.93      0.00
    4   -4   16     -4.71      0.00
    5   -4   16      5.33      0.00
    6   -4   16     -0.06      0.00
    7   -4   16      4.81      0.00
    8   -4   16      0.48      0.00
    9   -4   16      0.37      0.00
  -10   -3   16     -2.34      0.00
   -9   -3   16      2.63      0.00
   -8   -3   16      1.43      0.00
   -7   -3   16      2.08      0.00
   -6   -3   16      0.24      0.00
   -5   -3   16      0.74      0.00
   -4   -3   16      0.75      0.00
   -3   -3   16      1.18      0.00
   -2   -3   16     -1.54      0.00
   -1   -3   16      1.88      0.00
    0   -3   16     -0.66      0.00
    1   -3   16      3.50      0.00
    2   -3   16     -1.06      0.00
    3   -3   16      3.39      0.00
    4   -3   16      2.81      0.00
    5   -3   16      1.56      0.00
    6   -3   16     -2.78      0.00
    7   -3   16     -0.38      0.00
    8   -3   16     -2.01      0.00
    9   -3   16     -1.17      0.00
  -10   -2   16     -1.85      0.00
   -9   -2   16     -3.51      0.00
   -8   -2   16     -3.41      0.00
   -7   -2   16     -0.25      0.00
   -6   -2   16     -0.29      0.00
   -5   -2   16      1.07      0.00
   -4   -2   16     -2.50      0.00
   -3   -2   16     -0.91      0.00
   -2   -2   16     -0.21      0.00
   -1   -2   16      0.13      0.00
    0   -2   16     -2.46      0.00
    1   -2   16      1.17      0.00
    2   -2   16      2.28      0.00
    3   -2   16     -0.57      0.00
    4   -2   16     -0.39      0.00
    5   -2   16     -2.98      0.00
    6   -2   16      1.58      0.00
    7   -2   16      1.67      0.00
    8   -2   16      0.15      0.00
    9   -2   16      2.90      0.00
   10   -2   16      1.10      0.00
  -10   -1   16      1.64      0.00
   -9   -1   16      4.22      0.00
   -8   -1   16     -1.12      0.00
   -7   -1   16      0.71      0.00
   -6   -1   16     -3.86      0.00
   -5   -1   16      1.21      0.00
   -4   -1   16      1.85      0.00
   -3   -1   16      1.22      0.00
   -2   -1   16     -2.27      0.00
   -1   -1   16      0.49      0.00
    0   -1   16     -1.30      0.00
    1   -1   16     -1.38      0.00
    2   -1   16     -4.70      0.00
    4   -1   16      4.13      0.00
    5   -1   16     -0.75      0.00
    6   -1   16     -1.37      0.00
    7   -1   16      0.50      0.00
    8   -1   16      0.48      0.00
    9   -1   16     -0.95      0.00
   10   -1   16     -2.17      0.00
  -10    0   16     -1.36      0.00
   -9    0   16      0.57      0.00
   -8    0   16      0.65      0.00
   -7    0   16      3.07      0.00
   -6    0   16      1.83      0.00
   -5    0   16     -0.90      0.00
   -4    0   16     -1.05      0.00
   -3    0   16      0.84      0.00
   -2    0   16      0.98      0.00
   -1    0   16      4.22      0.00
    0    0   16     -1.51      0.00
    1    0   16      2.40      0.00
    2    0   16      8.86      0.00
    3    0   16      1.21      0.00
    4    0   16      0.94      0.00
    5    0   16     -1.06      0.00
    6    0   16      0.69      0.00
    7    0   16     -2.56      0.00
    8    0   16     -2.12      0.00
    9    0   16     -0.60      0.00
   10    0   16     -1.25      0.00
   -9    1   16     -1.77      0.00
   -8    1   16     -3.07      0.00
   -7    1   16      0.47      0.00
   -6    1   16     -1.02      0.00
   -5    1   16     -1.51      0.00
   -4    1   16      1.78      0.00
   -3    1   16     -1.20      0.00
   -2    1   16     -3.49      0.00
   -1    1   16     -1.04      0.00
    0    1   16     -0.09      0.00
    1    1   16     -2.11      0.00
    2    1   16     -3.49      0.00
    3    1   16     -3.41      0.00
    4    1   16      2.30      0.00
    5    1   16      0.33      0.00
    6    1   16      1.52      0.00
    7    1   16      1.09      0.00
    8    1   16      3.76      0.00
    9    1   16      2.48      0.00
   10    1   16      1.00      0.00
   -9    2   16      3.43      0.00
   -8    2   16      0.63      0.00
   -7    2   16     -1.25      0.00
   -6    2   16      1.57      0.00
   -5    2   16     -0.67      0.00
   -4    2   16      0.70      0.00
   -3    2   16      1.00      0.00
   -2    2   16      1.32      0.00
   -1    2   16      3.43      0.00
    0    2   16      0.08      0.00
    1    2   16      0.18      0.00
    2    2   16      3.65      0.00
    3    2   16     -0.57      0.00
    4    2   16     -0.88      0.00
    5    2   16     -0.30      0.00
    6    2   16     -1.29      0.00
    7    2   16     -0.38      0.00
    8    2   16     -0.38      0.00
    9    2   16     -2.76      0.00
   -9    3   16     -2.80      0.00
   -8    3   16     -0.47      0.00
   -7    3   16      0.83      0.00
   -6    3   16     -0.10      0.00
   -5    3   16      0.04      0.00
   -4    3   16     -0.05      0.00
   -3    3   16     -0.07      0.00
   -2    3   16     -2.56      0.00
   -1    3   16     -3.78      0.00
    0    3   16     -2.36      0.00
    1    3   16     -0.92      0.00
    2    3   16     -1.61      0.00
    3    3   16      0.30      0.00
    4    3   16     -1.29      0.00
    5    3   16      1.87      0.00
    6    3   16     -0.48      0.00
    7    3   16     -2.22      0.00
  -10    4   16      2.10      0.00
   -9    4   16      1.71      0.00
   -8    4   16      1.89      0.00
   -7    4   16     -0.94      0.00
   -6    4   16      0.04      0.00
   -5    4   16     -2.45      0.00
   -4    4   16      1.66      0.00
   -3    4   16     -1.39      0.00
   -2    4   16      3.36      0.00
   -1    4   16      3.47      0.00
    0    4   16      3.76      0.00
    1    4   16      1.20      0.00
    2    4   16      0.13      0.00
    3    4   16      1.16      0.00
    4    4   16      0.48      0.00
    5    4   16     -0.70      0.00
    6    4   16     -0.40      0.00
    7    4   16      0.21      0.00
  -10    5   16     -1.18      0.00
   -9    5   16     -2.56      0.00
   -8    5   16     -1.83      0.00
   -7    5   16     -0.10      0.00
   -6    5   16      3.01      0.00
   -5    5   16      0.04      0.00
   -4    5   16     -1.16      0.00
   -3    5   16      1.97      0.00
   -2    5   16     -2.36      0.00
   -1    5   16     -1.59      0.00
    0    5   16     -1.94      0.00
    1    5   16     -0.18      0.00
    2    5   16      0.78      0.00
    3    5   16     -1.58      0.00
    4    5   16      0.58      0.00
    5    5   16      1.44      0.00
    6    5   16      0.44      0.00
    7    5   16      2.25      0.00
   -9    6   16      1.99      0.00
   -8    6   16      2.94      0.00
   -7    6   16     -1.81      0.00
   -6    6   16     -0.02      0.00
   -5    6   16      0.33      0.00
   -4    6   16      1.15      0.00
   -3    6   16      0.06      0.00
   -2    6   16     -1.91      0.00
   -1    6   16     -1.91      0.00
    0    6   16      1.54      0.00
    1    6   16     -2.45      0.00
    2    6   16      0.16      0.00
    3    6   16      0.19      0.00
    4    6   16     -1.09      0.00
    5    6   16     -0.14      0.00
    6    6   16      0.06      0.00
    7    6   16     -2.70      0.00
   -9    7   16     -2.65      0.00
   -8    7   16     -1.78      0.00
   -6    7   16      0.08      0.00
   -5    7   16     -4.34      0.00
   -4    7   16     -1.34      0.00
   -3    7   16      2.05      0.00
   -2    7   16      2.64      0.00
   -1    7   16      2.22      0.00
    0    7   16      1.09      0.00
    1    7   16     -0.41      0.00
    2    7   16      0.42      0.00
    3    7   16      0.83      0.00
    4    7   16      0.64      0.00
    5    7   16     -2.52      0.00
    6    7   16     -1.37      0.00
    7    7   16      0.73      0.00
   -5    8   16      1.76      0.00
   -4    8   16      1.11      0.00
   -3    8   16     -0.64      0.00
   -2    8   16     -5.03      0.00
   -1    8   16     -0.49      0.00
    0    8   16      3.22      0.00
    1    8   16     -1.96      0.00
    2    8   16      0.76      0.00
    3    8   16     -0.35      0.00
    4    8   16     -0.18      0.00
    5    8   16      2.08      0.00
    6    8   16      3.46      0.00
   -3    9   16      2.72      0.00
   -2    9   16      0.77      0.00
   -1    9   16     -2.87      0.00
    0    9   16      0.56      0.00
    1    9   16      0.25      0.00
    2    9   16     -1.72      0.00
    3    9   16      1.76      0.00
    4    9   16      0.42      0.00
    5    9   16     -2.15      0.00
   -1   10   16      1.96      0.00
    0   10   16     -1.73      0.00
    1   10   16     -1.67      0.00
    2   10   16      1.40      0.00
    3   10   16     -1.04      0.00
   -1   11   16     -0.05      0.00
    0   11   16      4.03      0.00
    3  -10   17     -0.97      0.00
    2   -9   17      1.47      0.00
    3   -9   17      1.47      0.00
    4   -9   17      3.15      0.00
    5   -9   17      1.63      0.00
   -1   -8   17     -2.93      0.00
    0   -8   17      1.91      0.00
    1   -8   17     -1.91      0.00
    2   -8   17      1.53      0.00
    3   -8   17      0.23      0.00
    4   -8   17     -5.09      0.00
    5   -8   17     -1.03      0.00
    6   -8   17      1.61      0.00
   -5   -7   17     -2.98      0.00
   -4   -7   17     -0.63      0.00
   -3   -7   17     -0.89      0.00
   -2   -7   17      4.79      0.00
   -1   -7   17     -2.75      0.00
    0   -7   17      3.28      0.00
    1   -7   17     -2.28      0.00
    2   -7   17     -2.61      0.00
    3   -7   17      1.42      0.00
    4   -7   17      2.84      0.00
    5   -7   17      0.11      0.00
    6   -7   17     -5.78      0.00
    7   -7   17      0.10      0.00
   -7   -6   17      3.98      0.00
   -6   -6   17      0.06      0.00
   -5   -6   17     -2.65      0.00
   -4   -6   17     -0.29      0.00
   -3   -6   17     -5.10      0.00
   -2   -6   17      1.49      0.00
   -1   -6   17     -1.66      0.00
    0   -6   17      0.50      0.00
    1   -6   17      0.26      0.00
    2   -6   17      1.22      0.00
    3   -6   17      0.00      0.00
    4   -6   17     -3.01      0.00
    5   -6   17      4.16      0.00
    6   -6   17      5.74      0.00
    7   -6   17      3.86      0.00
    8   -6   17     -0.92      0.00
   -9   -5   17     -5.78      0.00
   -8   -5   17     -7.90      0.00
   -7   -5   17     -2.03      0.00
   -6   -5   17      2.45      0.00
   -5   -5   17      4.83      0.00
   -4   -5   17      4.15      0.00
   -3   -5   17      1.69      0.00
   -2   -5   17      0.24      0.00
   -1   -5   17     -0.56      0.00
    0   -5   17      1.52      0.00
    1   -5   17      1.17      0.00
    2   -5   17     -0.90      0.00
    3   -5   17      1.75      0.00
    4   -5   17      1.68      0.00
    5   -5   17     -4.16      0.00
    6   -5   17     -9.64      0.00
    7   -5   17      1.95      0.00
    8   -5   17     -5.10      0.00
    9   -5   17      1.39      0.00
   -9   -4   17      5.02      0.00
   -8   -4   17      1.70      0.00
   -7   -4   17      1.26      0.00
   -6   -4   17     -4.95      0.00
   -5   -4   17     -6.04      0.00
   -4   -4   17     -2.35      0.00
   -3   -4   17     -3.13      0.00
   -2   -4   17      1.70      0.00
   -1   -4   17     -1.46      0.00
    0   -4   17     -3.41      0.00
    1   -4   17     -0.46      0.00
    2   -4   17     -1.02      0.00
    3   -4   17     -3.03      0.00
    4   -4   17     -2.15      0.00
    5   -4   17      6.85      0.00
    6   -4   17     -0.56      0.00
    7   -4   17      5.02      0.00
    8   -4   17     -0.25      0.00
    9   -4   17     -1.90      0.00
  -10   -3   17     -2.44      0.00
   -9   -3   17      3.72      0.00
   -8   -3   17     -2.54      0.00
   -7   -3   17      0.88      0.00
   -6   -3   17      2.31      0.00
   -5   -3   17      4.77      0.00
   -4   -3   17      2.35      0.00
   -3   -3   17      2.41      0.00
   -2   -3   17      0.37      0.00
   -1   -3   17      2.21      0.00
    0   -3   17      1.78      0.00
    1   -3   17      2.38      0.00
    2   -3   17      0.00      0.00
    3   -3   17      3.55      0.00
    4   -3   17      0.09      0.00
    5   -3   17      0.68      0.00
    6   -3   17     -2.32      0.00
    7   -3   17      0.17      0.00
    8   -3   17      1.83      0.00
  -10   -2   17     -3.29      0.00
   -9   -2   17     -2.24      0.00
   -8   -2   17      2.24      0.00
   -7   -2   17      3.44      0.00
   -6   -2   17      0.67      0.00
   -5   -2   17     -0.06      0.00
   -4   -2   17     -3.76      0.00
   -3   -2   17     -1.22      0.00
   -2   -2   17     -1.26      0.00
   -1   -2   17      1.54      0.00
    0   -2   17     -3.41      0.00
    1   -2   17      1.92      0.00
    2   -2   17     -0.46      0.00
    3   -2   17     -1.69      0.00
    4   -2   17      0.31      0.00
    5   -2   17     -1.56      0.00
    6   -2   17     -0.01      0.00
    7   -2   17     -1.09      0.00
    8   -2   17     -3.85      0.00
    9   -2   17      1.50      0.00
   10   -2   17      0.27      0.00
  -10   -1   17      2.02      0.00
   -9   -1   17      0.59      0.00
   -8   -1   17     -5.90      0.00
   -7   -1   17     -3.73      0.00
   -6   -1   17     -5.75      0.00
   -5   -1   17     -0.56      0.00
   -4   -1   17      1.80      0.00
   -3   -1   17     -0.22      0.00
   -2   -1   17     -2.06      0.00
   -1   -1   17     -2.01      0.00
    0   -1   17     -1.89      0.00
    1   -1   17     -0.96      0.00
    2   -1   17     -0.57      0.00
    4   -1   17      3.23      0.00
    5   -1   17     -1.31      0.00
    6   -1   17      0.70      0.00
    7   -1   17      4.25      0.00
    8   -1   17      2.70      0.00
    9   -1   17     -0.67      0.00
   10   -1   17     -1.65      0.00
   -9    0   17      3.79      0.00
   -8    0   17      2.54      0.00
   -7    0   17      4.23      0.00
   -6    0   17      3.19      0.00
   -5    0   17     -0.37      0.00
   -4    0   17      1.44      0.00
   -3    0   17      2.24      0.00
   -2    0   17      2.47      0.00
   -1    0   17      6.41      0.00
    0    0   17      0.30      0.00
    1    0   17      1.07      0.00
    2    0   17      4.18      0.00
    3    0   17     -1.92      0.00
    4    0   17      1.09      0.00
    5    0   17      0.48      0.00
    6    0   17     -2.14      0.00
    7    0   17     -6.07      0.00
    8    0   17     -1.69      0.00
    9    0   17      1.11      0.00
   10    0   17     -0.31      0.00
   -9    1   17     -3.82      0.00
   -8    1   17     -1.30      0.00
   -7    1   17      0.81      0.00
   -6    1   17      1.54      0.00
   -5    1   17     -0.43      0.00
   -4    1   17     -0.73      0.00
   -3    1   17     -1.72      0.00
   -2    1   17     -5.40      0.00
   -1    1   17     -2.57      0.00
    0    1   17     -1.40      0.00
    1    1   17     -1.13      0.00
    2    1   17      0.62      0.00
    3    1   17     -0.93      0.00
    4    1   17      1.12      0.00
    5    1   17     -0.84      0.00
    6    1   17      4.43      0.00
    7    1   17      3.95      0.00
    8    1   17      2.13      0.00
    9    1   17     -0.44      0.00
   -9    2   17      3.55      0.00
   -8    2   17     -0.68      0.00
   -7    2   17     -1.52      0.00
   -6    2   17     -1.71      0.00
   -5    2   17     -2.74      0.00
   -4    2   17      2.18      0.00
   -3    2   17      0.70      0.00
   -2    2   17      2.58      0.00
   -1    2   17      3.29      0.00
    0    2   17      0.44      0.00
    1    2   17     -0.64      0.00
    2    2   17      0.41      0.00
    3    2   17     -1.36      0.00
    4    2   17     -0.19      0.00
    5    2   17      0.33      0.00
    6    2   17     -2.41      0.00
    7    2   17     -4.03      0.00
    8    2   17      0.97      0.00
    9    2   17      0.26      0.00
   -8    3   17     -1.31      0.00
   -7    3   17     -2.04      0.00
   -6    3   17      2.05      0.00
   -5    3   17     -0.20      0.00
   -4    3   17     -1.64      0.00
   -3    3   17      0.43      0.00
   -2    3   17     -2.65      0.00
   -1    3   17     -3.58      0.00
    0    3   17     -1.03      0.00
    1    3   17     -0.86      0.00
    2    3   17      0.60      0.00
    3    3   17      0.60      0.00
    4    3   17     -0.42      0.00
    5    3   17     -0.07      0.00
    6    3   17      1.17      0.00
    7    3   17     -0.32      0.00
    8    3   17      0.19      0.00
    9    3   17     -1.71      0.00
  -10    4   17     -0.08      0.00
   -9    4   17      1.72      0.00
   -8    4   17      4.50      0.00
   -7    4   17      3.48      0.00
   -6    4   17      0.32      0.00
   -5    4   17      1.75      0.00
   -4    4   17      2.58      0.00
   -3    4   17      0.33      0.00
   -2    4   17      3.01      0.00
   -1    4   17      3.93      0.00
    0    4   17      3.48      0.00
    1    4   17      2.06      0.00
    2    4   17     -0.91      0.00
    3    4   17      0.62      0.00
    4    4   17     -0.45      0.00
    5    4   17     -0.56      0.00
    6    4   17     -0.40      0.00
    7    4   17     -0.71      0.00
    8    4   17      1.50      0.00
   -9    5   17     -2.16      0.00
   -8    5   17     -3.50      0.00
   -7    5   17     -4.10      0.00
   -6    5   17      1.97      0.00
   -5    5   17     -5.31      0.00
   -4    5   17     -2.99      0.00
   -3    5   17     -0.54      0.00
   -2    5   17     -2.05      0.00
   -1    5   17     -5.49      0.00
    0    5   17     -2.27      0.00
    1    5   17     -2.54      0.00
    2    5   17     -0.02      0.00
    3    5   17     -0.91      0.00
    4    5   17      1.29      0.00
    5    5   17      1.98      0.00
    6    5   17      1.45      0.00
    7    5   17      1.98      0.00
   -9    6   17      0.48      0.00
   -8    6   17      2.92      0.00
   -7    6   17     -0.87      0.00
   -6    6   17      0.69      0.00
   -5    6   17      4.59      0.00
   -4    6   17      1.92      0.00
   -3    6   17      2.96      0.00
   -2    6   17     -0.72      0.00
   -1    6   17      2.22      0.00
    0    6   17      3.26      0.00
    1    6   17      0.14      0.00
    2    6   17      0.37      0.00
    3    6   17      1.21      0.00
    4    6   17     -1.01      0.00
    5    6   17     -1.41      0.00
    6    6   17     -1.13      0.00
    7    6   17     -3.12      0.00
   -8    7   17     -0.20      0.00
   -5    7   17     -5.86      0.00
   -4    7   17     -2.46      0.00
   -3    7   17      0.85      0.00
   -2    7   17      0.70      0.00
   -1    7   17     -2.40      0.00
    0    7   17      0.77      0.00
    1    7   17     -0.53      0.00
    2    7   17      0.78      0.00
    3    7   17     -0.06      0.00
    4    7   17     -0.08      0.00
    5    7   17     -2.63      0.00
    6    7   17      0.08      0.00
   -4    8   17      0.40      0.00
   -3    8   17      0.38      0.00
   -2    8   17     -2.80      0.00
   -1    8   17      2.74      0.00
    0    8   17      2.31      0.00
    1    8   17     -3.29      0.00
    2    8   17     -2.09      0.00
    3    8   17      0.06      0.00
    4    8   17      1.07      0.00
    5    8   17      2.69      0.00
    6    8   17      2.32      0.00
   -2    9   17     -1.03      0.00
   -1    9   17     -5.44      0.00
    0    9   17      1.65      0.00
    1    9   17      1.44      0.00
    2    9   17      1.84      0.00
    3    9   17      0.66      0.00
    4    9   17      0.21      0.00
   -1   10   17      3.00      0.00
    0   10   17     -1.32      0.00
    1   10   17     -1.68      0.00
    2   10   17     -0.49      0.00
    2  -10   18     -1.62      0.00
    3  -10   18      0.28      0.00
    2   -9   18      0.94      0.00
    3   -9   18      0.37      0.00
    5   -9   18      1.25      0.00
    1   -8   18     -4.15      0.00
    2   -8   18     -0.52      0.00
    3   -8   18      0.33      0.00
    4   -8   18     -1.99      0.00
    5   -8   18      0.14      0.00
    6   -8   18      1.14      0.00
   -3   -7   18      0.01      0.00
   -2   -7   18      4.87      0.00
   -1   -7   18     -0.23      0.00
    0   -7   18      4.44      0.00
    1   -7   18     -0.01      0.00
    2   -7   18      0.22      0.00
    3   -7   18      3.12      0.00
    4   -7   18      0.48      0.00
    5   -7   18      0.24      0.00
    6   -7   18     -4.59      0.00
    7   -7   18      2.94      0.00
   -6   -6   18     -0.76      0.00
   -5   -6   18     -4.20      0.00
   -4   -6   18      0.22      0.00
   -3   -6   18     -6.17      0.00
   -2   -6   18      0.36      0.00
   -1   -6   18     -3.57      0.00
    0   -6   18      0.41      0.00
    1   -6   18     -0.16      0.00
    2   -6   18     -1.62      0.00
    3   -6   18     -1.07      0.00
    4   -6   18     -1.90      0.00
    6   -6   18      2.19      0.00
    7   -6   18      1.04      0.00
    8   -6   18     -1.90      0.00
   -8   -5   18     -6.34      0.00
   -7   -5   18     -1.32      0.00
   -6   -5   18      2.45      0.00
   -5   -5   18      6.06      0.00
   -4   -5   18      5.10      0.00
   -3   -5   18      3.58      0.00
   -2   -5   18      3.71      0.00
   -1   -5   18      0.20      0.00
    0   -5   18      0.91      0.00
    1   -5   18      0.80      0.00
    2   -5   18     -0.34      0.00
    3   -5   18      1.46      0.00
    4   -5   18      0.45      0.00
    5   -5   18     -3.18      0.00
    7   -5   18      3.12      0.00
    8   -5   18     -1.53      0.00
   -9   -4   18      4.32      0.00
   -8   -4   18      2.02      0.00
   -7   -4   18      2.72      0.00
   -6   -4   18     -5.52      0.00
   -5   -4   18     -5.43      0.00
   -4   -4   18     -5.06      0.00
   -3   -4   18     -5.09      0.00
   -2   -4   18     -1.97      0.00
   -1   -4   18     -1.42      0.00
    0   -4   18     -2.64      0.00
    1   -4   18      0.98      0.00
    2   -4   18     -0.58      0.00
    3   -4   18     -2.37      0.00
    4   -4   18      0.63      0.00
    5   -4   18      5.91      0.00
    6   -4   18     -3.08      0.00
    8   -4   18     -3.26      0.00
   -9   -3   18      3.38      0.00
   -8   -3   18     -3.53      0.00
   -7   -3   18      0.67      0.00
   -6   -3   18      3.79      0.00
   -5   -3   18      4.40      0.00
   -4   -3   18      4.64      0.00
   -3   -3   18      2.60      0.00
   -2   -3   18      2.57      0.00
   -1   -3   18      2.08      0.00
    0   -3   18      0.10      0.00
    1   -3   18      0.97      0.00
    2   -3   18      1.27      0.00
    3   -3   18      2.33      0.00
    4   -3   18     -2.35      0.00
    5   -3   18      1.64      0.00
    6   -3   18     -1.16      0.00
    7   -3   18      0.83      0.00
  -10   -2   18     -5.56      0.00
   -9   -2   18     -0.55      0.00
   -8   -2   18      2.14      0.00
   -7   -2   18      1.51      0.00
   -6   -2   18     -2.55      0.00
   -5   -2   18     -1.28      0.00
   -4   -2   18     -4.32      0.00
   -3   -2   18     -0.70      0.00
   -2   -2   18     -1.52      0.00
   -1   -2   18      0.15      0.00
    0   -2   18     -1.12      0.00
    1   -2   18      0.96      0.00
    3   -2   18     -1.19      0.00
    4   -2   18      0.56      0.00
    5   -2   18     -2.17      0.00
    6   -2   18     -1.33      0.00
    7   -2   18     -3.73      0.00
   -9   -1   18     -2.34      0.00
   -8   -1   18     -5.22      0.00
   -7   -1   18     -3.22      0.00
   -6   -1   18     -2.31      0.00
   -5   -1   18      0.84      0.00
   -4   -1   18      1.68      0.00
   -3   -1   18     -0.66      0.00
   -2   -1   18     -1.10      0.00
   -1   -1   18      0.48      0.00
    0   -1   18     -2.71      0.00
    1   -1   18      2.08      0.00
    2   -1   18      2.83      0.00
    4   -1   18      3.11      0.00
    5   -1   18      0.49      0.00
    6   -1   18      2.23      0.00
    7   -1   18      7.23      0.00
    8   -1   18      2.98      0.00
    9   -1   18      0.75      0.00
   -9    0   18      5.18      0.00
   -8    0   18      3.18      0.00
   -7    0   18      6.30      0.00
   -6    0   18      3.41      0.00
   -5    0   18     -0.78      0.00
   -4    0   18      2.42      0.00
   -3    0   18      1.38      0.00
   -2    0   18      1.52      0.00
   -1    0   18      3.80      0.00
    0    0   18     -0.23      0.00
    1    0   18     -2.70      0.00
    2    0   18      0.17      0.00
    3    0   18     -2.88      0.00
    4    0   18     -0.39      0.00
    5    0   18     -0.72      0.00
    6    0   18     -3.39      0.00
    7    0   18     -6.81      0.00
    8    0   18     -0.62      0.00
    9    0   18      0.44      0.00
   -9    1   18     -1.83      0.00
   -8    1   18     -1.03      0.00
   -7    1   18     -3.07      0.00
   -6    1   18      0.62      0.00
   -5    1   18     -1.85      0.00
   -4    1   18     -1.69      0.00
   -3    1   18     -1.14      0.00
   -2    1   18     -5.09      0.00
   -1    1   18     -1.99      0.00
    0    1   18     -0.23      0.00
    1    1   18      1.68      0.00
    2    1   18      2.80      0.00
    3    1   18      0.18      0.00
    4    1   18      2.02      0.00
    5    1   18      0.99      0.00
    6    1   18      4.77      0.00
    7    1   18      1.62      0.00
    8    1   18     -0.57      0.00
    9    1   18     -1.23      0.00
   -9    2   18     -1.17      0.00
   -8    2   18     -2.41      0.00
   -7    2   18     -1.16      0.00
   -6    2   18     -3.18      0.00
   -5    2   18     -1.31      0.00
   -4    2   18      1.12      0.00
   -3    2   18      1.57      0.00
   -2    2   18      2.78      0.00
   -1    2   18      3.44      0.00
    0    2   18     -1.23      0.00
    1    2   18     -1.79      0.00
    2    2   18      0.24      0.00
    3    2   18     -1.06      0.00
    4    2   18     -0.53      0.00
    5    2   18     -2.67      0.00
    6    2   18     -1.47      0.00
    7    2   18     -1.69      0.00
    8    2   18      4.15      0.00
   -9    3   18      1.16      0.00
   -8    3   18      0.64      0.00
   -7    3   18      1.35      0.00
   -6    3   18      6.20      0.00
   -5    3   18      0.11      0.00
   -4    3   18      0.42      0.00
   -3    3   18     -0.07      0.00
   -2    3   18     -1.77      0.00
   -1    3   18     -2.57      0.00
    0    3   18      2.44      0.00
    1    3   18      0.24      0.00
    2    3   18     -0.53      0.00
    3    3   18     -0.58      0.00
    4    3   18     -0.26      0.00
    5    3   18      0.91      0.00
    6    3   18      2.14      0.00
    7    3   18     -1.81      0.00
    8    3   18     -2.25      0.00
   -9    4   18      0.70      0.00
   -8    4   18      4.34      0.00
   -7    4   18     -1.01      0.00
   -6    4   18     -2.35      0.00
   -5    4   18      1.85      0.00
   -4    4   18     -0.48      0.00
   -3    4   18      0.55      0.00
   -2    4   18      2.13      0.00
   -1    4   18      0.42      0.00
    0    4   18      0.03      0.00
    1    4   18     -0.37      0.00
    2    4   18     -0.64      0.00
    3    4   18      0.78      0.00
    4    4   18      1.35      0.00
    5    4   18     -1.33      0.00
    6    4   18     -0.80      0.00
    7    4   18      0.01      0.00
   -9    5   18     -2.82      0.00
   -8    5   18     -4.23      0.00
   -7    5   18     -1.62      0.00
   -6    5   18      0.65      0.00
   -5    5   18     -5.57      0.00
   -4    5   18     -1.90      0.00
   -3    5   18     -0.62      0.00
   -2    5   18     -2.49      0.00
   -1    5   18     -5.08      0.00
    0    5   18     -0.66      0.00
    1    5   18     -0.01      0.00
    2    5   18      0.60      0.00
    3    5   18      0.19      0.00
    4    5   18     -0.06      0.00
    5    5   18      1.70      0.00
    6    5   18      1.60      0.00
    7    5   18      0.44      0.00
   -8    6   18      3.60      0.00
   -7    6   18     -2.58      0.00
   -6    6   18      4.47      0.00
   -5    6   18      4.96      0.00
   -4    6   18      1.24      0.00
   -3    6   18      3.18      0.00
   -2    6   18      4.17      0.00
   -1    6   18      4.57      0.00
    0    6   18      6.48      0.00
    1    6   18     -0.03      0.00
    2    6   18     -0.88      0.00
    3    6   18      0.89      0.00
    4    6   18     -0.92      0.00
    5    6   18     -1.63      0.00
    6    6   18     -1.63      0.00
   -5    7   18     -4.51      0.00
   -4    7   18     -2.92      0.00
   -3    7   18      1.29      0.00
   -2    7   18     -4.78      0.00
   -1    7   18     -6.94      0.00
    0    7   18     -4.10      0.00
    1    7   18     -0.76      0.00
    2    7   18     -0.54      0.00
    3    7   18     -0.30      0.00
    4    7   18     -0.17      0.00
    5    7   18     -1.80      0.00
    6    7   18      1.43      0.00
   -4    8   18     -0.22      0.00
   -3    8   18      0.43      0.00
   -2    8   18      0.84      0.00
   -1    8   18      4.29      0.00
    0    8   18      4.61      0.00
    1    8   18     -3.58      0.00
    2    8   18     -0.81      0.00
    3    8   18      0.63      0.00
    4    8   18      2.73      0.00
    5    8   18      1.86      0.00
   -2    9   18     -1.96      0.00
   -1    9   18     -4.02      0.00
    0    9   18      2.15      0.00
    1    9   18      3.59      0.00
    2    9   18      1.66      0.00
    3    9   18      0.65      0.00
   -1   10   18      0.57      0.00
    0   10   18     -1.43      0.00
    1   10   18     -3.64      0.00
    2   -9   19     -0.78      0.00
    3   -9   19     -0.18      0.00
    2   -8   19     -0.83      0.00
    3   -8   19      1.63      0.00
    6   -8   19      1.91      0.00
   -1   -7   19     -1.84      0.00
    0   -7   19      3.18      0.00
    1   -7   19      1.60      0.00
    2   -7   19      0.73      0.00
    3   -7   19      0.98      0.00
    4   -7   19     -1.67      0.00
    5   -7   19     -2.18      0.00
    6   -7   19     -5.26      0.00
   -4   -6   19      0.99      0.00
   -3   -6   19     -3.80      0.00
   -2   -6   19     -0.55      0.00
   -1   -6   19     -1.47      0.00
    0   -6   19      1.05      0.00
    1   -6   19     -1.27      0.00
    2   -6   19     -1.52      0.00
    3   -6   19      1.52      0.00
    4   -6   19     -0.14      0.00
    6   -6   19      1.05      0.00
    7   -6   19      1.84      0.00
   -6   -5   19     -0.12      0.00
   -5   -5   19      0.43      0.00
   -4   -5   19      2.83      0.00
   -3   -5   19      1.31      0.00
   -2   -5   19      4.01      0.00
   -1   -5   19     -1.40      0.00
    0   -5   19     -1.17      0.00
    1   -5   19      0.93      0.00
    2   -5   19     -2.65      0.00
    3   -5   19     -1.68      0.00
    4   -5   19     -0.03      0.00
    5   -5   19     -2.24      0.00
    7   -5   19      3.35      0.00
   -8   -4   19      3.14      0.00
   -7   -4   19      4.81      0.00
   -6   -4   19     -4.26      0.00
   -5   -4   19     -1.40      0.00
   -4   -4   19     -3.77      0.00
   -3   -4   19     -2.82      0.00
   -2   -4   19     -0.46      0.00
   -1   -4   19      0.20      0.00
    0   -4   19     -0.38      0.00
    1   -4   19      1.81      0.00
    2   -4   19      3.50      0.00
    3   -4   19      0.36      0.00
    4   -4   19      1.87      0.00
    5   -4   19      2.75      0.00
    6   -4   19     -5.49      0.00
   -9   -3   19      2.05      0.00
   -8   -3   19     -5.17      0.00
   -7   -3   19     -0.65      0.00
   -6   -3   19      3.68      0.00
   -5   -3   19      4.59      0.00
   -4   -3   19      4.13      0.00
   -3   -3   19      0.24      0.00
   -2   -3   19     -0.38      0.00
   -1   -3   19      0.64      0.00
    0   -3   19     -1.11      0.00
    1   -3   19      0.39      0.00
    2   -3   19     -0.90      0.00
    3   -3   19     -1.58      0.00
    4   -3   19     -3.15      0.00
    5   -3   19      3.94      0.00
    6   -3   19     -1.56      0.00
   -9   -2   19     -0.74      0.00
   -8   -2   19      2.09      0.00
   -7   -2   19      0.70      0.00
   -6   -2   19     -3.25      0.00
   -5   -2   19     -3.53      0.00
   -4   -2   19     -3.51      0.00
   -3   -2   19      0.13      0.00
   -2   -2   19      1.49      0.00
   -1   -2   19      0.45      0.00
    0   -2   19     -0.89      0.00
    1   -2   19     -1.31      0.00
    2   -2   19     -1.24      0.00
    3   -2   19      2.12      0.00
    4   -2   19     -0.26      0.00
    5   -2   19     -2.63      0.00
    6   -2   19      1.52      0.00
   -9   -1   19      0.76      0.00
   -8   -1   19     -2.02      0.00
   -7   -1   19     -1.45      0.00
   -6   -1   19     -1.46      0.00
   -5   -1   19      2.02      0.00
   -4   -1   19      1.32      0.00
   -3   -1   19     -0.20      0.00
   -2   -1   19     -0.41      0.00
   -1   -1   19      0.66      0.00
    0   -1   19     -0.37      0.00
    1   -1   19      4.90      0.00
    2   -1   19      1.01      0.00
    4   -1   19      3.27      0.00
    5   -1   19      1.60      0.00
    6   -1   19     -0.55      0.00
    8   -1   19      1.00      0.00
    9   -1   19      0.89      0.00
   -9    0   19      0.31      0.00
   -8    0   19      0.78      0.00
   -7    0   19      4.52      0.00
   -6    0   19      3.83      0.00
   -5    0   19     -0.23      0.00
   -4    0   19      2.04      0.00
   -3    0   19     -0.56      0.00
   -2    0   19     -1.50      0.00
   -1    0   19      2.18      0.00
    0    0   19     -4.21      0.00
    1    0   19     -5.17      0.00
    2    0   19      1.56      0.00
    3    0   19     -0.75      0.00
    4    0   19     -0.49      0.00
    5    0   19     -1.10      0.00
    6    0   19     -2.26      0.00
    7    0   19     -3.51      0.00
    8    0   19      0.17      0.00
    9    0   19      0.14      0.00
   -9    1   19      1.53      0.00
   -8    1   19     -2.05      0.00
   -7    1   19     -3.23      0.00
   -6    1   19     -0.66      0.00
   -5    1   19     -2.67      0.00
   -4    1   19     -1.60      0.00
   -3    1   19     -0.05      0.00
   -2    1   19     -2.70      0.00
   -1    1   19     -0.22      0.00
    0    1   19      3.66      0.00
    1    1   19      4.10      0.00
    2    1   19      1.26      0.00
    3    1   19     -0.97      0.00
    4    1   19     -0.16      0.00
    5    1   19      0.29      0.00
    6    1   19      3.85      0.00
    7    1   19     -0.71      0.00
    8    1   19     -0.26      0.00
   -8    2   19      1.01      0.00
   -7    2   19     -0.96      0.00
   -6    2   19     -2.13      0.00
   -5    2   19     -0.56      0.00
   -4    2   19      0.95      0.00
   -3    2   19      3.42      0.00
   -2    2   19      3.48      0.00
   -1    2   19      1.99      0.00
    0    2   19     -2.76      0.00
    1    2   19     -2.59      0.00
    2    2   19      0.83      0.00
    3    2   19     -0.76      0.00
    4    2   19      2.31      0.00
    5    2   19     -0.96      0.00
    6    2   19      0.89      0.00
    7    2   19     -0.33      0.00
    8    2   19      3.30      0.00
   -9    3   19      1.43      0.00
   -8    3   19     -1.36      0.00
   -7    3   19      3.11      0.00
   -6    3   19      5.43      0.00
   -5    3   19      1.68      0.00
   -4    3   19     -0.78      0.00
   -3    3   19     -2.60      0.00
   -2    3   19     -3.06      0.00
   -1    3   19     -0.86      0.00
    0    3   19      1.12      0.00
    1    3   19     -1.26      0.00
    2    3   19     -1.26      0.00
    3    3   19     -0.39      0.00
    4    3   19     -1.19      0.00
    5    3   19     -2.79      0.00
    6    3   19      0.48      0.00
    7    3   19     -2.65      0.00
   -9    4   19      0.36      0.00
   -8    4   19      3.67      0.00
   -7    4   19     -4.07      0.00
   -6    4   19     -1.21      0.00
   -5    4   19     -0.37      0.00
   -4    4   19      0.35      0.00
   -3    4   19      1.25      0.00
   -2    4   19      1.62      0.00
   -1    4   19     -5.19      0.00
    0    4   19      2.60      0.00
    1    4   19      2.40      0.00
    2    4   19      0.75      0.00
    3    4   19      0.09      0.00
    4    4   19      2.64      0.00
    5    4   19      1.38      0.00
    6    4   19      0.22      0.00
    7    4   19      1.05      0.00
   -8    5   19     -2.45      0.00
   -7    5   19     -1.11      0.00
   -6    5   19     -2.43      0.00
   -5    5   19     -3.29      0.00
   -4    5   19     -3.86      0.00
   -3    5   19     -1.01      0.00
   -2    5   19      2.01      0.00
   -1    5   19      1.69      0.00
    0    5   19     -0.75      0.00
    1    5   19     -1.65      0.00
    2    5   19     -1.14      0.00
    3    5   19      0.03      0.00
    4    5   19     -1.25      0.00
    5    5   19     -0.30      0.00
    6    5   19      0.73      0.00
   -8    6   19      2.91      0.00
   -7    6   19      0.16      0.00
   -6    6   19      8.45      0.00
   -5    6   19      4.93      0.00
   -4    6   19      4.62      0.00
   -3    6   19      5.70      0.00
   -2    6   19      2.30      0.00
   -1    6   19     -2.18      0.00
    0    6   19      4.93      0.00
    1    6   19      0.92      0.00
    2    6   19      0.38      0.00
    3    6   19      2.32      0.00
    4    6   19     -0.06      0.00
    5    6   19     -0.59      0.00
    6    6   19     -1.21      0.00
   -5    7   19     -4.29      0.00
   -4    7   19     -8.25      0.00
   -3    7   19     -5.31      0.00
   -2    7   19     -5.76      0.00
   -1    7   19     -4.73      0.00
    0    7   19     -2.63      0.00
    1    7   19     -1.22      0.00
    2    7   19     -4.46      0.00
    3    7   19     -1.76      0.00
    4    7   19     -0.75      0.00
    5    7   19     -0.82      0.00
   -3    8   19      8.29      0.00
   -2    8   19      4.15      0.00
   -1    8   19      4.04      0.00
    0    8   19      2.85      0.00
    1    8   19     -0.90      0.00
    2    8   19      4.05      0.00
    3    8   19      2.64      0.00
    4    8   19      2.88      0.00
   -1    9   19     -3.47      0.00
    0    9   19      4.60      0.00
    1    9   19      1.30      0.00
    2    9   19     -2.07      0.00
    1   -9   20     -1.54      0.00
    2   -9   20     -1.45      0.00
    3   -9   20      0.37      0.00
    1   -8   20     -1.62      0.00
    2   -8   20     -0.83      0.00
    3   -8   20      2.18      0.00
    1   -7   20      3.24      0.00
    2   -7   20     -0.46      0.00
    3   -7   20     -1.90      0.00
   -2   -6   20      4.58      0.00
   -1   -6   20      2.16      0.00
    0   -6   20     -0.23      0.00
    1   -6   20     -2.79      0.00
    2   -6   20      0.52      0.00
    3   -6   20      4.64      0.00
    4   -6   20      3.15      0.00
   -5   -5   20     -0.88      0.00
   -4   -5   20      0.58      0.00
   -3   -5   20     -1.01      0.00
   -2   -5   20     -2.20      0.00
   -1   -5   20     -4.76      0.00
    0   -5   20     -1.19      0.00
    1   -5   20      1.39      0.00
    2   -5   20     -3.97      0.00
    3   -5   20     -4.10      0.00
    4   -5   20     -2.50      0.00
    5   -5   20     -2.10      0.00
   -7   -4   20      5.91      0.00
   -6   -4   20      0.52      0.00
   -5   -4   20      0.75      0.00
   -4   -4   20     -1.71      0.00
   -3   -4   20     -2.44      0.00
   -2   -4   20      3.54      0.00
   -1   -4   20      3.19      0.00
    0   -4   20      0.18      0.00
    1   -4   20      2.25      0.00
    2   -4   20      4.55      0.00
    3   -4   20      0.65      0.00
    4   -4   20      3.60      0.00
    5   -4   20      0.12      0.00
   -8   -3   20     -4.91      0.00
   -7   -3   20     -1.93      0.00
   -6   -3   20     -2.24      0.00
   -5   -3   20      1.82      0.00
   -4   -3   20      0.99      0.00
   -3   -3   20     -0.21      0.00
   -2   -3   20     -1.16      0.00
   -1   -3   20     -1.08      0.00
    0   -3   20     -0.30      0.00
    1   -3   20     -1.34      0.00
    2   -3   20     -0.08      0.00
    3   -3   20     -2.74      0.00
    4   -3   20     -3.92      0.00
    5   -3   20      4.75      0.00
   -9   -2   20     -1.01      0.00
   -8   -2   20      1.73      0.00
   -7   -2   20      0.38      0.00
   -6   -2   20      0.51      0.00
   -5   -2   20     -0.78      0.00
   -4   -2   20      0.83      0.00
   -3   -2   20      0.82      0.00
   -2   -2   20      1.49      0.00
   -1   -2   20      0.27      0.00
    0   -2   20     -1.85      0.00
    1   -2   20     -0.97      0.00
    2   -2   20     -1.11      0.00
    3   -2   20      2.77      0.00
    4   -2   20      0.24      0.00
    5   -2   20      1.71      0.00
   -9   -1   20      1.79      0.00
   -8   -1   20     -0.64      0.00
   -7   -1   20      0.00      0.00
   -6   -1   20     -1.94      0.00
   -5   -1   20      1.15      0.00
   -4   -1   20     -0.67      0.00
   -3   -1   20     -1.12      0.00
   -2   -1   20      0.61      0.00
   -1   -1   20      0.76      0.00
    0   -1   20      1.12      0.00
    1   -1   20      3.34      0.00
    2   -1   20      0.65      0.00
    4   -1   20      1.94      0.00
    5   -1   20     -5.42      0.00
   -9    0   20     -1.15      0.00
   -8    0   20      0.18      0.00
   -7    0   20      3.64      0.00
   -6    0   20      2.84      0.00
   -5    0   20     -1.12      0.00
   -4    0   20      0.13      0.00
   -3    0   20     -1.99      0.00
   -2    0   20     -2.99      0.00
   -1    0   20      0.21      0.00
    0    0   20     -4.80      0.00
    1    0   20     -2.27      0.00
    2    0   20      0.93      0.00
    3    0   20     -4.02      0.00
    4    0   20     -1.69      0.00
    5    0   20      5.63      0.00
    7    0   20      0.35      0.00
    8    0   20      0.00      0.00
   -8    1   20     -2.51      0.00
   -7    1   20     -4.20      0.00
   -6    1   20     -1.65      0.00
   -5    1   20     -0.91      0.00
   -4    1   20      0.48      0.00
   -3    1   20      3.01      0.00
   -2    1   20      0.22      0.00
   -1    1   20      4.34      0.00
    0    1   20      4.31      0.00
    1    1   20      1.74      0.00
    2    1   20      1.72      0.00
    3    1   20      2.41      0.00
    4    1   20      2.09      0.00
    5    1   20     -2.90      0.00
    6    1   20      0.52      0.00
    7    1   20     -1.79      0.00
    8    1   20      1.18      0.00
   -8    2   20      0.77      0.00
   -7    2   20      0.81      0.00
   -6    2   20      0.00      0.00
   -5    2   20      0.41      0.00
   -4    2   20      1.11      0.00
   -3    2   20      2.13      0.00
   -2    2   20      0.74      0.00
   -1    2   20     -3.92      0.00
    0    2   20     -3.77      0.00
    1    2   20     -1.30      0.00
    2    2   20     -0.14      0.00
    3    2   20     -2.13      0.00
    4    2   20      0.09      0.00
    5    2   20     -0.52      0.00
    6    2   20      1.47      0.00
    7    2   20     -1.33      0.00
   -9    3   20      1.52      0.00
   -8    3   20      1.19      0.00
   -7    3   20      2.63      0.00
   -6    3   20      3.74      0.00
   -5    3   20      0.68      0.00
   -4    3   20     -4.18      0.00
   -3    3   20     -4.24      0.00
   -2    3   20     -0.58      0.00
   -1    3   20      1.96      0.00
    0    3   20      0.87      0.00
    1    3   20     -2.00      0.00
    2    3   20      0.26      0.00
    3    3   20     -0.97      0.00
    4    3   20      0.78      0.00
    5    3   20     -3.34      0.00
    6    3   20      1.15      0.00
    7    3   20     -0.68      0.00
   -8    4   20     -0.58      0.00
   -7    4   20     -5.02      0.00
   -6    4   20     -3.00      0.00
   -5    4   20     -1.00      0.00
   -4    4   20      2.59      0.00
   -3    4   20      2.29      0.00
   -2    4   20     -0.35      0.00
   -1    4   20     -5.10      0.00
    0    4   20      5.11      0.00
    1    4   20      3.35      0.00
    2    4   20     -0.89      0.00
    3    4   20     -0.06      0.00
    4    4   20      2.79      0.00
    5    4   20      2.11      0.00
    6    4   20     -0.12      0.00
   -8    5   20      1.50      0.00
   -7    5   20     -0.30      0.00
   -6    5   20      2.22      0.00
   -5    5   20      0.82      0.00
   -4    5   20     -2.52      0.00
   -3    5   20     -0.01      0.00
   -2    5   20      8.46      0.00
   -1    5   20     -0.45      0.00
    0    5   20     -2.18      0.00
    1    5   20     -1.85      0.00
    2    5   20      1.12      0.00
    3    5   20      0.60      0.00
    4    5   20     -1.94      0.00
    5    5   20     -1.08      0.00
    6    5   20     -0.80      0.00
   -7    6   20      0.86      0.00
   -5    6   20      0.66      0.00
   -4    6   20      1.25      0.00
   -3    6   20      1.01      0.00
   -2    6   20     -5.39      0.00
   -1    6   20     -3.18      0.00
    0    6   20      2.94      0.00
    1    6   20      0.36      0.00
    2    6   20     -2.88      0.00
    3    6   20      1.48      0.00
    4    6   20     -0.17      0.00
    5    6   20      0.20      0.00
   -4    7   20     -6.14      0.00
   -3    7   20     -1.43      0.00
   -2    7   20      2.91      0.00
   -1    7   20     -2.44      0.00
    0    7   20      1.05      0.00
    1    7   20     -0.07      0.00
    2    7   20     -2.62      0.00
    3    7   20     -0.47      0.00
    4    7   20      0.46      0.00
    5    7   20     -0.16      0.00
   -3    8   20      5.50      0.00
   -2    8   20     -1.09      0.00
   -1    8   20      1.58      0.00
    0    8   20      0.12      0.00
    1    8   20      1.64      0.00
    2    8   20      3.13      0.00
    3    8   20      2.02      0.00
    0    9   20      4.06      0.00
    1   -9   21     -1.32      0.00
    1   -8   21     -0.26      0.00
    2   -8   21     -1.59      0.00
    3   -8   21      1.07      0.00
    0   -7   21     -0.01      0.00
    1   -7   21      1.60      0.00
    2   -7   21     -1.80      0.00
    0   -6   21     -0.25      0.00
    1   -6   21     -0.29      0.00
    2   -6   21      2.56      0.00
   -3   -5   21     -3.59      0.00
   -2   -5   21     -3.87      0.00
   -1   -5   21     -3.67      0.00
    0   -5   21     -0.49      0.00
    1   -5   21     -0.59      0.00
    2   -5   21     -3.12      0.00
   -5   -4   21      1.22      0.00
   -4   -4   21      2.10      0.00
   -3   -4   21      1.23      0.00
   -2   -4   21      4.74      0.00
   -1   -4   21      2.65      0.00
    0   -4   21     -0.08      0.00
    1   -4   21      2.43      0.00
    2   -4   21      2.67      0.00
    3   -4   21     -1.14      0.00
   -7   -3   21     -0.96      0.00
   -6   -3   21     -2.35      0.00
   -5   -3   21      0.97      0.00
   -4   -3   21     -0.91      0.00
   -3   -3   21     -2.91      0.00
   -2   -3   21     -0.73      0.00
   -1   -3   21     -0.94      0.00
    0   -3   21      0.28      0.00
    1   -3   21     -2.21      0.00
    2   -3   21      1.73      0.00
    3   -3   21     -3.49      0.00
    4   -3   21     -2.23      0.00
   -8   -2   21      2.69      0.00
   -7   -2   21      2.85      0.00
   -6   -2   21      1.19      0.00
   -5   -2   21      1.29      0.00
   -4   -2   21      1.76      0.00
   -3   -2   21      0.42      0.00
   -2   -2   21      0.94      0.00
   -1   -2   21     -1.31      0.00
    0   -2   21     -1.28      0.00
    1   -2   21     -1.25      0.00
    2   -2   21      0.32      0.00
    3   -2   21      5.77      0.00
    4   -2   21     -0.04      0.00
   -8   -1   21     -2.05      0.00
   -7   -1   21     -2.98      0.00
   -6   -1   21     -2.59      0.00
   -5   -1   21     -1.43      0.00
   -4   -1   21     -1.06      0.00
   -3   -1   21     -0.81      0.00
   -2   -1   21      0.60      0.00
   -1   -1   21      1.38      0.00
    0   -1   21      0.64      0.00
    1   -1   21      2.93      0.00
    2   -1   21     -0.91      0.00
    3   -1   21     -3.20      0.00
    4   -1   21     -1.77      0.00
   -8    0   21     -0.18      0.00
   -7    0   21      4.05      0.00
   -6    0   21      0.48      0.00
   -5    0   21      0.45      0.00
   -4    0   21     -0.13      0.00
   -3    0   21     -1.57      0.00
   -2    0   21     -1.15      0.00
   -1    0   21      0.66      0.00
    0    0   21     -2.44      0.00
    1    0   21     -1.88      0.00
    2    0   21     -0.52      0.00
    3    0   21     -2.25      0.00
    4    0   21      2.61      0.00
    5    0   21      9.71      0.00
   -8    1   21     -1.28      0.00
   -7    1   21     -2.15      0.00
   -6    1   21      1.92      0.00
   -5    1   21      0.80      0.00
   -4    1   21      1.17      0.00
   -3    1   21      3.12      0.00
   -2    1   21      0.32      0.00
   -1    1   21      3.29      0.00
    0    1   21      1.55      0.00
    1    1   21      1.81      0.00
    2    1   21      4.40      0.00
    3    1   21      2.37      0.00
    4    1   21     -1.60      0.00
    5    1   21     -4.69      0.00
    6    1   21      0.02      0.00
    7    1   21     -0.61      0.00
   -8    2   21      0.86      0.00
   -7    2   21      0.64      0.00
   -6    2   21     -2.51      0.00
   -5    2   21      0.08      0.00
   -4    2   21     -0.41      0.00
   -3    2   21      0.28      0.00
   -2    2   21     -2.72      0.00
   -1    2   21     -4.51      0.00
    0    2   21     -2.95      0.00
    1    2   21     -2.03      0.00
    2    2   21     -2.11      0.00
    3    2   21     -2.65      0.00
    4    2   21      1.82      0.00
    5    2   21     -0.91      0.00
    6    2   21      0.39      0.00
    7    2   21     -2.86      0.00
   -8    3   21     -0.69      0.00
   -7    3   21     -0.25      0.00
   -6    3   21      2.04      0.00
   -5    3   21     -1.46      0.00
   -4    3   21     -3.99      0.00
   -3    3   21     -3.09      0.00
   -2    3   21      4.62      0.00
   -1    3   21      1.85      0.00
    0    3   21      2.40      0.00
    1    3   21     -0.60      0.00
    2    3   21      1.35      0.00
    3    3   21     -0.31      0.00
    4    3   21      0.99      0.00
    5    3   21     -1.75      0.00
    6    3   21      2.08      0.00
   -8    4   21      1.39      0.00
   -7    4   21     -1.48      0.00
   -6    4   21     -0.79      0.00
   -5    4   21      2.62      0.00
   -4    4   21      3.58      0.00
   -3    4   21      1.77      0.00
   -2    4   21     -0.67      0.00
   -1    4   21     -2.22      0.00
    0    4   21      3.97      0.00
    1    4   21      1.72      0.00
    2    4   21     -1.22      0.00
    3    4   21     -2.62      0.00
    4    4   21      2.34      0.00
    5    4   21      0.70      0.00
   -7    5   21     -0.78      0.00
   -6    5   21      2.36      0.00
   -5    5   21     -0.01      0.00
   -4    5   21     -1.69      0.00
   -3    5   21     -0.24      0.00
   -2    5   21      6.33      0.00
   -1    5   21     -6.62      0.00
    0    5   21     -2.32      0.00
    1    5   21     -0.80      0.00
    2    5   21      2.24      0.00
    3    5   21      3.39      0.00
    4    5   21     -1.22      0.00
    5    5   21     -0.25      0.00
   -5    6   21     -0.57      0.00
   -4    6   21     -1.40      0.00
   -3    6   21     -3.45      0.00
   -2    6   21     -2.44      0.00
   -1    6   21     -0.55      0.00
    0    6   21      2.33      0.00
    1    6   21     -0.10      0.00
    2    6   21     -4.59      0.00
    3    6   21     -1.07      0.00
    4    6   21     -0.84      0.00
    5    6   21      0.79      0.00
   -4    7   21     -2.90      0.00
   -3    7   21      4.17      0.00
   -2    7   21      4.36      0.00
   -1    7   21      0.56      0.00
    0    7   21      3.06      0.00
    1    7   21      1.49      0.00
    2    7   21     -1.36      0.00
    3    7   21      1.84      0.00
    4    7   21      0.63      0.00
   -2    8   21     -2.69      0.00
   -1    8   21     -4.47      0.00
    0    8   21     -2.32      0.00
    1    8   21      1.39      0.00
    2    8   21      2.11      0.00
    0   -8   22      2.07      0.00
    1   -8   22     -0.44      0.00
    2   -8   22     -1.30      0.00
    0   -7   22     -1.10      0.00
    1   -7   22      0.73      0.00
    2   -7   22     -2.73      0.00
    0   -6   22      0.27      0.00
    1   -6   22      1.40      0.00
    2   -6   22      3.66      0.00
   -1   -5   22     -1.65      0.00
    0   -5   22     -0.32      0.00
    1   -5   22     -0.75      0.00
    2   -5   22     -1.54      0.00
   -2   -4   22      1.92      0.00
   -1   -4   22      0.93      0.00
    0   -4   22     -0.55      0.00
    1   -4   22     -1.61      0.00
    2   -4   22     -0.22      0.00
   -5   -3   22     -0.92      0.00
   -4   -3   22     -0.84      0.00
   -3   -3   22     -2.33      0.00
   -2   -3   22      0.61      0.00
   -1   -3   22     -1.06      0.00
    0   -3   22      1.27      0.00
    1   -3   22      2.11      0.00
    2   -3   22      4.71      0.00
   -7   -2   22      2.04      0.00
   -6   -2   22     -1.07      0.00
   -5   -2   22      3.39      0.00
   -4   -2   22      2.23      0.00
   -3   -2   22     -1.19      0.00
   -2   -2   22      1.57      0.00
   -1   -2   22     -0.74      0.00
    0   -2   22     -0.59      0.00
    1   -2   22     -4.79      0.00
    2   -2   22      0.24      0.00
    3   -2   22      5.96      0.00
   -8   -1   22     -2.03      0.00
   -7   -1   22     -0.91      0.00
   -6   -1   22     -0.54      0.00
   -5   -1   22     -1.82      0.00
   -4   -1   22      0.22      0.00
   -3   -1   22      0.23      0.00
   -2   -1   22      0.02      0.00
   -1   -1   22      0.01      0.00
    0   -1   22      0.69      0.00
    1   -1   22      3.89      0.00
    2   -1   22     -2.17      0.00
    3   -1   22     -2.79      0.00
   -8    0   22      1.18      0.00
   -7    0   22      1.79      0.00
   -6    0   22     -1.31      0.00
   -5    0   22      0.01      0.00
   -4    0   22     -2.50      0.00
   -3    0   22     -1.52      0.00
   -2    0   22      0.13      0.00
   -1    0   22      2.18      0.00
    0    0   22     -2.44      0.00
    1    0   22     -3.00      0.00
    2    0   22     -0.46      0.00
    3    0   22     -1.40      0.00
    4    0   22      6.06      0.00
   -8    1   22     -2.13      0.00
   -7    1   22      0.85      0.00
   -6    1   22      1.48      0.00
   -5    1   22      2.18      0.00
   -4    1   22      3.23      0.00
   -3    1   22      2.24      0.00
   -2    1   22     -0.83      0.00
   -1    1   22      0.08      0.00
    0    1   22      1.67      0.00
    1    1   22      3.66      0.00
    2    1   22      5.01      0.00
    3    1   22      1.94      0.00
    4    1   22     -5.17      0.00
   -8    2   22      0.07      0.00
   -7    2   22     -2.18      0.00
   -6    2   22     -1.51      0.00
   -5    2   22     -0.50      0.00
   -4    2   22     -3.48      0.00
   -3    2   22     -1.41      0.00
   -2    2   22     -1.88      0.00
   -1    2   22     -1.98      0.00
    0    2   22     -2.96      0.00
    1    2   22     -3.87      0.00
    2    2   22     -2.21      0.00
    3    2   22     -3.53      0.00
    4    2   22      2.77      0.00
    6    2   22      1.00      0.00
   -7    3   22      1.75      0.00
   -6    3   22     -0.59      0.00
   -5    3   22     -0.53      0.00
   -4    3   22      0.53      0.00
   -3    3   22      0.92      0.00
   -2    3   22      5.97      0.00
   -1    3   22      2.27      0.00
    0    3   22      4.20      0.00
    1    3   22      0.71      0.00
    2    3   22      1.92      0.00
    3    3   22      2.00      0.00
    4    3   22      2.77      0.00
    5    3   22     -0.49      0.00
   -7    4   22     -1.54      0.00
   -6    4   22      2.22      0.00
   -5    4   22      2.06      0.00
   -4    4   22      0.55      0.00
   -3    4   22     -2.79      0.00
   -2    4   22     -0.13      0.00
   -1    4   22     -6.61      0.00
    0    4   22     -0.28      0.00
    1    4   22     -0.93      0.00
    2    4   22     -2.75      0.00
    3    4   22     -7.26      0.00
    4    4   22     -0.44      0.00
    5    4   22     -0.37      0.00
   -6    5   22     -0.45      0.00
   -5    5   22      0.82      0.00
   -4    5   22     -0.54      0.00
   -3    5   22     -1.21      0.00
   -2    5   22      2.47      0.00
   -1    5   22     -1.99      0.00
    0    5   22      2.40      0.00
    1    5   22      2.83      0.00
    2    5   22      6.58      0.00
    3    5   22      8.12      0.00
    4    5   22      1.39      0.00
   -4    6   22     -1.35      0.00
   -3    6   22     -0.53      0.00
   -2    6   22      5.80      0.00
   -1    6   22     -3.34      0.00
    0    6   22     -0.44      0.00
    1    6   22     -3.29      0.00
    2    6   22     -9.38      0.00
    3    6   22     -5.42      0.00
    4    6   22     -2.28      0.00
   -3    7   22      0.74      0.00
   -2    7   22     -1.31      0.00
   -1    7   22      1.82      0.00
    0    7   22      2.59      0.00
    1    7   22      4.10      0.00
    2    7   22      2.33      0.00
    0   -7   23     -0.62      0.00
    1   -7   23      1.83      0.00
    2   -7   23     -2.09      0.00
   -1   -6   23      2.70      0.00
    0   -6   23      0.42      0.00
    1   -6   23      0.74      0.00
    2   -6   23      1.76      0.00
   -1   -5   23     -2.25      0.00
    0   -5   23     -1.36      0.00
    1   -5   23     -1.59      0.00
    2   -5   23      0.70      0.00
   -2   -4   23      0.88      0.00
   -1   -4   23      0.89      0.00
    0   -4   23      0.69      0.00
    1   -4   23     -0.78      0.00
   -3   -3   23     -1.47      0.00
   -2   -3   23     -0.22      0.00
   -1   -3   23     -1.41      0.00
    0   -3   23      2.06      0.00
    1   -3   23      0.63      0.00
   -5   -2   23      4.37      0.00
   -4   -2   23      3.76      0.00
   -3   -2   23     -0.08      0.00
   -2   -2   23      4.36      0.00
   -1   -2   23     -0.35      0.00
    0   -2   23     -1.85      0.00
    1   -2   23     -4.00      0.00
   -7   -1   23      4.69      0.00
   -6   -1   23     -0.85      0.00
   -5   -1   23     -1.92      0.00
   -4   -1   23     -0.05      0.00
   -3   -1   23     -1.99      0.00
   -2   -1   23     -2.15      0.00
   -1   -1   23     -0.50      0.00
    0   -1   23      2.70      0.00
    1   -1   23      2.58      0.00
   -7    0   23     -3.55      0.00
   -6    0   23     -1.72      0.00
   -5    0   23     -1.01      0.00
   -4    0   23     -3.03      0.00
   -3    0   23     -0.09      0.00
   -2    0   23      0.89      0.00
   -1    0   23      1.36      0.00
    0    0   23     -3.24      0.00
    1    0   23     -1.80      0.00
    3    0   23     -0.15      0.00
   -7    1   23      4.35      0.00
   -6    1   23      1.55      0.00
   -5    1   23      4.60      0.00
   -4    1   23      3.31      0.00
   -3    1   23      1.25      0.00
   -2    1   23     -0.61      0.00
   -1    1   23      0.72      0.00
    0    1   23      1.60      0.00
    1    1   23      1.68      0.00
    3    1   23     -3.00      0.00
   -7    2   23     -2.58      0.00
   -6    2   23     -2.05      0.00
   -5    2   23     -3.03      0.00
   -4    2   23     -2.93      0.00
   -3    2   23     -1.17      0.00
   -2    2   23     -0.47      0.00
   -1    2   23     -2.69      0.00
    0    2   23     -1.35      0.00
    1    2   23     -1.43      0.00
    2    2   23      1.28      0.00
    3    2   23      2.14      0.00
   -7    3   23      0.58      0.00
   -6    3   23     -0.38      0.00
   -5    3   23      2.82      0.00
   -4    3   23      0.81      0.00
   -3    3   23     -0.04      0.00
   -2    3   23      4.73      0.00
   -1    3   23      3.79      0.00
    0    3   23      2.88      0.00
    1    3   23     -2.14      0.00
    2    3   23      0.82      0.00
    3    3   23     -1.69      0.00
   -6    4   23      1.59      0.00
   -5    4   23     -1.52      0.00
   -4    4   23      0.52      0.00
   -3    4   23     -2.34      0.00
   -2    4   23     -0.52      0.00
   -1    4   23    -10.70      0.00
    0    4   23     -0.93      0.00
    1    4   23      0.09      0.00
    2    4   23     -3.41      0.00
    3    4   23     -6.42      0.00
    4    4   23     -0.49      0.00
   -5    5   23      2.69      0.00
   -4    5   23     -0.79      0.00
   -3    5   23     -3.82      0.00
   -2    5   23      5.66      0.00
   -1    5   23      4.13      0.00
    0    5   23      4.55      0.00
    1    5   23      3.01      0.00
    2    5   23      9.19      0.00
    3    5   23      7.02      0.00
   -4    6   23      1.51      0.00
   -3    6   23      3.13      0.00
   -2    6   23      2.64      0.00
   -1    6   23     -7.43      0.00
    0    6   23     -2.16      0.00
    1    6   23     -3.74      0.00
    2    6   23    -11.13      0.00
   -2    7   23      0.96      0.00
   -1    7   23      2.11      0.00
   -1   -6   24      0.67      0.00
    0   -6   24     -2.51      0.00
    1   -6   24      0.00      0.00
    2   -6   24      0.76      0.00
   -2   -5   24     -0.17      0.00
   -1   -5   24     -0.58      0.00
    0   -5   24      0.77      0.00
    1   -5   24     -1.55      0.00
    2   -5   24      1.56      0.00
   -3   -4   24     -4.17      0.00
   -2   -4   24      2.57      0.00
   -1   -4   24      0.16      0.00
    0   -4   24      1.39      0.00
    1   -4   24      0.77      0.00
   -4   -3   24      0.29      0.00
   -3   -3   24     -1.87      0.00
   -2   -3   24     -0.86      0.00
   -1   -3   24     -0.97      0.00
    0   -3   24     -0.01      0.00
    1   -3   24     -2.78      0.00
   -5   -2   24      4.58      0.00
   -4   -2   24      4.32      0.00
   -3   -2   24      2.16      0.00
   -2   -2   24      4.30      0.00
   -1   -2   24     -1.39      0.00
    0   -2   24      0.60      0.00
   -6   -1   24     -2.52      0.00
   -5   -1   24     -2.64      0.00
   -4   -1   24     -2.00      0.00
   -3   -1   24     -5.67      0.00
   -2   -1   24     -2.03      0.00
   -1   -1   24      0.93      0.00
    0   -1   24      1.27      0.00
   -6    0   24     -1.13      0.00
   -5    0   24     -1.30      0.00
   -4    0   24     -1.02      0.00
   -3    0   24      2.22      0.00
   -2    0   24      0.13      0.00
   -1    0   24     -0.66      0.00
   -6    1   24      1.18      0.00
   -5    1   24      5.68      0.00
   -4    1   24      2.34      0.00
   -3    1   24      1.38      0.00
   -2    1   24      1.36      0.00
   -1    1   24      1.73      0.00
    0    1   24      1.09      0.00
    2    1   24      0.16      0.00
   -6    2   24     -2.47      0.00
   -5    2   24     -3.48      0.00
   -4    2   24     -2.38      0.00
   -3    2   24     -2.97      0.00
   -2    2   24     -1.57      0.00
   -1    2   24     -1.95      0.00
    0    2   24     -0.29      0.00
    2    2   24      5.26      0.00
    3    2   24      5.89      0.00
   -6    3   24      0.86      0.00
   -5    3   24      2.66      0.00
   -4    3   24      1.05      0.00
   -3    3   24      1.00      0.00
   -2    3   24      5.38      0.00
   -1    3   24      0.72      0.00
    1    3   24     -3.40      0.00
    2    3   24     -1.33      0.00
    3    3   24     -4.95      0.00
   -5    4   24     -0.94      0.00
   -4    4   24      0.47      0.00
   -3    4   24     -4.34      0.00
   -2    4   24     -3.26      0.00
   -1    4   24     -6.99      0.00
    0    4   24      0.60      0.00
    1    4   24     -0.21      0.00
    2    4   24     -2.13      0.00
    3    4   24     -4.02      0.00
   -4    5   24     -0.31      0.00
   -3    5   24     -0.23      0.00
   -2    5   24     11.69      0.00
   -1    5   24      3.52      0.00
    0    5   24      3.69      0.00
    1    5   24      3.32      0.00
    2    5   24      8.30      0.00
   -2    6   24     -4.82      0.00
    0   -5   25      1.40      0.00
    1   -5   25     -0.65      0.00
   -2   -4   25      3.05      0.00
   -1   -4   25     -0.69      0.00
    0   -4   25      2.48      0.00
    1   -4   25      0.73      0.00
   -3   -3   25     -4.15      0.00
   -2   -3   25     -0.55      0.00
   -1   -3   25     -1.61      0.00
    0   -3   25     -3.10      0.00
    1   -3   25     -3.71      0.00
   -4   -2   25      2.57      0.00
   -3   -2   25      1.96      0.00
   -2   -2   25      1.93      0.00
   -1   -2   25      0.26      0.00
    0   -2   25      4.25      0.00
   -5   -1   25     -3.07      0.00
   -4   -1   25     -2.10      0.00
   -3   -1   25     -4.26      0.00
   -2   -1   25      0.38      0.00
   -1   -1   25     -1.05      0.00
    0   -1   25     -1.56      0.00
   -5    0   25      1.31      0.00
   -4    0   25      1.95      0.00
   -3    0   25      1.36      0.00
   -2    0   25     -1.41      0.00
   -1    0   25      1.89      0.00
   -5    1   25      2.30      0.00
   -4    1   25     -0.58      0.00
   -3    1   25      2.62      0.00
   -2    1   25      2.82      0.00
   -5    2   25     -0.48      0.00
   -4    2   25     -1.34      0.00
   -3    2   25     -5.57      0.00
    2    2   25      9.58      0.00
   -4    3   25      1.30      0.00
   -3    3   25      2.74      0.00
    1    3   25     -7.13      0.00
    2    3   25     -5.71      0.00
   -3    4   25     -4.03      0.00
    0    4   25      1.53      0.00
    1    4   25      1.89      0.00
    2    4   25      3.26      0.00
   -1   -2   26      1.67      0.00
    0   -2   26      3.77      0.00
   -2   -1   26      1.28      0.00
   -1   -1   26     -2.42      0.00
   -3    0   26     -0.21      0.00
   -2    0   26     -0.87      0.00
   -1    0   26      2.26      0.00
   -4    1   26     -1.21      0.00
   -3    1   26      1.59      0.00
   -2    1   26      0.07      0.00
   -3    2   26     -3.76      0.00
    1    3   26     -6.21      0.00
    1    0    0     39.56      0.00
   12    0    0      1.16      0.00
   13    0    0      0.28      0.00
  -13    1    0     -0.02      0.00
  -12    1    0      1.18      0.00
    0    1    0    -85.41      0.00
   12    1    0     -1.50      0.00
   13    1    0     -0.16      0.00
  -13    2    0     -2.02      0.00
  -12    2    0      1.22      0.00
    0    2    0     50.95      0.00
   12    2    0      1.92      0.00
   13    2    0     -0.25      0.00
  -13    3    0      0.71      0.00
  -12    3    0      1.62      0.00
   12    3    0      1.38      0.00
   13    3    0      0.69      0.00
  -13    4    0     -1.87      0.00
  -12    4    0     -1.41      0.00
   12    4    0     -0.45      0.00
  -12    5    0      2.47      0.00
   12    5    0      2.73      0.00
  -12    6    0     -2.58      0.00
  -11    6    0     -1.18      0.00
  -10    6    0     -2.48      0.00
   -9    6    0     -1.92      0.00
   -8    6    0     -0.08      0.00
   -7    6    0      1.76      0.00
  -12    7    0      0.64      0.00
  -11    7    0      1.40      0.00
  -10    7    0      0.23      0.00
   -9    7    0      0.88      0.00
   -8    7    0     -0.44      0.00
   -7    7    0      0.74      0.00
  -11    8    0     -0.66      0.00
  -10    8    0      0.61      0.00
   -9    8    0      0.83      0.00
   -8    8    0     -0.68      0.00
   -7    8    0      1.16      0.00
  -10    9    0      0.29      0.00
   -9    9    0     -1.34      0.00
   -8    9    0     -1.14      0.00
   -7    9    0      0.34      0.00
  -10   10    0      0.01      0.00
   -9   10    0      1.60      0.00
   -8   10    0     -0.52      0.00
   -7   10    0      2.75      0.00
    1   10    0      0.50      0.00
    8   10    0      0.45      0.00
   -9   11    0     -0.63      0.00
   -8   11    0     -1.18      0.00
   -7   11    0      0.32      0.00
    5   11    0     -1.23      0.00
    6   11    0     -1.62      0.00
    7   11    0     -2.64      0.00
   -7   12    0     -0.99      0.00
    1   12    0     -0.68      0.00
    2   12    0      2.70      0.00
    3   12    0     -0.18      0.00
    4   12    0      1.13      0.00
    5   12    0      0.85      0.00
    6   12    0      3.23      0.00
   -5   13    0     -2.13      0.00
   -2   13    0      1.49      0.00
   -1   13    0     -0.83      0.00
    0   13    0     -0.33      0.00
    1   13    0     -2.31      0.00
    2   13    0     -2.88      0.00
    3   13    0     -0.96      0.00
    4   13    0     -0.92      0.00
   -1   14    0      0.02      0.00
    0   14    0      1.07      0.00
    0  -14    1      0.12      0.00
    1  -14    1     -0.13      0.00
   -4  -13    1     -1.59      0.00
   -3  -13    1     -2.68      0.00
   -2  -13    1     -4.27      0.00
   -1  -13    1     -2.27      0.00
    0  -13    1      0.51      0.00
    1  -13    1     -1.58      0.00
    2  -13    1      1.59      0.00
    4  -13    1      1.88      0.00
    5  -13    1      0.81      0.00
   -6  -12    1      3.88      0.00
   -5  -12    1      2.85      0.00
   -4  -12    1      1.82      0.00
   -3  -12    1      2.87      0.00
   -2  -12    1      4.46      0.00
   -1  -12    1      0.00      0.00
    6  -12    1     -3.14      0.00
    7  -12    1     -0.09      0.00
   -7  -11    1     -6.04      0.00
   -6  -11    1     -3.24      0.00
   -5  -11    1     -3.31      0.00
    6  -11    1      2.49      0.00
    7  -11    1     -0.38      0.00
    8  -11    1     -2.38      0.00
    9  -11    1     -0.17      0.00
   -8  -10    1      2.33      0.00
    6  -10    1     -1.65      0.00
    7  -10    1      3.63      0.00
    8  -10    1      1.96      0.00
    9  -10    1      1.13      0.00
   10  -10    1     -0.75      0.00
   -1   -9    1     -1.02      0.00
    6   -9    1     -1.07      0.00
    7   -9    1     -0.38      0.00
    8   -9    1     -3.82      0.00
    9   -9    1     -1.71      0.00
   10   -9    1      1.13      0.00
    6   -8    1     -1.36      0.00
    7   -8    1      0.16      0.00
    8   -8    1      1.80      0.00
    9   -8    1      1.43      0.00
   10   -8    1      0.49      0.00
   11   -8    1     -0.35      0.00
    6   -7    1     -0.15      0.00
    7   -7    1      2.52      0.00
    8   -7    1     -0.18      0.00
    9   -7    1     -0.62      0.00
   10   -7    1      0.15      0.00
   11   -7    1      0.84      0.00
   12   -7    1      0.90      0.00
    5   -6    1      3.07      0.00
    6   -6    1     -1.19      0.00
    7   -6    1     -1.11      0.00
    8   -6    1     -1.56      0.00
    9   -6    1     -1.15      0.00
   10   -6    1     -2.00      0.00
   11   -6    1     -1.65      0.00
   12   -6    1     -1.58      0.00
  -12   -5    1      4.71      0.00
    5   -5    1     -0.78      0.00
    6   -5    1      0.18      0.00
   12   -5    1      1.78      0.00
  -12   -4    1     -2.74      0.00
    0   -4    1     -1.35      0.00
   12   -4    1     -0.51      0.00
   13   -4    1     -1.41      0.00
  -13   -3    1      0.86      0.00
  -12   -3    1      1.93      0.00
    0   -3    1      6.72      0.00
   12   -3    1      1.75      0.00
   13   -3    1      0.44      0.00
  -13   -2    1     -0.62      0.00
  -12   -2    1      3.06      0.00
    2   -2    1     -5.64      0.00
   12   -2    1     -0.21      0.00
   13   -2    1     -1.41      0.00
  -13   -1    1      0.02      0.00
  -12   -1    1     -3.03      0.00
    0   -1    1    -44.45      0.00
    1   -1    1    -40.91      0.00
   12   -1    1      2.00      0.00
   13   -1    1      0.49      0.00
  -13    0    1     -0.21      0.00
  -12    0    1      1.87      0.00
    0    0    1    113.27      0.00
   12    0    1      0.41      0.00
   13    0    1      0.77      0.00
  -13    1    1     -0.63      0.00
  -12    1    1      2.73      0.00
   -3    1    1    -19.78      0.00
    0    1    1    -38.39      0.00
   12    1    1     -3.02      0.00
   13    1    1     -1.12      0.00
  -13    2    1     -1.30      0.00
  -12    2    1      0.10      0.00
   12    2    1      3.81      0.00
   13    2    1      2.17      0.00
  -13    3    1     -0.59      0.00
  -12    3    1      0.92      0.00
   12    3    1     -0.80      0.00
   13    3    1     -1.46      0.00
  -13    4    1     -1.04      0.00
  -12    4    1      0.37      0.00
    0    4    1     -2.68      0.00
   12    4    1      0.18      0.00
  -12    5    1      0.14      0.00
    0    5    1     -4.80      0.00
   12    5    1      3.00      0.00
  -12    6    1     -1.46      0.00
  -12    7    1     -0.19      0.00
  -11    7    1      1.30      0.00
  -10    7    1      1.27      0.00
   -9    7    1      1.61      0.00
   -8    7    1     -0.60      0.00
   11    7    1     -0.83      0.00
  -11    8    1     -0.06      0.00
  -10    8    1      0.28      0.00
   -9    8    1      0.86      0.00
   -8    8    1     -1.49      0.00
  -10    9    1     -0.10      0.00
   -9    9    1     -0.45      0.00
   -8    9    1     -0.64      0.00
  -10   10    1      0.32      0.00
   -9   10    1      0.13      0.00
   -8   10    1     -1.52      0.00
   -7   10    1      2.44      0.00
    8   10    1      0.05      0.00
   -9   11    1      0.67      0.00
   -8   11    1     -0.41      0.00
   -7   11    1      1.20      0.00
    1   11    1      0.59      0.00
    5   11    1      0.27      0.00
    6   11    1      2.43      0.00
    7   11    1      1.79      0.00
   -7   12    1     -2.03      0.00
    1   12    1     -0.40      0.00
    2   12    1      2.15      0.00
    3   12    1     -1.47      0.00
    4   12    1     -0.54      0.00
    5   12    1     -0.91      0.00
    6   12    1      0.40      0.00
   -5   13    1     -4.18      0.00
   -2   13    1      2.80      0.00
   -1   13    1      0.49      0.00
    0   13    1      0.94      0.00
    1   13    1     -1.43      0.00
    2   13    1     -0.61      0.00
    3   13    1      0.26      0.00
    4   13    1      1.26      0.00
   -1   14    1      0.65      0.00
    0  -14    2      0.23      0.00
    1  -14    2      0.84      0.00
   -4  -13    2     -0.29      0.00
   -3  -13    2     -1.50      0.00
   -2  -13    2     -1.46      0.00
   -1  -13    2     -1.06      0.00
    0  -13    2     -0.86      0.00
    1  -13    2     -2.15      0.00
    2  -13    2      2.45      0.00
    3  -13    2     -1.38      0.00
    4  -13    2      2.61      0.00
   -6  -12    2      1.50      0.00
   -5  -12    2      2.33      0.00
   -4  -12    2      1.66      0.00
   -3  -12    2      2.44      0.00
   -2  -12    2      2.30      0.00
   -1  -12    2     -0.80      0.00
    6  -12    2     -3.02      0.00
    7  -12    2     -0.27      0.00
   -7  -11    2     -4.32      0.00
   -6  -11    2     -1.63      0.00
   -5  -11    2     -2.08      0.00
    6  -11    2      0.70      0.00
    7  -11    2     -0.16      0.00
    8  -11    2     -1.44      0.00
   -8  -10    2      4.25      0.00
    6  -10    2      0.72      0.00
    7  -10    2      3.79      0.00
    8  -10    2      1.32      0.00
    9  -10    2      0.77      0.00
   10  -10    2     -0.78      0.00
    6   -9    2     -2.90      0.00
    7   -9    2     -2.22      0.00
    8   -9    2     -3.17      0.00
    9   -9    2     -1.25      0.00
   10   -9    2      1.56      0.00
   -1   -8    2      0.91      0.00
    5   -8    2     -0.01      0.00
    6   -8    2     -0.88      0.00
    7   -8    2      1.86      0.00
    8   -8    2      2.30      0.00
    9   -8    2      0.14      0.00
   10   -8    2     -0.26      0.00
   11   -8    2     -0.97      0.00
    5   -7    2      1.47      0.00
    6   -7    2      1.01      0.00
    7   -7    2      1.11      0.00
    8   -7    2     -0.08      0.00
    9   -7    2     -0.04      0.00
   10   -7    2      1.03      0.00
   11   -7    2      0.83      0.00
   12   -7    2      1.09      0.00
    5   -6    2      2.24      0.00
    6   -6    2     -2.50      0.00
    7   -6    2     -1.82      0.00
    8   -6    2     -1.12      0.00
    9   -6    2     -1.72      0.00
   10   -6    2     -0.86      0.00
   11   -6    2     -0.62      0.00
   12   -6    2      0.44      0.00
  -12   -5    2      2.55      0.00
    4   -5    2      0.12      0.00
    5   -5    2     -0.95      0.00
    6   -5    2      1.24      0.00
    7   -5    2      1.62      0.00
    8   -5    2      0.21      0.00
   12   -5    2     -0.85      0.00
  -12   -4    2     -0.53      0.00
    3   -4    2     -5.89      0.00
    4   -4    2      0.48      0.00
    5   -4    2     -0.16      0.00
   12   -4    2      2.24      0.00
   13   -4    2      0.74      0.00
  -13   -3    2      2.42      0.00
  -12   -3    2      0.19      0.00
    3   -3    2      2.92      0.00
    4   -3    2     -4.91      0.00
   12   -3    2      0.17      0.00
   13   -3    2     -1.65      0.00
  -13   -2    2     -2.14      0.00
  -12   -2    2      1.98      0.00
    2   -2    2     -8.27      0.00
   12   -2    2     -0.60      0.00
   13   -2    2      0.88      0.00
  -13   -1    2      0.86      0.00
  -12   -1    2     -1.45      0.00
    0   -1    2      2.77      0.00
   12   -1    2      1.98      0.00
   13   -1    2     -0.02      0.00
  -13    0    2     -0.55      0.00
  -12    0    2      1.30      0.00
   12    0    2     -0.57      0.00
   13    0    2      1.07      0.00
  -13    1    2     -1.04      0.00
  -12    1    2      2.60      0.00
   12    1    2     -3.22      0.00
   13    1    2     -0.50      0.00
  -13    2    2     -0.87      0.00
  -12    2    2      0.16      0.00
   12    2    2      3.57      0.00
   13    2    2      2.14      0.00
  -13    3    2     -1.33      0.00
  -12    3    2      0.38      0.00
   12    3    2     -2.35      0.00
   13    3    2     -1.26      0.00
  -13    4    2      0.64      0.00
  -12    4    2      0.96      0.00
   12    4    2      1.25      0.00
  -12    5    2     -0.98      0.00
  -11    5    2      1.93      0.00
   12    5    2      1.63      0.00
  -11    6    2     -0.72      0.00
   11    6    2     -2.73      0.00
  -12    7    2      0.38      0.00
    0    7    2      1.00      0.00
   11    7    2     -0.58      0.00
  -11    8    2     -0.23      0.00
  -10    8    2     -0.85      0.00
   -9    8    2     -0.16      0.00
  -10    9    2      0.22      0.00
   -9    9    2      1.63      0.00
   -8    9    2     -3.47      0.00
  -10   10    2      0.62      0.00
   -9   10    2     -1.15      0.00
   -8   10    2      1.24      0.00
    8   10    2      0.89      0.00
   -9   11    2      0.75      0.00
   -8   11    2     -1.97      0.00
    5   11    2      0.87      0.00
    6   11    2      3.67      0.00
    7   11    2      0.65      0.00
   -1   12    2     -0.79      0.00
    0   12    2     -0.34      0.00
    1   12    2      1.20      0.00
    2   12    2      2.31      0.00
    3   12    2     -0.67      0.00
    4   12    2     -0.09      0.00
    5   12    2     -1.54      0.00
    6   12    2     -0.98      0.00
   -5   13    2     -5.26      0.00
   -1   13    2     -0.90      0.00
    0   13    2     -0.31      0.00
    1   13    2     -1.09      0.00
    2   13    2      0.51      0.00
    3   13    2      0.07      0.00
    4   13    2      0.89      0.00
   -4  -13    3      0.78      0.00
   -3  -13    3      0.83      0.00
   -2  -13    3      0.59      0.00
   -1  -13    3     -0.13      0.00
    0  -13    3     -2.33      0.00
    1  -13    3     -1.50      0.00
    2  -13    3      0.72      0.00
    3  -13    3     -0.78      0.00
    4  -13    3      2.51      0.00
   -6  -12    3     -1.00      0.00
   -5  -12    3      0.05      0.00
   -4  -12    3      0.14      0.00
   -3  -12    3     -1.72      0.00
   -2  -12    3     -0.78      0.00
   -1  -12    3     -2.13      0.00
    6  -12    3     -2.55      0.00
    7  -12    3      0.15      0.00
   -7  -11    3      1.36      0.00
   -6  -11    3      1.41      0.00
   -5  -11    3     -0.50      0.00
    6  -11    3      1.56      0.00
    7  -11    3      0.81      0.00
    8  -11    3      0.34      0.00
   -8  -10    3      0.71      0.00
    6  -10    3     -0.97      0.00
    7  -10    3      1.16      0.00
    8  -10    3     -0.47      0.00
    9  -10    3      0.12      0.00
    5   -9    3      0.36      0.00
    6   -9    3     -1.30      0.00
    7   -9    3     -1.02      0.00
    8   -9    3     -1.96      0.00
    9   -9    3     -0.50      0.00
   10   -9    3      1.43      0.00
    5   -8    3      0.12      0.00
    6   -8    3     -1.58      0.00
    7   -8    3      1.18      0.00
    8   -8    3      2.88      0.00
    9   -8    3     -1.16      0.00
   10   -8    3      0.04      0.00
   11   -8    3     -1.35      0.00
   -1   -7    3      1.69      0.00
    5   -7    3      3.44      0.00
    6   -7    3      2.65      0.00
    7   -7    3      0.97      0.00
    8   -7    3     -0.20      0.00
    9   -7    3      0.79      0.00
   10   -7    3      1.18      0.00
   11   -7    3     -0.20      0.00
   12   -7    3      0.55      0.00
    4   -6    3     -1.07      0.00
    5   -6    3     -0.25      0.00
    6   -6    3     -4.74      0.00
    7   -6    3     -2.49      0.00
    8   -6    3     -0.34      0.00
    9   -6    3     -2.18      0.00
   10   -6    3      0.97      0.00
   11   -6    3      0.89      0.00
   12   -6    3      1.11      0.00
  -12   -5    3      2.33      0.00
    4   -5    3     -3.09      0.00
    5   -5    3     -0.31      0.00
    6   -5    3      3.98      0.00
    7   -5    3      1.65      0.00
    8   -5    3     -0.45      0.00
    9   -5    3      1.18      0.00
   10   -5    3     -2.87      0.00
   11   -5    3     -4.03      0.00
   12   -5    3     -1.00      0.00
  -12   -4    3     -1.34      0.00
    3   -4    3     -2.60      0.00
    4   -4    3      4.42      0.00
    5   -4    3      0.35      0.00
    6   -4    3     -5.53      0.00
   12   -4    3      3.38      0.00
   13   -4    3      1.53      0.00
  -13   -3    3      2.39      0.00
  -12   -3    3      0.92      0.00
    3   -3    3      2.91      0.00
    4   -3    3     -5.50      0.00
   12   -3    3     -2.51      0.00
   13   -3    3     -2.58      0.00
  -13   -2    3     -1.38      0.00
  -12   -2    3     -0.79      0.00
   12   -2    3      1.56      0.00
   13   -2    3      2.96      0.00
  -13   -1    3      0.51      0.00
  -12   -1    3      0.01      0.00
   12   -1    3     -0.42      0.00
   13   -1    3     -1.28      0.00
  -13    0    3     -0.61      0.00
  -12    0    3      2.30      0.00
    1    0    3    -30.42      0.00
   12    0    3      0.19      0.00
   13    0    3      2.20      0.00
  -13    1    3     -0.81      0.00
  -12    1    3     -0.25      0.00
   12    1    3     -4.69      0.00
   13    1    3     -0.91      0.00
  -13    2    3     -0.85      0.00
  -12    2    3      1.45      0.00
   12    2    3      4.17      0.00
   13    2    3      3.07      0.00
  -13    3    3     -1.25      0.00
  -12    3    3      0.86      0.00
   12    3    3     -4.28      0.00
  -13    4    3      1.62      0.00
  -12    4    3     -1.03      0.00
   12    4    3      1.99      0.00
  -12    5    3      0.23      0.00
  -11    5    3      1.14      0.00
   12    5    3      0.52      0.00
   11    6    3     -2.34      0.00
  -12    7    3     -0.46      0.00
  -11    7    3     -0.40      0.00
   11    7    3     -1.68      0.00
  -11    8    3      0.13      0.00
  -10    9    3      1.47      0.00
  -10   10    3     -1.34      0.00
   -9   10    3     -1.02      0.00
    8   10    3     -0.63      0.00
    5   11    3     -0.45      0.00
    6   11    3      2.49      0.00
    7   11    3      1.38      0.00
   -1   12    3      0.13      0.00
    0   12    3      0.78      0.00
    1   12    3      2.99      0.00
    2   12    3      3.58      0.00
    3   12    3      0.11      0.00
    4   12    3      1.64      0.00
    5   12    3      0.01      0.00
    6   12    3     -0.14      0.00
   -5   13    3     -2.59      0.00
   -4   13    3      0.49      0.00
   -1   13    3     -0.32      0.00
    0   13    3     -1.07      0.00
    1   13    3     -1.23      0.00
    2   13    3     -0.95      0.00
    3   13    3     -1.33      0.00
    4   13    3     -0.35      0.00
   -4  -13    4      0.91      0.00
   -3  -13    4      1.34      0.00
   -2  -13    4      1.19      0.00
   -1  -13    4     -1.30      0.00
    0  -13    4     -3.17      0.00
    1  -13    4     -3.00      0.00
    2  -13    4     -2.03      0.00
    3  -13    4     -1.86      0.00
    4  -13    4      1.50      0.00
   -6  -12    4     -0.83      0.00
   -5  -12    4     -0.01      0.00
   -4  -12    4     -1.56      0.00
   -3  -12    4     -3.62      0.00
   -2  -12    4     -1.95      0.00
   -1  -12    4     -0.28      0.00
    3  -12    4     -0.95      0.00
    6  -12    4     -2.83      0.00
    7  -12    4      0.43      0.00
   -7  -11    4      1.91      0.00
   -6  -11    4      1.67      0.00
   -5  -11    4     -0.72      0.00
    6  -11    4      2.52      0.00
    7  -11    4      1.04      0.00
    8  -11    4     -0.57      0.00
   -8  -10    4     -2.27      0.00
   -7  -10    4     -4.44      0.00
    5  -10    4      0.23      0.00
    6  -10    4     -2.55      0.00
    7  -10    4     -1.67      0.00
    8  -10    4      0.30      0.00
    9  -10    4      0.39      0.00
    5   -9    4     -0.66      0.00
    6   -9    4      0.79      0.00
    7   -9    4      1.90      0.00
    8   -9    4     -1.13      0.00
    9   -9    4      0.18      0.00
   10   -9    4      1.67      0.00
    5   -8    4      1.85      0.00
    6   -8    4     -1.75      0.00
    7   -8    4     -1.28      0.00
    8   -8    4      1.88      0.00
    9   -8    4     -2.73      0.00
   10   -8    4     -0.08      0.00
   11   -8    4     -1.00      0.00
    5   -7    4      1.17      0.00
    6   -7    4      1.83      0.00
    7   -7    4      0.84      0.00
    8   -7    4      1.41      0.00
    9   -7    4      1.48      0.00
   10   -7    4      0.89      0.00
   11   -7    4     -2.00      0.00
   -1   -6    4     -3.23      0.00
    4   -6    4     -1.79      0.00
    5   -6    4      1.32      0.00
    6   -6    4     -2.44      0.00
    7   -6    4     -1.25      0.00
    8   -6    4     -1.39      0.00
    9   -6    4     -2.66      0.00
   10   -6    4      2.98      0.00
   11   -6    4      2.34      0.00
   12   -6    4      1.56      0.00
  -12   -5    4      2.24      0.00
    4   -5    4     -0.18      0.00
    5   -5    4     -0.99      0.00
    6   -5    4      1.01      0.00
    7   -5    4     -1.21      0.00
    8   -5    4      0.72      0.00
    9   -5    4      0.26      0.00
   10   -5    4     -4.19      0.00
   11   -5    4     -4.74      0.00
   12   -5    4     -1.11      0.00
  -12   -4    4     -0.32      0.00
    3   -4    4     -2.50      0.00
    4   -4    4      1.88      0.00
    5   -4    4     -0.53      0.00
    6   -4    4     -1.52      0.00
    7   -4    4      5.85      0.00
   12   -4    4      2.94      0.00
   13   -4    4      1.56      0.00
  -13   -3    4      1.06      0.00
  -12   -3    4     -1.80      0.00
    4   -3    4     -3.65      0.00
   12   -3    4     -2.69      0.00
   13   -3    4     -1.96      0.00
  -13   -2    4     -1.09      0.00
  -12   -2    4      0.09      0.00
   12   -2    4      2.41      0.00
   13   -2    4      3.20      0.00
  -13   -1    4      1.87      0.00
  -12   -1    4     -0.12      0.00
   12   -1    4     -3.22      0.00
   13   -1    4     -2.03      0.00
  -13    0    4     -1.76      0.00
  -12    0    4      2.56      0.00
   12    0    4      1.87      0.00
   13    0    4      3.41      0.00
  -13    1    4     -0.89      0.00
  -12    1    4     -2.71      0.00
   12    1    4     -4.91      0.00
   13    1    4     -0.92      0.00
  -13    2    4      0.85      0.00
  -12    2    4      4.05      0.00
   12    2    4      2.03      0.00
   13    2    4      1.56      0.00
  -13    3    4     -1.94      0.00
  -12    3    4     -1.41      0.00
   12    3    4     -3.97      0.00
  -13    4    4      1.81      0.00
  -12    4    4      0.44      0.00
  -11    4    4      0.97      0.00
   12    4    4      2.99      0.00
  -12    5    4     -1.20      0.00
  -11    5    4     -3.33      0.00
   11    5    4     -2.90      0.00
   12    5    4     -1.81      0.00
  -12    6    4      0.95      0.00
  -11    6    4      3.07      0.00
   11    6    4     -1.26      0.00
  -12    7    4     -1.14      0.00
   11    7    4     -1.85      0.00
    0   10    4     -5.09      0.00
    8   10    4     -0.06      0.00
    5   11    4     -1.17      0.00
    6   11    4      0.97      0.00
    7   11    4      0.08      0.00
   -7   12    4     -2.08      0.00
   -6   12    4      4.11      0.00
   -5   12    4     -0.34      0.00
   -4   12    4      1.41      0.00
   -1   12    4      2.33      0.00
    0   12    4     -0.40      0.00
    1   12    4      0.17      0.00
    2   12    4      2.29      0.00
    3   12    4     -1.32      0.00
    4   12    4      2.18      0.00
    5   12    4      0.58      0.00
   -5   13    4     -1.23      0.00
   -4   13    4     -0.41      0.00
   -1   13    4     -1.20      0.00
    0   13    4     -0.66      0.00
    1   13    4     -0.33      0.00
    2   13    4     -0.79      0.00
    3   13    4     -1.77      0.00
   -3  -13    5     -0.59      0.00
   -2  -13    5      2.27      0.00
   -1  -13    5     -0.30      0.00
    0  -13    5     -0.89      0.00
    1  -13    5     -3.27      0.00
    2  -13    5     -0.83      0.00
    3  -13    5      0.35      0.00
    5  -13    5     -0.92      0.00
   -6  -12    5     -0.24      0.00
   -5  -12    5     -0.12      0.00
   -4  -12    5     -0.92      0.00
   -3  -12    5     -2.10      0.00
   -2  -12    5     -2.72      0.00
   -1  -12    5     -1.55      0.00
    0  -12    5      2.01      0.00
    5  -12    5      3.07      0.00
    6  -12    5     -1.20      0.00
    7  -12    5      1.29      0.00
   -7  -11    5      0.38      0.00
   -6  -11    5      1.01      0.00
   -5  -11    5      0.23      0.00
   -4  -11    5      2.71      0.00
    5  -11    5      1.13      0.00
    6  -11    5      0.63      0.00
    7  -11    5     -1.61      0.00
    8  -11    5     -1.73      0.00
   -8  -10    5     -0.87      0.00
   -7  -10    5     -3.63      0.00
    5  -10    5     -2.25      0.00
    6  -10    5     -1.37      0.00
    7  -10    5      0.42      0.00
    8  -10    5      2.26      0.00
    9  -10    5      0.95      0.00
   -9   -9    5      0.80      0.00
    5   -9    5      1.88      0.00
    6   -9    5      2.09      0.00
    7   -9    5      0.02      0.00
    8   -9    5     -2.09      0.00
    9   -9    5     -0.09      0.00
   10   -9    5      1.69      0.00
    5   -8    5      0.23      0.00
    6   -8    5     -2.94      0.00
    7   -8    5     -0.42      0.00
    8   -8    5      2.52      0.00
    9   -8    5     -2.64      0.00
   10   -8    5      0.28      0.00
   11   -8    5      0.36      0.00
    4   -7    5     -1.78      0.00
    5   -7    5      1.42      0.00
    6   -7    5      3.29      0.00
    7   -7    5     -0.87      0.00
    8   -7    5      0.68      0.00
    9   -7    5      0.34      0.00
   10   -7    5      0.31      0.00
   11   -7    5     -3.13      0.00
    4   -6    5     -0.47      0.00
    5   -6    5      1.02      0.00
    6   -6    5     -2.88      0.00
    7   -6    5     -0.14      0.00
    8   -6    5      0.27      0.00
    9   -6    5     -0.89      0.00
   10   -6    5      4.02      0.00
   11   -6    5      2.26      0.00
   12   -6    5      2.03      0.00
  -12   -5    5      2.14      0.00
    4   -5    5     -2.59      0.00
    5   -5    5     -1.99      0.00
    6   -5    5      0.63      0.00
    7   -5    5     -1.41      0.00
    8   -5    5     -0.04      0.00
    9   -5    5     -1.98      0.00
   10   -5    5     -3.92      0.00
   11   -5    5     -4.15      0.00
   12   -5    5     -0.92      0.00
  -12   -4    5     -1.10      0.00
    4   -4    5      4.94      0.00
    5   -4    5      2.23      0.00
    6   -4    5      0.67      0.00
    7   -4    5      3.77      0.00
   12   -4    5      2.35      0.00
  -12   -3    5     -2.21      0.00
   12   -3    5     -2.50      0.00
   13   -3    5     -2.99      0.00
  -13   -2    5     -0.22      0.00
  -12   -2    5      1.15      0.00
   12   -2    5      1.73      0.00
   13   -2    5      4.54      0.00
  -13   -1    5      1.35      0.00
  -12   -1    5     -1.74      0.00
   12   -1    5     -2.54      0.00
   13   -1    5     -2.29      0.00
  -13    0    5     -1.50      0.00
  -12    0    5      2.77      0.00
   12    0    5      0.67      0.00
   13    0    5      2.39      0.00
  -13    1    5     -0.39      0.00
  -12    1    5     -2.35      0.00
   12    1    5     -4.04      0.00
   13    1    5      0.19      0.00
  -13    2    5      1.01      0.00
  -12    2    5      3.17      0.00
   12    2    5      0.82      0.00
  -13    3    5     -1.77      0.00
  -12    3    5     -1.89      0.00
   11    3    5     -2.34      0.00
   12    3    5     -3.02      0.00
  -13    4    5      1.99      0.00
  -12    4    5      2.41      0.00
  -11    4    5      0.96      0.00
   11    4    5      3.21      0.00
   12    4    5      1.79      0.00
  -12    5    5     -3.02      0.00
  -11    5    5     -3.45      0.00
   11    5    5     -4.99      0.00
   12    5    5     -1.72      0.00
  -12    6    5      2.77      0.00
   11    6    5      1.85      0.00
  -11    7    5     -2.97      0.00
  -10    7    5     -1.65      0.00
    8   10    5      0.05      0.00
    0   11    5     -1.40      0.00
    4   11    5     -0.57      0.00
    5   11    5     -1.76      0.00
    6   11    5      0.57      0.00
    7   11    5     -0.72      0.00
   -7   12    5      0.43      0.00
   -6   12    5      4.59      0.00
   -5   12    5      1.34      0.00
   -4   12    5      0.95      0.00
   -1   12    5      2.75      0.00
    0   12    5     -1.49      0.00
    1   12    5     -1.27      0.00
    2   12    5      0.00      0.00
    3   12    5     -2.79      0.00
    4   12    5      3.51      0.00
    5   12    5      0.66      0.00
   -5   13    5     -0.86      0.00
   -4   13    5     -0.42      0.00
    0   13    5      0.30      0.00
    1   13    5     -0.10      0.00
    2   13    5      1.19      0.00
    3   13    5     -1.49      0.00
   -3  -13    6      0.08      0.00
   -2  -13    6      3.25      0.00
   -1  -13    6      1.86      0.00
    0  -13    6      0.79      0.00
    1  -13    6     -0.98      0.00
    2  -13    6      1.34      0.00
    3  -13    6      2.76      0.00
   -5  -12    6     -0.43      0.00
   -4  -12    6      2.11      0.00
   -3  -12    6     -2.17      0.00
   -2  -12    6     -3.59      0.00
   -1  -12    6     -3.60      0.00
    0  -12    6      0.88      0.00
    5  -12    6      1.90      0.00
    6  -12    6     -1.22      0.00
    7  -12    6      0.69      0.00
   -7  -11    6     -1.96      0.00
   -6  -11    6      0.98      0.00
   -5  -11    6      0.88      0.00
   -4  -11    6     -0.18      0.00
    5  -11    6      0.81      0.00
    6  -11    6     -0.18      0.00
    7  -11    6     -2.03      0.00
    8  -11    6     -0.38      0.00
   -8  -10    6      1.65      0.00
   -7  -10    6     -0.31      0.00
    5  -10    6     -0.56      0.00
    6  -10    6      1.05      0.00
    7  -10    6      1.30      0.00
    8  -10    6      1.99      0.00
    9  -10    6      1.69      0.00
   -9   -9    6      0.40      0.00
    5   -9    6     -0.37      0.00
    6   -9    6      0.73      0.00
    7   -9    6     -1.17      0.00
    8   -9    6     -1.90      0.00
    9   -9    6     -1.41      0.00
   10   -9    6      0.81      0.00
    5   -8    6      1.45      0.00
    6   -8    6     -1.62      0.00
    7   -8    6     -0.61      0.00
    8   -8    6      2.17      0.00
    9   -8    6     -1.48      0.00
   10   -8    6      1.39      0.00
   11   -8    6     -0.07      0.00
    4   -7    6     -2.51      0.00
    5   -7    6     -0.21      0.00
    6   -7    6      2.58      0.00
    7   -7    6     -1.01      0.00
    8   -7    6      0.91      0.00
    9   -7    6     -0.28      0.00
   10   -7    6     -0.24      0.00
   11   -7    6     -2.44      0.00
    4   -6    6      0.82      0.00
    5   -6    6      1.54      0.00
    6   -6    6     -1.55      0.00
    7   -6    6      0.17      0.00
    8   -6    6      0.77      0.00
    9   -6    6     -1.00      0.00
   10   -6    6      3.38      0.00
   11   -6    6      1.60      0.00
   12   -6    6      1.51      0.00
  -12   -5    6      0.03      0.00
    4   -5    6     -3.25      0.00
    5   -5    6     -2.01      0.00
    6   -5    6      0.14      0.00
    7   -5    6     -1.44      0.00
    8   -5    6      0.07      0.00
    9   -5    6     -1.18      0.00
   10   -5    6     -1.88      0.00
   11   -5    6     -3.43      0.00
   12   -5    6     -0.25      0.00
  -12   -4    6     -1.09      0.00
    4   -4    6      5.83      0.00
    5   -4    6      2.96      0.00
    6   -4    6      0.91      0.00
    7   -4    6      2.14      0.00
  -12   -3    6     -0.91      0.00
    0   -3    6      4.12      0.00
   12   -3    6     -0.21      0.00
  -13   -2    6      0.71      0.00
  -12   -2    6      0.93      0.00
    0   -2    6     -4.03      0.00
    6   -2    6      0.59      0.00
   11   -2    6     -0.67      0.00
   12   -2    6     -0.64      0.00
   13   -2    6      3.06      0.00
  -13   -1    6     -0.20      0.00
  -12   -1    6     -3.17      0.00
   11   -1    6      3.54      0.00
   12   -1    6     -0.73      0.00
   13   -1    6     -0.87      0.00
  -13    0    6      0.28      0.00
  -12    0    6      4.14      0.00
   11    0    6     -2.12      0.00
   12    0    6     -1.29      0.00
   13    0    6      1.16      0.00
  -13    1    6     -1.23      0.00
  -12    1    6     -3.75      0.00
   11    1    6      4.45      0.00
   12    1    6     -1.17      0.00
   13    1    6      0.52      0.00
  -13    2    6      1.75      0.00
  -12    2    6      3.96      0.00
   11    2    6      1.04      0.00
   12    2    6     -2.20      0.00
  -13    3    6     -1.67      0.00
  -12    3    6     -2.31      0.00
  -11    3    6     -2.20      0.00
   11    3    6      0.16      0.00
   12    3    6     -0.15      0.00
  -13    4    6      1.36      0.00
  -12    4    6      2.55      0.00
  -11    4    6      0.67      0.00
   11    4    6      1.74      0.00
   12    4    6     -0.31      0.00
  -12    5    6     -1.72      0.00
  -11    5    6     -1.84      0.00
   11    5    6     -3.27      0.00
  -12    6    6      1.45      0.00
   11    6    6      0.91      0.00
  -11    8    6      0.67      0.00
   10    8    6     -1.47      0.00
  -10    9    6     -0.52      0.00
   -9   10    6     -1.05      0.00
   -7   10    6     -2.71      0.00
    8   10    6     -0.10      0.00
   -8   11    6      2.57      0.00
   -7   11    6      0.09      0.00
    4   11    6     -2.34      0.00
    5   11    6     -2.21      0.00
    6   11    6     -3.08      0.00
    7   11    6     -2.84      0.00
   -7   12    6      2.18      0.00
   -6   12    6      3.62      0.00
   -5   12    6      0.64      0.00
   -4   12    6      1.94      0.00
    0   12    6     -3.99      0.00
    1   12    6     -4.12      0.00
    2   12    6     -2.60      0.00
    3   12    6     -1.22      0.00
    4   12    6      3.34      0.00
    5   12    6      0.55      0.00
   -4   13    6     -1.73      0.00
    0   13    6      1.24      0.00
    1   13    6      2.17      0.00
    2   13    6      3.63      0.00
    3   13    6     -1.93      0.00
   -3  -13    7      0.82      0.00
   -2  -13    7      1.55      0.00
   -1  -13    7      2.09      0.00
    0  -13    7      1.24      0.00
    1  -13    7      2.03      0.00
    2  -13    7      4.27      0.00
    3  -13    7      2.21      0.00
   -5  -12    7     -0.65      0.00
   -4  -12    7      2.40      0.00
   -3  -12    7     -2.81      0.00
   -2  -12    7     -4.45      0.00
   -1  -12    7     -4.16      0.00
    0  -12    7     -1.08      0.00
    5  -12    7      3.37      0.00
    6  -12    7     -0.18      0.00
   -7  -11    7     -1.35      0.00
   -6  -11    7      3.02      0.00
   -5  -11    7     -0.86      0.00
   -4  -11    7     -1.32      0.00
   -3  -11    7      2.33      0.00
    5  -11    7     -0.14      0.00
    6  -11    7     -0.63      0.00
    7  -11    7     -0.57      0.00
    8  -11    7      0.98      0.00
   -8  -10    7      2.46      0.00
   -7  -10    7     -0.88      0.00
   -6  -10    7     -1.81      0.00
    5  -10    7      0.27      0.00
    6  -10    7      2.21      0.00
    7  -10    7     -0.43      0.00
    8  -10    7      0.93      0.00
    9  -10    7      1.77      0.00
   -9   -9    7     -0.09      0.00
    5   -9    7     -1.89      0.00
    6   -9    7     -0.16      0.00
    7   -9    7     -0.54      0.00
    8   -9    7     -2.16      0.00
    9   -9    7     -2.01      0.00
   10   -9    7      0.42      0.00
    5   -8    7      1.68      0.00
    6   -8    7     -0.19      0.00
    7   -8    7     -0.94      0.00
    8   -8    7      3.79      0.00
    9   -8    7     -0.04      0.00
   10   -8    7      1.73      0.00
  -11   -7    7     -1.37      0.00
    5   -7    7     -0.15      0.00
    6   -7    7      2.27      0.00
    7   -7    7     -1.49      0.00
    8   -7    7     -1.18      0.00
    9   -7    7     -1.20      0.00
   10   -7    7     -0.39      0.00
   11   -7    7     -1.80      0.00
    4   -6    7     -0.89      0.00
    5   -6    7     -0.47      0.00
    6   -6    7     -1.39      0.00
    7   -6    7      1.22      0.00
    8   -6    7      2.59      0.00
    9   -6    7     -0.81      0.00
   10   -6    7      2.29      0.00
   11   -6    7      1.09      0.00
   12   -6    7      1.53      0.00
  -12   -5    7     -1.57      0.00
    5   -5    7      1.21      0.00
    6   -5    7      1.07      0.00
    7   -5    7     -2.89      0.00
    8   -5    7     -1.30      0.00
    9   -5    7     -1.09      0.00
   10   -5    7     -0.58      0.00
   11   -5    7     -2.82      0.00
   12   -5    7      0.44      0.00
  -12   -4    7     -0.88      0.00
    6   -4    7     -0.90      0.00
  -12   -3    7      1.66      0.00
    0   -3    7     -1.49      0.00
   11   -3    7      0.27      0.00
  -13   -2    7     -1.29      0.00
  -12   -2    7     -1.45      0.00
   11   -2    7     -2.69      0.00
   12   -2    7     -2.87      0.00
  -13   -1    7      0.50      0.00
  -12   -1    7     -2.13      0.00
   11   -1    7      6.91      0.00
   12   -1    7      1.45      0.00
   13   -1    7      0.14      0.00
  -13    0    7      0.92      0.00
  -12    0    7      3.73      0.00
   11    0    7     -5.33      0.00
   12    0    7     -3.18      0.00
  -13    1    7     -1.24      0.00
  -12    1    7     -2.93      0.00
   11    1    7      6.29      0.00
   12    1    7      0.79      0.00
  -13    2    7      0.91      0.00
  -12    2    7      1.87      0.00
   11    2    7     -1.10      0.00
   12    2    7     -2.38      0.00
  -13    3    7     -0.34      0.00
  -12    3    7      0.16      0.00
  -11    3    7     -3.89      0.00
   11    3    7      2.77      0.00
   12    3    7      0.25      0.00
  -12    4    7      0.86      0.00
  -11    4    7      0.55      0.00
   11    4    7     -2.41      0.00
   12    4    7     -1.33      0.00
  -12    5    7      0.24      0.00
  -11    5    7      0.27      0.00
   11    5    7      1.53      0.00
  -12    6    7     -0.16      0.00
   11    6    7     -1.13      0.00
  -11    8    7      0.29      0.00
  -10    8    7      1.04      0.00
   -9    8    7     -0.96      0.00
  -10    9    7      0.21      0.00
    9    9    7      2.74      0.00
   -9   10    7     -1.46      0.00
   -8   10    7     -4.42      0.00
    7   10    7      0.29      0.00
    8   10    7     -1.92      0.00
   -8   11    7      2.96      0.00
   -7   11    7      2.97      0.00
   -6   11    7     -0.66      0.00
   -5   11    7      5.50      0.00
    4   11    7     -1.87      0.00
    5   11    7     -1.98      0.00
    6   11    7     -2.42      0.00
   -6   12    7     -0.93      0.00
   -5   12    7     -2.83      0.00
   -4   12    7     -0.57      0.00
    0   12    7     -3.89      0.00
    1   12    7     -3.74      0.00
    2   12    7      1.63      0.00
    3   12    7      2.01      0.00
    4   12    7      2.65      0.00
    5   12    7      1.18      0.00
   -4   13    7      0.10      0.00
    0   13    7      1.94      0.00
    1   13    7      2.64      0.00
    2   13    7      1.47      0.00
   -2  -13    8     -0.42      0.00
   -1  -13    8      0.49      0.00
    0  -13    8      0.40      0.00
    1  -13    8      1.56      0.00
    2  -13    8      2.73      0.00
    3  -13    8     -1.78      0.00
    4  -13    8     -2.59      0.00
   -5  -12    8      0.22      0.00
   -4  -12    8      0.98      0.00
   -3  -12    8      0.05      0.00
   -2  -12    8     -2.27      0.00
   -1  -12    8     -0.27      0.00
    0  -12    8     -0.28      0.00
    1  -12    8     -3.96      0.00
    5  -12    8      2.27      0.00
    6  -12    8     -0.70      0.00
   -7  -11    8     -1.16      0.00
   -6  -11    8      2.70      0.00
   -5  -11    8     -2.61      0.00
   -4  -11    8     -1.25      0.00
   -3  -11    8      0.50      0.00
    5  -11    8      1.01      0.00
    6  -11    8      0.80      0.00
    7  -11    8      0.90      0.00
    8  -11    8      1.09      0.00
   -8  -10    8      3.21      0.00
   -7  -10    8     -2.14      0.00
   -6  -10    8     -1.05      0.00
    5  -10    8     -0.33      0.00
    6  -10    8      0.73      0.00
    7  -10    8     -3.14      0.00
    8  -10    8      0.31      0.00
    9  -10    8      0.49      0.00
   -9   -9    8     -0.19      0.00
   -8   -9    8     -2.00      0.00
    5   -9    8     -2.89      0.00
    6   -9    8      1.51      0.00
    7   -9    8      2.09      0.00
    8   -9    8     -1.36      0.00
    9   -9    8     -0.65      0.00
   10   -9    8      1.38      0.00
  -10   -8    8     -1.71      0.00
    5   -8    8      2.32      0.00
    6   -8    8     -1.04      0.00
    7   -8    8     -3.15      0.00
    8   -8    8      3.26      0.00
    9   -8    8     -0.34      0.00
   10   -8    8      0.91      0.00
    5   -7    8     -1.57      0.00
    6   -7    8      3.64      0.00
    7   -7    8     -0.02      0.00
    8   -7    8     -0.87      0.00
    9   -7    8     -1.41      0.00
   10   -7    8     -0.44      0.00
   11   -7    8     -0.77      0.00
    5   -6    8      0.38      0.00
    6   -6    8     -2.00      0.00
    7   -6    8     -0.17      0.00
    8   -6    8      1.57      0.00
    9   -6    8     -0.21      0.00
   10   -6    8      1.45      0.00
   11   -6    8      0.60      0.00
    5   -5    8      0.36      0.00
    6   -5    8      0.95      0.00
    7   -5    8     -1.71      0.00
    8   -5    8     -0.07      0.00
    9   -5    8     -0.88      0.00
   10   -5    8      1.34      0.00
   11   -5    8     -1.43      0.00
   12   -5    8      1.95      0.00
  -12   -4    8      0.17      0.00
  -12   -3    8      0.54      0.00
  -12   -2    8     -0.37      0.00
   11   -2    8     -5.15      0.00
   12   -2    8     -6.36      0.00
  -13   -1    8      0.98      0.00
  -12   -1    8     -0.85      0.00
   11   -1    8      6.40      0.00
   12   -1    8      2.73      0.00
  -13    0    8      0.97      0.00
  -12    0    8      0.61      0.00
   11    0    8     -2.89      0.00
   12    0    8     -2.02      0.00
  -13    1    8     -1.57      0.00
  -12    1    8     -0.39      0.00
   11    1    8      3.54      0.00
   12    1    8      0.09      0.00
  -13    2    8      1.02      0.00
  -12    2    8      1.17      0.00
  -11    2    8      4.16      0.00
   11    2    8     -1.29      0.00
   12    2    8     -1.47      0.00
  -12    3    8     -0.71      0.00
  -11    3    8     -6.37      0.00
   11    3    8      2.78      0.00
   12    3    8      0.40      0.00
  -12    4    8      2.44      0.00
  -11    4    8      2.81      0.00
   11    4    8     -2.71      0.00
  -12    5    8     -1.00      0.00
  -11    5    8     -1.23      0.00
   11    5    8      2.93      0.00
  -12    6    8      0.06      0.00
   11    6    8     -2.58      0.00
   10    7    8      1.88      0.00
  -11    8    8     -0.39      0.00
  -10    8    8      0.98      0.00
   -9    8    8     -1.63      0.00
  -10    9    8      0.35      0.00
   -9    9    8     -0.52      0.00
   -9   10    8     -0.51      0.00
   -8   10    8     -2.87      0.00
   -7   10    8      0.65      0.00
    7   10    8     -1.85      0.00
   -8   11    8      2.09      0.00
   -7   11    8      2.82      0.00
   -6   11    8     -0.38      0.00
   -5   11    8      3.40      0.00
   -4   11    8     -2.37      0.00
    2   11    8     -2.98      0.00
    3   11    8     -4.06      0.00
    4   11    8     -0.27      0.00
    5   11    8     -0.28      0.00
    6   11    8     -0.53      0.00
   -6   12    8     -3.51      0.00
   -5   12    8     -0.47      0.00
   -4   12    8      1.30      0.00
    1   12    8     -1.48      0.00
    2   12    8      5.98      0.00
    3   12    8      0.28      0.00
    4   12    8      1.16      0.00
   -3   13    8      1.46      0.00
    1   13    8     -0.65      0.00
    2   13    8     -0.85      0.00
   -2  -13    9     -1.00      0.00
   -1  -13    9     -0.57      0.00
    0  -13    9     -0.55      0.00
    1  -13    9      1.82      0.00
    2  -13    9     -0.73      0.00
    3  -13    9     -3.83      0.00
   -5  -12    9     -0.16      0.00
   -4  -12    9      0.34      0.00
   -3  -12    9      2.01      0.00
   -2  -12    9     -0.29      0.00
   -1  -12    9      2.11      0.00
    0  -12    9      1.35      0.00
    1  -12    9     -3.10      0.00
    2  -12    9      1.72      0.00
    5  -12    9      1.53      0.00
    6  -12    9      0.18      0.00
   -6  -11    9      1.15      0.00
   -5  -11    9     -1.51      0.00
   -4  -11    9     -2.55      0.00
   -3  -11    9     -0.64      0.00
   -2  -11    9     -0.41      0.00
    5  -11    9      1.46      0.00
    6  -11    9     -0.61      0.00
    7  -11    9     -0.43      0.00
   -8  -10    9      1.45      0.00
   -7  -10    9     -2.90      0.00
   -6  -10    9      1.31      0.00
   -5  -10    9      1.53      0.00
    5  -10    9     -1.50      0.00
    6  -10    9      1.53      0.00
    7  -10    9     -2.38      0.00
    8  -10    9      0.10      0.00
   -9   -9    9     -0.60      0.00
   -8   -9    9      1.79      0.00
   -2   -9    9     -1.56      0.00
    5   -9    9     -2.29      0.00
    6   -9    9      1.95      0.00
    7   -9    9      1.89      0.00
    8   -9    9      0.15      0.00
    9   -9    9      0.01      0.00
  -10   -8    9     -1.52      0.00
    5   -8    9      2.06      0.00
    6   -8    9     -1.14      0.00
    7   -8    9     -3.09      0.00
    8   -8    9      1.46      0.00
    9   -8    9     -0.02      0.00
   10   -8    9      1.11      0.00
    5   -7    9     -2.44      0.00
    6   -7    9      3.91      0.00
    7   -7    9     -0.39      0.00
    8   -7    9     -0.33      0.00
    9   -7    9     -2.74      0.00
   10   -7    9     -0.95      0.00
   11   -7    9     -0.37      0.00
    5   -6    9      0.39      0.00
    6   -6    9     -1.94      0.00
    7   -6    9     -0.20      0.00
    8   -6    9      2.03      0.00
    9   -6    9      2.47      0.00
   10   -6    9      1.27      0.00
   11   -6    9     -0.12      0.00
    6   -5    9      0.89      0.00
    7   -5    9     -1.06      0.00
    8   -5    9     -1.51      0.00
    9   -5    9     -2.46      0.00
   10   -5    9      1.55      0.00
   11   -5    9     -0.32      0.00
   12   -5    9      2.84      0.00
  -12   -4    9      2.37      0.00
  -12   -3    9     -3.68      0.00
  -12   -2    9      4.14      0.00
   12   -2    9     -3.19      0.00
  -12   -1    9     -1.96      0.00
   11   -1    9      3.60      0.00
   12   -1    9      0.01      0.00
  -13    0    9     -0.42      0.00
  -12    0    9     -1.05      0.00
   11    0    9      0.32      0.00
   12    0    9      0.08      0.00
  -13    1    9      0.22      0.00
  -12    1    9      1.60      0.00
   11    1    9     -0.24      0.00
   12    1    9     -0.62      0.00
  -12    2    9     -0.20      0.00
  -11    2    9      4.11      0.00
   11    2    9     -0.34      0.00
   12    2    9     -0.27      0.00
  -12    3    9     -0.23      0.00
  -11    3    9     -4.61      0.00
   11    3    9      2.02      0.00
   12    3    9      0.49      0.00
  -12    4    9      2.18      0.00
  -11    4    9      1.88      0.00
   11    4    9     -1.80      0.00
  -12    5    9     -1.43      0.00
  -11    5    9     -0.82      0.00
  -10    5    9     -3.06      0.00
   10    5    9      1.30      0.00
   11    5    9      1.23      0.00
   10    6    9     -1.94      0.00
   10    7    9      0.95      0.00
  -10    8    9      0.86      0.00
   -9    8    9     -2.61      0.00
   -8    8    9     -0.30      0.00
  -10    9    9      0.60      0.00
   -9    9    9     -0.68      0.00
   -8    9    9      0.66      0.00
   -9   10    9      0.16      0.00
   -8   10    9     -0.79      0.00
   -7   10    9      4.69      0.00
   -6   10    9     -1.57      0.00
    7   10    9     -2.49      0.00
   -7   11    9      0.67      0.00
   -6   11    9     -1.78      0.00
   -5   11    9      3.00      0.00
   -4   11    9     -2.19      0.00
    3   11    9      0.31      0.00
    4   11    9      2.07      0.00
    5   11    9      2.77      0.00
    6   11    9      1.43      0.00
   -6   12    9     -2.67      0.00
   -5   12    9     -0.39      0.00
   -4   12    9      0.20      0.00
    1   12    9      3.44      0.00
    2   12    9      4.46      0.00
    3   12    9     -1.57      0.00
    4   12    9     -0.91      0.00
   -3   13    9      2.18      0.00
    1   13    9     -5.21      0.00
   -1  -13   10     -0.65      0.00
    0  -13   10     -1.23      0.00
    1  -13   10      1.10      0.00
    2  -13   10     -3.08      0.00
   -4  -12   10     -0.04      0.00
   -3  -12   10      1.69      0.00
   -2  -12   10      0.98      0.00
   -1  -12   10      2.99      0.00
    0  -12   10      1.87      0.00
    1  -12   10     -1.06      0.00
    2  -12   10      3.41      0.00
    5  -12   10      0.13      0.00
   -6  -11   10     -0.36      0.00
   -5  -11   10     -0.42      0.00
   -4  -11   10     -3.06      0.00
   -3  -11   10     -0.95      0.00
   -2  -11   10     -2.31      0.00
    5  -11   10      1.47      0.00
    6  -11   10     -0.86      0.00
    7  -11   10     -0.69      0.00
   -7  -10   10     -2.16      0.00
   -6  -10   10      1.56      0.00
   -5  -10   10      1.72      0.00
    5  -10   10     -1.05      0.00
    6  -10   10      1.93      0.00
    7  -10   10     -1.81      0.00
    8  -10   10     -0.35      0.00
   -8   -9   10      3.55      0.00
   -7   -9   10      0.92      0.00
   -2   -9   10     -0.06      0.00
    5   -9   10     -2.68      0.00
    6   -9   10      2.00      0.00
    7   -9   10      1.76      0.00
    8   -9   10      1.09      0.00
    9   -9   10     -0.87      0.00
   -9   -8   10     -1.05      0.00
    5   -8   10      1.84      0.00
    6   -8   10     -0.99      0.00
    7   -8   10     -3.97      0.00
    8   -8   10      0.19      0.00
    9   -8   10      0.92      0.00
   10   -8   10      0.57      0.00
    5   -7   10     -2.85      0.00
    6   -7   10      3.79      0.00
    7   -7   10      0.83      0.00
    8   -7   10      0.14      0.00
    9   -7   10     -2.47      0.00
   10   -7   10     -0.29      0.00
    6   -6   10     -1.85      0.00
    7   -6   10     -1.35      0.00
    8   -6   10      2.33      0.00
    9   -6   10      1.92      0.00
   10   -6   10     -0.86      0.00
   11   -6   10     -1.84      0.00
    7   -5   10      0.62      0.00
    8   -5   10     -3.02      0.00
    9   -5   10     -0.84      0.00
   10   -5   10      4.04      0.00
   11   -5   10      1.93      0.00
  -12   -4   10      0.51      0.00
   12   -4   10     -2.13      0.00
  -12   -3   10     -3.35      0.00
    0   -3   10     -3.23      0.00
   12   -3   10      0.45      0.00
  -12   -2   10      7.36      0.00
   12   -2   10      0.52      0.00
  -12   -1   10     -5.59      0.00
    2   -1   10     -2.90      0.00
   11   -1   10     -2.65      0.00
   12   -1   10     -3.22      0.00
  -12    0   10      0.99      0.00
   11    0   10      4.48      0.00
   12    0   10      1.93      0.00
  -12    1   10      0.42      0.00
  -11    1   10     -1.29      0.00
   11    1   10     -2.54      0.00
   12    1   10     -0.40      0.00
  -12    2   10      0.36      0.00
  -11    2   10      3.51      0.00
   11    2   10     -0.35      0.00
   12    2   10     -0.48      0.00
  -12    3   10     -0.27      0.00
  -11    3   10     -2.32      0.00
    5    3   10     -4.87      0.00
   10    3   10     -2.18      0.00
   11    3   10      0.82      0.00
  -12    4   10      0.29      0.00
  -11    4   10     -0.06      0.00
   10    4   10      2.26      0.00
   11    4   10      0.19      0.00
  -12    5   10     -0.13      0.00
  -11    5   10      1.41      0.00
   10    5   10     -2.20      0.00
   11    5   10     -0.60      0.00
   10    6   10      1.20      0.00
  -11    7   10     -1.83      0.00
   10    7   10     -1.01      0.00
  -10    8   10      0.58      0.00
   -9    8   10     -1.35      0.00
   -8    8   10      1.16      0.00
   -9    9   10     -0.83      0.00
   -8    9   10     -0.81      0.00
   -7    9   10     -1.20      0.00
   -8   10   10      0.24      0.00
   -7   10   10      6.19      0.00
   -6   10   10      2.08      0.00
   -5   10   10      3.59      0.00
    6   10   10     -1.21      0.00
    7   10   10     -1.42      0.00
   -7   11   10     -1.09      0.00
   -6   11   10     -5.79      0.00
   -5   11   10      0.97      0.00
   -4   11   10     -1.43      0.00
    3   11   10      1.75      0.00
    4   11   10      4.16      0.00
    5   11   10      2.00      0.00
   -5   12   10      2.25      0.00
   -4   12   10      1.11      0.00
    2   12   10     -0.49      0.00
    3   12   10     -1.98      0.00
   -4  -12   11     -0.90      0.00
   -3  -12   11      2.00      0.00
   -2  -12   11      0.41      0.00
   -1  -12   11      1.97      0.00
    0  -12   11      0.46      0.00
    1  -12   11      0.88      0.00
    2  -12   11      1.69      0.00
    5  -12   11      1.05      0.00
   -6  -11   11     -0.33      0.00
   -5  -11   11      0.95      0.00
   -4  -11   11     -1.33      0.00
   -3  -11   11     -1.25      0.00
   -2  -11   11     -0.23      0.00
   -1  -11   11     -3.38      0.00
    5  -11   11     -0.12      0.00
    6  -11   11     -1.15      0.00
    7  -11   11     -0.57      0.00
   -7  -10   11     -0.79      0.00
   -6  -10   11      1.12      0.00
   -5  -10   11      1.11      0.00
   -4  -10   11      1.89      0.00
    5  -10   11     -0.25      0.00
    6  -10   11      3.03      0.00
    7  -10   11     -1.24      0.00
    8  -10   11      0.57      0.00
   -8   -9   11      3.98      0.00
   -7   -9   11     -0.19      0.00
    5   -9   11     -2.33      0.00
    6   -9   11      0.54      0.00
    7   -9   11      0.70      0.00
    8   -9   11     -0.64      0.00
    9   -9   11     -1.34      0.00
   -9   -8   11     -3.27      0.00
    5   -8   11      1.07      0.00
    6   -8   11      0.73      0.00
    7   -8   11     -3.21      0.00
    8   -8   11      2.34      0.00
    9   -8   11      1.10      0.00
   10   -8   11      0.31      0.00
    5   -7   11     -3.52      0.00
    6   -7   11      1.98      0.00
    7   -7   11      0.48      0.00
    8   -7   11     -1.69      0.00
    9   -7   11     -1.69      0.00
   10   -7   11     -0.32      0.00
    6   -6   11      0.44      0.00
    7   -6   11     -0.95      0.00
    8   -6   11      2.04      0.00
    9   -6   11      1.37      0.00
   10   -6   11     -1.34      0.00
   11   -6   11     -0.96      0.00
    7   -5   11      0.97      0.00
    8   -5   11     -2.05      0.00
    9   -5   11      0.65      0.00
   10   -5   11      4.02      0.00
   11   -5   11      0.52      0.00
    0   -4   11     -1.27      0.00
  -12   -3   11     -0.28      0.00
   12   -3   11     -1.15      0.00
  -12   -2   11      5.12      0.00
   12   -2   11      1.82      0.00
  -12   -1   11     -4.88      0.00
   11   -1   11     -6.48      0.00
   12   -1   11     -3.86      0.00
  -12    0   11      1.27      0.00
   11    0   11      6.01      0.00
   12    0   11      1.82      0.00
  -12    1   11      0.03      0.00
  -11    1   11      1.86      0.00
   10    1   11     -1.27      0.00
   11    1   11     -2.82      0.00
   12    1   11      0.32      0.00
  -12    2   11     -0.37      0.00
  -11    2   11      0.69      0.00
   10    2   11      0.99      0.00
   11    2   11     -0.57      0.00
  -12    3   11      0.07      0.00
  -11    3   11      0.50      0.00
   10    3   11      1.05      0.00
   11    3   11      0.26      0.00
  -12    4   11     -0.75      0.00
  -11    4   11     -0.28      0.00
  -10    4   11     -1.58      0.00
   10    4   11      1.13      0.00
   11    4   11      0.28      0.00
   10    5   11     -3.36      0.00
   10    6   11      3.31      0.00
  -11    7   11     -1.56      0.00
  -10    8   11      1.51      0.00
   -9    8   11      0.07      0.00
   -8    8   11      0.07      0.00
   -9    9   11     -1.74      0.00
   -8    9   11     -0.29      0.00
   -7    9   11      1.20      0.00
    8    9   11      1.53      0.00
   -8   10   11     -0.88      0.00
   -7   10   11      5.45      0.00
   -6   10   11      1.62      0.00
   -5   10   11      2.08      0.00
    5   10   11     -3.57      0.00
    6   10   11     -1.47      0.00
   -7   11   11     -0.81      0.00
   -6   11   11     -3.41      0.00
   -5   11   11      2.10      0.00
   -4   11   11      1.71      0.00
    4   11   11      2.68      0.00
    5   11   11      0.87      0.00
   -5   12   11     -0.05      0.00
   -4   12   11     -2.26      0.00
    2   12   11      0.52      0.00
    3   12   11     -2.22      0.00
   -3  -12   12      2.63      0.00
   -2  -12   12      0.61      0.00
   -1  -12   12      1.27      0.00
    0  -12   12      0.86      0.00
    1  -12   12      0.88      0.00
    2  -12   12     -0.24      0.00
    3  -12   12      0.96      0.00
   -5  -11   12      1.24      0.00
   -4  -11   12     -1.29      0.00
   -3  -11   12     -0.95      0.00
   -2  -11   12      0.22      0.00
   -1  -11   12     -2.78      0.00
    0  -11   12     -0.19      0.00
    5  -11   12      0.63      0.00
    6  -11   12     -0.41      0.00
   -7  -10   12     -0.22      0.00
   -6  -10   12      0.23      0.00
   -5  -10   12     -0.64      0.00
   -4  -10   12      0.78      0.00
   -3  -10   12     -1.70      0.00
    5  -10   12     -0.47      0.00
    6  -10   12      3.20      0.00
    7  -10   12     -2.11      0.00
   -8   -9   12      0.97      0.00
   -7   -9   12     -1.85      0.00
   -6   -9   12     -0.24      0.00
    5   -9   12     -2.40      0.00
    6   -9   12     -0.30      0.00
    7   -9   12      1.11      0.00
    8   -9   12     -0.02      0.00
   -9   -8   12      0.58      0.00
   -8   -8   12      0.02      0.00
    5   -8   12      0.82      0.00
    6   -8   12      1.46      0.00
    7   -8   12     -3.20      0.00
    8   -8   12      0.45      0.00
    9   -8   12     -1.05      0.00
  -10   -7   12     -1.65      0.00
    6   -7   12      1.48      0.00
    7   -7   12      0.31      0.00
    8   -7   12      1.22      0.00
    9   -7   12      1.23      0.00
   10   -7   12      0.65      0.00
    6   -6   12      0.89      0.00
    7   -6   12     -0.14      0.00
    8   -6   12     -2.09      0.00
    9   -6   12     -0.35      0.00
   10   -6   12     -2.11      0.00
    8   -5   12      0.16      0.00
    9   -5   12      2.23      0.00
   10   -5   12      3.20      0.00
   11   -5   12     -0.32      0.00
  -12   -2   12     -0.84      0.00
  -12   -1   12     -0.60      0.00
    2   -1   12     -1.70      0.00
   11   -1   12     -3.26      0.00
  -12    0   12     -0.92      0.00
  -11    0   12     -4.28      0.00
   10    0   12      4.66      0.00
   11    0   12      4.37      0.00
  -12    1   12      1.13      0.00
  -11    1   12      5.34      0.00
   10    1   12     -0.97      0.00
   11    1   12     -2.68      0.00
  -12    2   12     -2.00      0.00
  -11    2   12     -1.35      0.00
   10    2   12      0.47      0.00
   11    2   12      0.34      0.00
  -12    3   12      0.82      0.00
  -11    3   12      1.70      0.00
   10    3   12      1.44      0.00
   11    3   12     -1.22      0.00
  -12    4   12     -1.25      0.00
  -11    4   12      0.47      0.00
  -10    4   12     -1.23      0.00
   10    4   12      0.90      0.00
   11    4   12      1.54      0.00
   10    5   12     -1.80      0.00
    9    6   12      1.52      0.00
   10    6   12      1.03      0.00
    9    7   12     -2.41      0.00
  -10    8   12      2.57      0.00
   -9    8   12      0.94      0.00
   -8    8   12     -1.36      0.00
   -7    8   12     -0.46      0.00
   -9    9   12     -1.76      0.00
   -8    9   12      0.15      0.00
   -7    9   12     -0.29      0.00
   -6    9   12     -5.77      0.00
   -8   10   12     -1.30      0.00
   -7   10   12      7.25      0.00
   -6   10   12      0.76      0.00
   -5   10   12     -0.02      0.00
   -4   10   12     -5.32      0.00
    5   10   12     -1.27      0.00
    6   10   12      0.00      0.00
   -6   11   12     -3.55      0.00
   -5   11   12      0.70      0.00
   -4   11   12      3.17      0.00
   -3   11   12      2.80      0.00
   -4   12   12     -2.14      0.00
   -3   12   12      0.09      0.00
   -2  -12   13     -0.71      0.00
   -1  -12   13     -1.25      0.00
    0  -12   13      1.84      0.00
    1  -12   13      0.82      0.00
    2  -12   13     -0.20      0.00
    3  -12   13      1.79      0.00
   -5  -11   13      1.09      0.00
   -4  -11   13     -2.45      0.00
   -3  -11   13     -0.12      0.00
   -2  -11   13      1.94      0.00
   -1  -11   13     -0.18      0.00
    0  -11   13     -0.87      0.00
    1  -11   13     -0.92      0.00
    2  -11   13     -1.38      0.00
    5  -11   13      0.14      0.00
    6  -11   13     -0.61      0.00
   -6  -10   13     -0.20      0.00
   -5  -10   13     -1.78      0.00
   -4  -10   13      0.62      0.00
   -3  -10   13     -1.60      0.00
   -2  -10   13      1.07      0.00
    5  -10   13      1.06      0.00
    6  -10   13      3.35      0.00
    7  -10   13     -1.88      0.00
   -8   -9   13     -0.56      0.00
   -7   -9   13     -3.05      0.00
   -6   -9   13      0.45      0.00
   -5   -9   13      3.26      0.00
    5   -9   13     -4.19      0.00
    6   -9   13     -0.10      0.00
    7   -9   13      0.44      0.00
    8   -9   13      0.93      0.00
   -9   -8   13      1.82      0.00
   -8   -8   13      1.02      0.00
   -7   -8   13      4.17      0.00
    6   -8   13      0.37      0.00
    7   -8   13     -2.34      0.00
    8   -8   13     -1.39      0.00
    9   -8   13     -0.98      0.00
   -9   -7   13      1.27      0.00
    6   -7   13      2.42      0.00
    7   -7   13      0.83      0.00
    8   -7   13      2.87      0.00
    9   -7   13      1.88      0.00
   10   -7   13     -0.11      0.00
    7   -6   13     -0.85      0.00
    8   -6   13     -4.17      0.00
    9   -6   13      0.14      0.00
   10   -6   13     -0.36      0.00
  -11   -5   13     -2.90      0.00
    9   -5   13      1.17      0.00
   10   -5   13     -0.41      0.00
  -12   -2   13     -2.78      0.00
  -11   -2   13     -7.14      0.00
  -12   -1   13      3.45      0.00
  -11   -1   13      9.45      0.00
   10   -1   13     -1.62      0.00
   11   -1   13      1.23      0.00
  -12    0   13     -4.23      0.00
  -11    0   13     -6.11      0.00
   10    0   13      0.41      0.00
   11    0   13      0.49      0.00
  -12    1   13      2.81      0.00
  -11    1   13      6.72      0.00
   10    1   13     -0.46      0.00
   11    1   13     -0.68      0.00
  -12    2   13     -3.50      0.00
  -11    2   13     -2.97      0.00
   10    2   13      1.44      0.00
   11    2   13      0.53      0.00
  -12    3   13      1.35      0.00
  -11    3   13      3.29      0.00
  -10    3   13      2.24      0.00
   10    3   13      0.88      0.00
   11    3   13     -1.22      0.00
  -11    4   13      0.24      0.00
  -10    4   13     -3.95      0.00
    9    4   13     -5.91      0.00
   10    4   13      0.31      0.00
    9    5   13      4.52      0.00
   10    5   13     -0.33      0.00
  -11    6   13      0.10      0.00
    9    6   13     -1.01      0.00
    9    7   13     -0.12      0.00
   -9    8   13     -0.81      0.00
   -8    8   13     -4.28      0.00
   -7    8   13     -2.88      0.00
   -8    9   13      1.81      0.00
   -7    9   13      3.73      0.00
   -6    9   13      1.94      0.00
   -7   10   13      2.77      0.00
   -6   10   13     -3.72      0.00
   -5   10   13     -2.78      0.00
   -4   10   13     -2.29      0.00
    6   10   13      1.28      0.00
   -6   11   13     -0.46      0.00
   -5   11   13      1.16      0.00
   -4   11   13      1.47      0.00
   -3   11   13     -0.57      0.00
   -3   12   13      3.19      0.00
    1   12   13      4.06      0.00
   -1  -12   14     -1.01      0.00
    0  -12   14      1.55      0.00
    1  -12   14     -0.24      0.00
    2  -12   14     -1.63      0.00
   -4  -11   14     -0.45      0.00
   -3  -11   14      1.15      0.00
   -2  -11   14      2.94      0.00
   -1  -11   14     -1.55      0.00
    0  -11   14     -1.26      0.00
    1  -11   14     -1.10      0.00
    2  -11   14     -0.46      0.00
    5  -11   14      0.07      0.00
   -6  -10   14     -0.56      0.00
   -5  -10   14     -0.75      0.00
   -4  -10   14     -0.80      0.00
   -3  -10   14     -1.23      0.00
   -2  -10   14     -0.62      0.00
   -1  -10   14      1.29      0.00
    5  -10   14      0.64      0.00
    6  -10   14      0.42      0.00
    7  -10   14     -1.97      0.00
   -7   -9   14     -2.25      0.00
   -6   -9   14      2.04      0.00
   -5   -9   14      2.61      0.00
   -4   -9   14      2.32      0.00
    6   -9   14      2.77      0.00
    7   -9   14      1.15      0.00
    8   -9   14      0.52      0.00
   -8   -8   14      3.98      0.00
   -7   -8   14      4.75      0.00
    6   -8   14     -1.39      0.00
    7   -8   14     -2.78      0.00
    8   -8   14     -1.51      0.00
    9   -8   14     -0.93      0.00
   -9   -7   14      2.36      0.00
    7   -7   14      2.14      0.00
    8   -7   14      2.75      0.00
    9   -7   14      2.74      0.00
  -10   -6   14     -2.63      0.00
   -1   -6   14      3.80      0.00
    7   -6   14     -0.74      0.00
    8   -6   14     -5.27      0.00
    9   -6   14     -0.37      0.00
   10   -6   14      0.51      0.00
   10   -5   14     -0.55      0.00
  -11   -4   14     -0.75      0.00
  -11   -3   14      1.29      0.00
  -11   -2   14     -1.76      0.00
  -11   -1   14      4.40      0.00
  -11    0   14     -3.26      0.00
   10    0   14     -3.19      0.00
   11    0   14     -1.47      0.00
  -12    1   14      1.17      0.00
  -11    1   14      4.59      0.00
    9    1   14     -0.26      0.00
   10    1   14      1.32      0.00
   11    1   14      1.44      0.00
  -11    2   14     -1.63      0.00
    9    2   14     -1.52      0.00
   10    2   14      0.82      0.00
   11    2   14     -0.27      0.00
  -11    3   14      2.11      0.00
  -10    3   14      1.42      0.00
    9    3   14      1.17      0.00
   10    3   14      0.37      0.00
  -11    4   14      0.02      0.00
  -10    4   14     -2.32      0.00
    9    4   14     -5.30      0.00
   10    4   14      0.49      0.00
    9    5   14      4.58      0.00
    9    6   14     -1.77      0.00
  -10    7   14      1.70      0.00
   -9    8   14      0.48      0.00
   -8    8   14     -1.72      0.00
   -7    8   14     -4.03      0.00
   -8    9   14      0.77      0.00
   -7    9   14      5.71      0.00
   -6    9   14      3.61      0.00
   -5    9   14      3.24      0.00
   -7   10   14     -0.64      0.00
   -6   10   14     -4.78      0.00
   -5   10   14     -2.99      0.00
   -4   10   14     -0.48      0.00
   -3   10   14     -1.10      0.00
    5   10   14      4.23      0.00
   -5   11   14      0.67      0.00
   -4   11   14      1.93      0.00
   -3   11   14     -0.13      0.00
   -4  -11   15      0.44      0.00
   -3  -11   15      1.27      0.00
   -2  -11   15      3.97      0.00
   -1  -11   15     -0.12      0.00
    0  -11   15     -0.78      0.00
    1  -11   15     -1.86      0.00
    2  -11   15     -1.29      0.00
    3  -11   15      0.34      0.00
   -5  -10   15      0.33      0.00
   -4  -10   15      0.33      0.00
   -3  -10   15     -0.10      0.00
   -2  -10   15     -1.26      0.00
   -1  -10   15     -1.05      0.00
    0  -10   15      3.79      0.00
    1  -10   15      2.54      0.00
    5  -10   15     -1.71      0.00
    6  -10   15     -0.08      0.00
   -7   -9   15     -1.75      0.00
   -6   -9   15      0.87      0.00
   -5   -9   15      0.92      0.00
   -4   -9   15     -2.18      0.00
   -3   -9   15     -2.64      0.00
   -2   -9   15     -0.01      0.00
    6   -9   15      2.28      0.00
    7   -9   15     -0.77      0.00
   -8   -8   15      2.73      0.00
   -7   -8   15      3.45      0.00
   -6   -8   15     -0.12      0.00
    6   -8   15     -0.02      0.00
    7   -8   15      1.14      0.00
    8   -8   15      0.17      0.00
   -9   -7   15      0.49      0.00
   -8   -7   15     -6.45      0.00
    7   -7   15     -1.59      0.00
    8   -7   15     -0.26      0.00
    9   -7   15      0.52      0.00
   -1   -6   15      4.28      0.00
    8   -6   15     -3.49      0.00
    9   -6   15      3.14      0.00
   10   -5   15     -0.78      0.00
    0   -4   15      1.41      0.00
  -11   -3   15     -0.65      0.00
  -11   -2   15      2.84      0.00
   11   -2   15      1.45      0.00
  -11   -1   15      0.16      0.00
   11   -1   15      0.12      0.00
  -11    0   15     -1.15      0.00
   11    0   15      0.42      0.00
  -11    1   15      2.98      0.00
   10    1   15      2.84      0.00
  -11    2   15     -1.92      0.00
  -10    2   15     -0.01      0.00
    9    2   15     -2.59      0.00
   10    2   15     -1.34      0.00
  -11    3   15      2.57      0.00
  -10    3   15     -0.72      0.00
    9    3   15      0.43      0.00
   10    3   15      1.07      0.00
  -11    4   15     -0.99      0.00
    9    4   15     -3.66      0.00
   10    4   15      0.42      0.00
    9    5   15      2.53      0.00
    8    6   15     -5.05      0.00
    9    6   15     -0.88      0.00
   -7    7   15      2.10      0.00
    8    7   15      0.22      0.00
   -8    8   15     -1.35      0.00
   -7    8   15     -2.22      0.00
   -6    8   15      2.29      0.00
   -7    9   15      3.56      0.00
   -6    9   15      1.02      0.00
   -5    9   15     -1.29      0.00
    6    9   15     -4.79      0.00
   -6   10   15     -2.55      0.00
   -5   10   15     -0.90      0.00
   -4   10   15     -0.87      0.00
   -3   10   15     -0.82      0.00
   -4   11   15      1.70      0.00
   -3   11   15     -1.47      0.00
   -3  -11   16      0.37      0.00
   -2  -11   16      1.08      0.00
   -1  -11   16     -0.04      0.00
    0  -11   16     -0.25      0.00
    1  -11   16     -0.44      0.00
    2  -11   16      0.01      0.00
    3  -11   16      1.32      0.00
   -5  -10   16      0.44      0.00
   -4  -10   16      0.58      0.00
   -3  -10   16      0.04      0.00
   -2  -10   16     -0.53      0.00
   -1  -10   16     -1.80      0.00
    0  -10   16      3.38      0.00
    1  -10   16      0.85      0.00
    2  -10   16     -0.70      0.00
    5  -10   16     -3.79      0.00
   -6   -9   16     -1.36      0.00
   -5   -9   16     -1.28      0.00
   -4   -9   16     -4.16      0.00
   -3   -9   16     -2.27      0.00
   -2   -9   16      1.57      0.00
   -1   -9   16     -0.49      0.00
    6   -9   16      1.82      0.00
    7   -9   16     -1.03      0.00
   -7   -8   16      3.03      0.00
   -6   -8   16      2.26      0.00
   -5   -8   16      1.88      0.00
   -4   -8   16      6.45      0.00
    6   -8   16      0.42      0.00
    7   -8   16      2.28      0.00
    8   -8   16     -2.25      0.00
   -8   -7   16     -7.00      0.00
   -7   -7   16     -6.30      0.00
    7   -7   16     -2.11      0.00
    8   -7   16      0.52      0.00
   -9   -6   16      5.13      0.00
    8   -6   16     -2.72      0.00
    9   -6   16      3.75      0.00
  -10   -5   16      0.54      0.00
   10   -4   16      1.47      0.00
   10   -3   16     -1.52      0.00
  -11   -2   16      0.62      0.00
  -11   -1   16      0.74      0.00
    3   -1   16     -6.63      0.00
  -11    0   16     -0.71      0.00
  -11    1   16      0.60      0.00
  -10    1   16     -1.55      0.00
  -11    2   16      0.06      0.00
  -10    2   16      2.91      0.00
   10    2   16     -1.05      0.00
  -11    3   16      0.22      0.00
  -10    3   16     -2.98      0.00
    8    3   16      1.28      0.00
    9    3   16     -0.07      0.00
   10    3   16      0.83      0.00
    8    4   16     -0.64      0.00
    9    4   16     -1.42      0.00
    8    5   16      3.50      0.00
    9    5   16     -0.12      0.00
    8    6   16     -2.34      0.00
   -7    7   16     -0.28      0.00
   -8    8   16      0.19      0.00
   -7    8   16      1.26      0.00
   -6    8   16      3.58      0.00
   -7    9   16     -1.29      0.00
   -6    9   16     -0.95      0.00
   -5    9   16     -3.03      0.00
   -4    9   16      1.61      0.00
   -5   10   16     -0.60      0.00
   -4   10   16     -1.78      0.00
   -3   10   16     -0.39      0.00
   -2   10   16      1.25      0.00
    4   10   16     -1.45      0.00
   -3   11   16     -2.05      0.00
   -2   11   16     -2.37      0.00
    1   11   16      0.29      0.00
   -1  -11   17      1.16      0.00
    0  -11   17      0.58      0.00
    1  -11   17     -0.58      0.00
    2  -11   17      1.02      0.00
   -4  -10   17      1.29      0.00
   -3  -10   17      1.87      0.00
   -2  -10   17     -1.51      0.00
   -1  -10   17     -3.34      0.00
    0  -10   17      0.52      0.00
    1  -10   17     -1.01      0.00
    2  -10   17     -2.41      0.00
    4  -10   17     -1.98      0.00
    5  -10   17     -1.61      0.00
   -6   -9   17     -1.93      0.00
   -5   -9   17     -2.24      0.00
   -4   -9   17     -3.96      0.00
   -3   -9   17     -3.61      0.00
   -2   -9   17      3.43      0.00
   -1   -9   17      0.60      0.00
    0   -9   17      2.22      0.00
    1   -9   17     -0.31      0.00
    6   -9   17     -0.28      0.00
   -7   -8   17      2.33      0.00
   -6   -8   17      2.43      0.00
   -5   -8   17      2.65      0.00
   -4   -8   17      5.08      0.00
   -3   -8   17      1.98      0.00
   -2   -8   17     -2.02      0.00
    7   -8   17      1.83      0.00
   -8   -7   17     -4.17      0.00
   -7   -7   17     -4.43      0.00
   -6   -7   17      0.06      0.00
    8   -7   17     -0.17      0.00
   -9   -6   17      5.58      0.00
   -8   -6   17      7.42      0.00
    9   -6   17      1.65      0.00
  -10   -4   17      1.34      0.00
    9   -3   17      0.25      0.00
   10   -3   17     -0.72      0.00
    3   -1   17     -3.34      0.00
  -11    0   17      0.90      0.00
  -10    0   17      0.89      0.00
  -11    1   17     -2.64      0.00
  -10    1   17     -3.65      0.00
   10    1   17     -1.11      0.00
  -10    2   17      4.17      0.00
  -10    3   17     -1.87      0.00
   -9    3   17     -2.74      0.00
    9    4   17      0.10      0.00
  -10    5   17      1.58      0.00
    8    5   17      0.34      0.00
    8    6   17     -0.16      0.00
   -7    7   17      0.11      0.00
   -6    7   17      1.43      0.00
    7    7   17      1.58      0.00
   -7    8   17     -0.87      0.00
   -6    8   17      2.37      0.00
   -5    8   17      1.67      0.00
   -6    9   17     -0.24      0.00
   -5    9   17     -1.73      0.00
   -4    9   17      1.54      0.00
   -3    9   17      3.72      0.00
    5    9   17     -2.75      0.00
   -5   10   17     -1.01      0.00
   -4   10   17     -2.22      0.00
   -3   10   17     -1.74      0.00
   -2   10   17      1.81      0.00
    3   10   17      0.35      0.00
   -3  -10   18      1.64      0.00
   -2  -10   18     -0.55      0.00
   -1  -10   18     -3.04      0.00
    0  -10   18     -1.01      0.00
    1  -10   18     -2.80      0.00
    4  -10   18     -0.79      0.00
   -5   -9   18     -0.44      0.00
   -4   -9   18     -2.40      0.00
   -3   -9   18     -2.15      0.00
   -2   -9   18      3.26      0.00
   -1   -9   18      1.46      0.00
    0   -9   18      5.30      0.00
    1   -9   18      1.95      0.00
    4   -9   18      0.19      0.00
   -6   -8   18      1.12      0.00
   -5   -8   18      0.56      0.00
   -4   -8   18      4.59      0.00
   -3   -8   18     -0.52      0.00
   -2   -8   18     -0.74      0.00
   -1   -8   18     -6.37      0.00
    0   -8   18     -0.50      0.00
   -7   -7   18     -2.42      0.00
   -6   -7   18      0.50      0.00
   -5   -7   18     -0.92      0.00
   -4   -7   18     -1.18      0.00
   -8   -6   18      3.66      0.00
   -7   -6   18      2.31      0.00
    5   -6   18      3.21      0.00
   -9   -5   18     -2.85      0.00
    6   -5   18     -5.25      0.00
    9   -5   18      2.79      0.00
    7   -4   18      4.20      0.00
    9   -4   18     -3.47      0.00
  -10   -3   18     -0.13      0.00
    8   -3   18      4.56      0.00
    9   -3   18      0.98      0.00
    2   -2   18     -2.94      0.00
    8   -2   18     -5.04      0.00
    9   -2   18      0.24      0.00
  -10   -1   18      3.03      0.00
    3   -1   18     -1.91      0.00
  -10    0   18      0.60      0.00
  -10    1   18     -1.39      0.00
  -10    2   18      0.91      0.00
    9    2   18      1.93      0.00
  -10    3   18      0.10      0.00
    9    3   18     -2.21      0.00
  -10    4   18     -0.10      0.00
    8    4   18      2.46      0.00
    8    5   18     -1.04      0.00
   -9    6   18      0.87      0.00
    7    6   18     -0.29      0.00
   -8    7   18      0.38      0.00
   -7    7   18      0.97      0.00
   -6    7   18     -1.55      0.00
   -7    8   18     -2.25      0.00
   -6    8   18      3.83      0.00
   -5    8   18      1.30      0.00
   -6    9   18     -1.15      0.00
   -5    9   18     -1.20      0.00
   -4    9   18      0.08      0.00
   -3    9   18      4.29      0.00
    4    9   18     -1.69      0.00
   -3   10   18     -2.26      0.00
   -2   10   18      1.43      0.00
   -2  -10   19      0.72      0.00
   -1  -10   19     -2.48      0.00
    0  -10   19     -0.04      0.00
    1  -10   19     -1.44      0.00
    2  -10   19      0.29      0.00
   -4   -9   19     -1.32      0.00
   -3   -9   19     -1.87      0.00
   -2   -9   19      1.54      0.00
   -1   -9   19     -0.06      0.00
    0   -9   19      4.06      0.00
    1   -9   19      0.39      0.00
    4   -9   19     -0.74      0.00
   -6   -8   19      0.35      0.00
   -5   -8   19     -0.65      0.00
   -4   -8   19      3.11      0.00
   -3   -8   19     -0.76      0.00
   -2   -8   19      1.53      0.00
   -1   -8   19     -5.02      0.00
    0   -8   19      0.51      0.00
    1   -8   19     -3.03      0.00
    4   -8   19     -0.35      0.00
    5   -8   19      1.77      0.00
   -7   -7   19     -0.18      0.00
   -6   -7   19      0.29      0.00
   -5   -7   19     -1.75      0.00
   -4   -7   19     -0.27      0.00
   -3   -7   19     -1.43      0.00
   -2   -7   19      4.51      0.00
    7   -7   19      1.15      0.00
   -8   -6   19      1.12      0.00
   -7   -6   19      1.85      0.00
   -6   -6   19      0.41      0.00
   -5   -6   19      0.51      0.00
    5   -6   19      4.52      0.00
   -8   -5   19     -5.29      0.00
   -7   -5   19     -2.25      0.00
    6   -5   19     -1.47      0.00
    8   -5   19     -0.07      0.00
   -9   -4   19      3.75      0.00
    7   -4   19      1.53      0.00
    8   -4   19     -4.17      0.00
    7   -3   19      1.73      0.00
    8   -3   19      4.94      0.00
    9   -3   19      0.95      0.00
    7   -2   19     -2.25      0.00
    8   -2   19     -3.39      0.00
    9   -2   19     -0.21      0.00
  -10   -1   19      4.01      0.00
    3   -1   19     -3.30      0.00
    7   -1   19      3.90      0.00
  -10    0   19     -0.75      0.00
  -10    1   19     -0.38      0.00
    9    1   19     -0.79      0.00
  -10    2   19     -0.02      0.00
   -9    2   19     -1.98      0.00
    9    2   19      1.37      0.00
    8    3   19     -1.84      0.00
    8    4   19      1.17      0.00
   -9    5   19     -3.15      0.00
    7    5   19      0.05      0.00
   -7    7   19     -2.83      0.00
   -6    7   19     -4.44      0.00
    6    7   19      0.69      0.00
   -6    8   19      3.30      0.00
   -5    8   19      1.60      0.00
   -4    8   19      3.25      0.00
   -5    9   19      0.16      0.00
   -4    9   19     -2.64      0.00
   -3    9   19     -1.02      0.00
   -2    9   19     -3.63      0.00
    3    9   19     -1.77      0.00
   -3   -9   20     -2.11      0.00
   -2   -9   20      0.77      0.00
   -1   -9   20     -2.53      0.00
    0   -9   20      1.93      0.00
   -5   -8   20     -0.67      0.00
   -4   -8   20      1.47      0.00
   -3   -8   20      0.41      0.00
   -2   -8   20      3.30      0.00
   -1   -8   20     -2.18      0.00
    0   -8   20      1.45      0.00
    4   -8   20     -1.05      0.00
    5   -8   20      1.42      0.00
   -6   -7   20      0.44      0.00
   -5   -7   20     -2.27      0.00
   -4   -7   20     -0.22      0.00
   -3   -7   20     -4.65      0.00
   -2   -7   20      0.83      0.00
   -1   -7   20     -3.97      0.00
    0   -7   20      2.60      0.00
    4   -7   20     -2.81      0.00
    5   -7   20     -3.02      0.00
    6   -7   20     -3.70      0.00
   -7   -6   20      2.09      0.00
   -6   -6   20      0.72      0.00
   -5   -6   20      2.13      0.00
   -4   -6   20      2.38      0.00
   -3   -6   20      0.52      0.00
    5   -6   20      5.55      0.00
    6   -6   20      0.54      0.00
    7   -6   20      1.88      0.00
   -8   -5   20     -3.29      0.00
   -7   -5   20     -2.67      0.00
   -6   -5   20     -2.81      0.00
    6   -5   20     -0.32      0.00
    7   -5   20      2.18      0.00
   -8   -4   20      2.74      0.00
    6   -4   20     -5.86      0.00
    7   -4   20      1.25      0.00
    8   -4   20     -1.76      0.00
   -9   -3   20      1.59      0.00
    6   -3   20     -1.83      0.00
    7   -3   20      1.04      0.00
    8   -3   20      2.84      0.00
    6   -2   20      4.77      0.00
    7   -2   20     -0.06      0.00
    8   -2   20     -1.34      0.00
    3   -1   20     -0.85      0.00
    6   -1   20     -6.57      0.00
    7   -1   20     -0.21      0.00
    8   -1   20     -0.17      0.00
    6    0   20      3.48      0.00
   -9    1   20      2.58      0.00
   -9    2   20     -1.90      0.00
    8    2   20      0.83      0.00
    8    3   20     -0.25      0.00
   -9    4   20     -0.55      0.00
    7    4   20      0.45      0.00
    7    5   20      0.65      0.00
   -6    6   20      1.97      0.00
    6    6   20      0.20      0.00
   -7    7   20     -4.29      0.00
   -6    7   20      0.28      0.00
   -5    7   20     -0.95      0.00
   -5    8   20      1.61      0.00
   -4    8   20      2.83      0.00
   -3    9   20      0.41      0.00
   -2    9   20     -0.39      0.00
   -1    9   20     -1.86      0.00
    1    9   20     -3.00      0.00
   -2   -9   21     -0.22      0.00
   -1   -9   21     -3.34      0.00
    0   -9   21      0.40      0.00
    2   -9   21      0.06      0.00
   -4   -8   21      0.73      0.00
   -3   -8   21      0.24      0.00
   -2   -8   21      5.28      0.00
   -1   -8   21      0.02      0.00
    0   -8   21      2.99      0.00
    4   -8   21     -0.65      0.00
   -5   -7   21     -1.16      0.00
   -4   -7   21     -0.42      0.00
   -3   -7   21     -4.23      0.00
   -2   -7   21     -1.92      0.00
   -1   -7   21     -4.40      0.00
    3   -7   21     -2.07      0.00
    4   -7   21     -2.55      0.00
    5   -7   21     -0.88      0.00
   -6   -6   21      1.11      0.00
   -5   -6   21      1.52      0.00
   -4   -6   21      3.97      0.00
   -3   -6   21      1.63      0.00
   -2   -6   21      5.70      0.00
   -1   -6   21      2.47      0.00
    3   -6   21      4.12      0.00
    4   -6   21      3.62      0.00
    5   -6   21      2.90      0.00
    6   -6   21      0.19      0.00
   -7   -5   21      0.33      0.00
   -6   -5   21     -3.16      0.00
   -5   -5   21     -0.82      0.00
   -4   -5   21     -3.12      0.00
    3   -5   21     -3.06      0.00
    4   -5   21     -2.30      0.00
    5   -5   21     -0.26      0.00
    6   -5   21     -0.58      0.00
    7   -5   21      0.26      0.00
   -8   -4   21      0.12      0.00
   -7   -4   21      2.29      0.00
   -6   -4   21      0.38      0.00
    4   -4   21      2.54      0.00
    5   -4   21     -1.84      0.00
    6   -4   21     -3.99      0.00
    7   -4   21      2.63      0.00
   -8   -3   21     -2.98      0.00
    5   -3   21      5.31      0.00
    6   -3   21     -2.44      0.00
    7   -3   21     -0.36      0.00
    8   -3   21      1.85      0.00
    5   -2   21      3.70      0.00
    6   -2   21      4.80      0.00
    7   -2   21      0.45      0.00
    8   -2   21     -0.10      0.00
   -9   -1   21     -0.88      0.00
    5   -1   21     -8.97      0.00
    6   -1   21     -6.93      0.00
    7   -1   21     -0.72      0.00
    8   -1   21     -1.09      0.00
   -9    0   21      0.84      0.00
    6    0   21      4.14      0.00
    7    0   21      0.63      0.00
    8    0   21      0.74      0.00
   -9    1   21      1.12      0.00
    8    1   21      0.61      0.00
   -9    2   21      0.26      0.00
    7    3   21      1.28      0.00
    6    4   21     -0.75      0.00
    7    4   21      0.03      0.00
    6    5   21     -1.39      0.00
   -7    6   21     -0.99      0.00
   -6    6   21     -1.57      0.00
   -6    7   21      2.49      0.00
   -5    7   21      0.29      0.00
   -4    8   21      1.63      0.00
   -3    8   21      0.18      0.00
   -3   -8   22      0.09      0.00
   -2   -8   22      3.23      0.00
   -1   -8   22     -1.16      0.00
    3   -8   22      1.41      0.00
   -4   -7   22     -1.13      0.00
   -3   -7   22     -4.11      0.00
   -2   -7   22     -0.21      0.00
   -1   -7   22     -2.30      0.00
    3   -7   22     -1.90      0.00
    4   -7   22     -0.09      0.00
   -6   -6   22     -0.81      0.00
   -5   -6   22     -0.07      0.00
   -4   -6   22      3.35      0.00
   -3   -6   22      2.06      0.00
   -2   -6   22      1.99      0.00
   -1   -6   22      1.56      0.00
    3   -6   22      2.54      0.00
    4   -6   22      0.02      0.00
    5   -6   22     -1.07      0.00
   -6   -5   22      0.24      0.00
   -5   -5   22      1.00      0.00
   -4   -5   22     -1.45      0.00
   -3   -5   22     -2.95      0.00
   -2   -5   22     -0.34      0.00
    3   -5   22     -2.09      0.00
    4   -5   22      0.72      0.00
    5   -5   22      1.69      0.00
    6   -5   22     -0.22      0.00
   -7   -4   22      0.79      0.00
   -6   -4   22     -2.54      0.00
   -5   -4   22      0.70      0.00
   -4   -4   22      1.18      0.00
   -3   -4   22      0.20      0.00
    3   -4   22     -1.38      0.00
    4   -4   22      0.79      0.00
    5   -4   22     -1.65      0.00
    6   -4   22     -1.79      0.00
   -7   -3   22     -0.41      0.00
   -6   -3   22     -0.26      0.00
    3   -3   22     -3.75      0.00
    4   -3   22     -1.04      0.00
    5   -3   22      4.13      0.00
    6   -3   22     -3.00      0.00
    7   -3   22     -0.44      0.00
   -8   -2   22      0.57      0.00
    4   -2   22     -0.73      0.00
    5   -2   22      3.20      0.00
    6   -2   22      2.54      0.00
    7   -2   22     -0.68      0.00
    4   -1   22     -3.89      0.00
    5   -1   22     -6.48      0.00
    6   -1   22     -2.68      0.00
    7   -1   22      0.97      0.00
    5    0   22      7.65      0.00
    6    0   22      1.04      0.00
    7    0   22     -0.63      0.00
    5    1   22     -3.45      0.00
    6    1   22     -0.01      0.00
    7    1   22     -0.30      0.00
    5    2   22     -1.25      0.00
    7    2   22     -1.24      0.00
   -8    3   22      0.26      0.00
    6    3   22      1.31      0.00
    6    4   22     -1.12      0.00
   -7    5   22     -0.10      0.00
    5    5   22      0.27      0.00
   -6    6   22     -1.66      0.00
   -5    6   22     -2.79      0.00
   -5    7   22      4.31      0.00
   -4    7   22      0.53      0.00
    3    7   22      4.45      0.00
   -2    8   22     -0.83      0.00
   -1    8   22     -5.44      0.00
    0    8   22     -1.59      0.00
   -3   -7   23     -2.55      0.00
   -2   -7   23      1.47      0.00
   -1   -7   23     -1.82      0.00
    3   -7   23     -1.26      0.00
   -5   -6   23      0.53      0.00
   -4   -6   23      1.55      0.00
   -3   -6   23     -0.68      0.00
   -2   -6   23     -0.71      0.00
    3   -6   23     -0.67      0.00
    4   -6   23     -2.62      0.00
   -6   -5   23      0.78      0.00
   -5   -5   23      0.01      0.00
   -4   -5   23      0.53      0.00
   -3   -5   23      1.34      0.00
   -2   -5   23      1.63      0.00
    3   -5   23      1.81      0.00
    4   -5   23      3.94      0.00
    5   -5   23      1.43      0.00
   -6   -4   23     -2.96      0.00
   -5   -4   23      1.18      0.00
   -4   -4   23      0.82      0.00
   -3   -4   23     -3.55      0.00
    2   -4   23     -0.06      0.00
    3   -4   23     -3.78      0.00
    4   -4   23     -2.05      0.00
    5   -4   23     -1.58      0.00
    6   -4   23     -1.63      0.00
   -7   -3   23      1.69      0.00
   -6   -3   23      0.24      0.00
   -5   -3   23     -2.22      0.00
   -4   -3   23     -1.40      0.00
    2   -3   23      2.54      0.00
    3   -3   23     -1.67      0.00
    4   -3   23      0.98      0.00
    5   -3   23      3.90      0.00
    6   -3   23     -1.38      0.00
   -7   -2   23     -1.70      0.00
   -6   -2   23     -1.13      0.00
    2   -2   23      2.63      0.00
    3   -2   23      3.27      0.00
    4   -2   23     -3.14      0.00
    5   -2   23      0.68      0.00
    6   -2   23      0.01      0.00
    2   -1   23     -3.56      0.00
    3   -1   23     -0.06      0.00
    4   -1   23     -1.17      0.00
    5   -1   23     -0.58      0.00
    6   -1   23      1.10      0.00
    2    0   23      0.83      0.00
    4    0   23      3.46      0.00
    5    0   23      1.04      0.00
    6    0   23     -2.60      0.00
    2    1   23      2.23      0.00
    4    1   23     -4.76      0.00
    5    1   23      0.47      0.00
    6    1   23      1.88      0.00
    4    2   23      3.62      0.00
    5    2   23     -0.64      0.00
    6    2   23      0.18      0.00
    4    3   23      1.88      0.00
    5    3   23     -1.94      0.00
    6    3   23      0.49      0.00
    5    4   23      0.31      0.00
   -6    5   23     -1.04      0.00
    4    5   23      1.78      0.00
   -5    6   23     -2.39      0.00
    3    6   23     -3.98      0.00
   -3    7   23     -5.32      0.00
    0    7   23      1.33      0.00
    1    7   23      3.89      0.00
    0   -7   24      1.03      0.00
   -3   -6   24     -2.35      0.00
   -2   -6   24     -0.85      0.00
    3   -6   24     -1.24      0.00
   -4   -5   24      1.17      0.00
   -3   -5   24      2.39      0.00
    3   -5   24      2.60      0.00
    4   -5   24      1.69      0.00
   -5   -4   24     -0.97      0.00
   -4   -4   24     -0.43      0.00
    2   -4   24     -0.05      0.00
    3   -4   24     -4.35      0.00
    4   -4   24     -0.94      0.00
    5   -4   24     -0.85      0.00
   -6   -3   24     -1.54      0.00
   -5   -3   24     -1.48      0.00
    2   -3   24      1.84      0.00
    3   -3   24      0.41      0.00
    4   -3   24      1.10      0.00
    5   -3   24      3.34      0.00
   -6   -2   24      1.23      0.00
    1   -2   24     -0.74      0.00
    2   -2   24      1.54      0.00
    3   -2   24      0.60      0.00
    4   -2   24     -3.98      0.00
    5   -2   24     -0.38      0.00
   -7   -1   24      4.13      0.00
    1   -1   24      0.25      0.00
    2   -1   24     -1.03      0.00
    3   -1   24      2.02      0.00
    4   -1   24      0.55      0.00
    5   -1   24      0.81      0.00
    6   -1   24      1.23      0.00
   -7    0   24     -1.93      0.00
    0    0   24     -1.89      0.00
    1    0   24     -0.44      0.00
    2    0   24     -0.41      0.00
    3    0   24      0.61      0.00
    4    0   24      0.80      0.00
    5    0   24     -0.28      0.00
    6    0   24     -0.85      0.00
   -7    1   24      1.25      0.00
    1    1   24     -0.29      0.00
    3    1   24     -6.06      0.00
    4    1   24     -2.54      0.00
    5    1   24      1.25      0.00
    1    2   24      0.22      0.00
    4    2   24      2.89      0.00
    5    2   24     -0.44      0.00
    0    3   24      1.29      0.00
    4    3   24      0.34      0.00
    5    3   24     -1.50      0.00
    4    4   24      1.47      0.00
   -5    5   24      0.55      0.00
    3    5   24      4.17      0.00
   -3    6   24     -1.77      0.00
   -1    6   24     -7.85      0.00
    0    6   24     -2.58      0.00
    1    6   24     -4.17      0.00
    0   -6   25     -3.06      0.00
   -3   -5   25     -0.05      0.00
   -2   -5   25     -1.13      0.00
   -1   -5   25      1.50      0.00
    2   -5   25      1.92      0.00
   -4   -4   25      0.35      0.00
   -3   -4   25     -0.23      0.00
    2   -4   25     -0.92      0.00
    3   -4   25     -3.04      0.00
   -5   -3   25     -1.48      0.00
   -4   -3   25      1.31      0.00
    2   -3   25      2.56      0.00
    3   -3   25      1.02      0.00
    4   -3   25      1.23      0.00
   -5   -2   25      3.06      0.00
    1   -2   25      0.65      0.00
    2   -2   25     -0.30      0.00
    3   -2   25     -0.64      0.00
    4   -2   25     -4.02      0.00
   -6   -1   25     -2.86      0.00
    1   -1   25     -0.36      0.00
    2   -1   25      0.58      0.00
    3   -1   25      2.83      0.00
    4   -1   25      1.07      0.00
    5   -1   25      1.06      0.00
   -6    0   25      0.12      0.00
    0    0   25      0.86      0.00
    1    0   25     -0.10      0.00
    2    0   25     -0.23      0.00
    3    0   25     -0.05      0.00
    4    0   25     -0.20      0.00
    5    0   25     -0.81      0.00
   -6    1   25      0.63      0.00
   -1    1   25     -1.42      0.00
    0    1   25     -1.30      0.00
    1    1   25     -2.81      0.00
    2    1   25     -2.44      0.00
    3    1   25     -4.33      0.00
    4    1   25     -0.86      0.00
   -2    2   25     -3.28      0.00
   -1    2   25     -0.12      0.00
    0    2   25      2.13      0.00
    1    2   25      4.02      0.00
    3    2   25      3.71      0.00
    4    2   25      1.13      0.00
   -5    3   25     -0.40      0.00
   -2    3   25      5.56      0.00
   -1    3   25     -0.04      0.00
    0    3   25     -0.12      0.00
    3    3   25     -4.30      0.00
   -4    4   25      0.77      0.00
   -2    4   25     -0.63      0.00
   -1    4   25     -4.23      0.00
    3    4   25     -1.82      0.00
   -3    5   25      0.19      0.00
   -2    5   25      5.63      0.00
   -1    5   25     -0.01      0.00
    0    5   25      1.22      0.00
    1    5   25      0.94      0.00
   -2   -4   26      0.34      0.00
   -1   -4   26     -1.37      0.00
    0   -4   26      1.43      0.00
    1   -4   26     -0.09      0.00
    2   -4   26     -0.38      0.00
   -3   -3   26     -3.52      0.00
   -2   -3   26      1.33      0.00
   -1   -3   26     -1.39      0.00
    0   -3   26     -1.94      0.00
    1   -3   26     -1.61      0.00
    2   -3   26      2.06      0.00
    3   -3   26     -0.07      0.00
   -4   -2   26      1.58      0.00
   -3   -2   26     -0.09      0.00
   -2   -2   26     -0.16      0.00
    1   -2   26     -0.27      0.00
    2   -2   26     -0.55      0.00
    3   -2   26     -0.42      0.00
   -4   -1   26     -0.42      0.00
   -3   -1   26     -0.86      0.00
    0   -1   26     -2.04      0.00
    1   -1   26     -0.82      0.00
    2   -1   26     -0.14      0.00
    3   -1   26      2.44      0.00
   -4    0   26      1.43      0.00
    0    0   26      1.35      0.00
    1    0   26      0.94      0.00
    2    0   26      1.24      0.00
    3    0   26     -0.28      0.00
   -1    1   26     -1.33      0.00
    0    1   26     -0.73      0.00
    1    1   26     -3.60      0.00
    2    1   26     -2.30      0.00
    3    1   26     -2.29      0.00
   -4    2   26     -1.82      0.00
   -2    2   26      0.92      0.00
   -1    2   26     -0.27      0.00
    0    2   26      2.17      0.00
    1    2   26      3.46      0.00
    2    2   26      6.56      0.00
    3    2   26      0.39      0.00
   -3    3   26      2.52      0.00
   -2    3   26      1.06      0.00
   -1    3   26      0.04      0.00
    0    3   26     -1.33      0.00
    2    3   26     -1.87      0.00
   -2    4   26      2.05      0.00
   -1    4   26     -2.94      0.00
    0    4   26      2.90      0.00
   -2   -2   27      0.77      0.00
   -1   -2   27      0.99      0.00
    0   -2   27      1.10      0.00
    1   -2   27     -1.08      0.00
   -2   -1   27     -0.66      0.00
   -1   -1   27     -1.92      0.00
    0   -1   27     -0.71      0.00
    1   -1   27     -0.04      0.00
   -3    0   27     -1.21      0.00
   -2    0   27      0.82      0.00
   -1    0   27      2.04      0.00
    0    0   27      1.94      0.00
    1    0   27      0.32      0.00
   -2    1   27     -1.03      0.00
   -1    1   27     -1.43      0.00
    0    1   27     -2.11      0.00
    1    1   27     -2.83      0.00
   -1    2   27      0.00      0.00
    0    2   27      3.81      0.00
    0    0    0      0.00      0.00
# SQUEEZE RESULTS (Version = 140518)
# Note: Data are Listed for all Voids in the P1 Unit Cell
# i.e. Centre of Gravity, Solvent Accessible Volume,
# Recovered number of Electrons in the Void and
# Details about the Squeezed Material
loop_
  _platon_squeeze_void_nr
  _platon_squeeze_void_average_x
  _platon_squeeze_void_average_y
  _platon_squeeze_void_average_z
  _platon_squeeze_void_volume
  _platon_squeeze_void_count_electrons
  _platon_squeeze_void_content
   1  0.000  0.500  0.000       400       112 ' '
   2  0.124  0.388  0.525        25        -1 ' '
   3  0.500  0.000  1.000        83        20 ' '
   4  0.486  0.420  0.688        11         0 ' '
   5  0.513  0.580  0.312        11         0 ' '
   6  0.875  0.612  0.475        25        -1 ' '
# Missing Reflections Below sin(th)/lambda = 0.25
loop_
  _platon_missing_refln_index_h
  _platon_missing_refln_index_k
  _platon_missing_refln_index_l
  _platon_missing_refln_theta
    1    0    0     1.844
    0    1    0     1.788
    0    2    0     3.577
    0   -4    1     7.206
    0   -3    1     5.427
    2   -2    1     5.088
    0   -1    1     1.990
    1   -1    1     2.670
    0    0    1     0.914
   -3    1    1     5.761
    0    1    1     2.026
    0    4    1     7.247
    0    5    1     9.041
    3   -4    2     9.022
    4   -4    2    10.217
    3   -3    2     7.749
    4   -3    2     9.128
    2   -2    2     5.345
    0   -1    2     2.529
    3   -4    3     9.264
    3   -3    3     8.032
    4   -3    3     9.379
    1    0    3     3.374
    3   -4    4     9.589
    4   -3    4     9.712
    0   -3    6     7.606
    0   -2    6     6.492
    0   -3    7     8.284
    2   -1   10    10.144
_platon_squeeze_void_probe_radius                  1.20
_platon_squeeze_details
)
TITL AnnMa38_2_P -1         R = 0.13
CELL   11.0720   11.4140   22.3100     91.12     92.52     93.32
SPGR P-1
# Solvent Accessible Volume =       553
# Electrons Found in S.A.V. =       133
# Note: Atoms in Void are Labelled as Cxxx and Qxxx for all Others
Q101 0.485 0.700 0.073 !       3.42 eA-3
Q102 0.381 0.690 0.051 !       3.07 eA-3
C103 0.056 0.520 0.111 !       2.94 eA-3
Q104 0.472 0.920 0.013 !       2.70 eA-3
Q105 0.048 0.677 0.061 !       2.46 eA-3
Q106 0.687 0.459 0.023 !       2.39 eA-3
C107 0.049 0.449 0.078 !       2.36 eA-3
C108 0.979 0.459 0.117 !       2.32 eA-3
C109 0.587 0.013 0.049 !       2.28 eA-3
C110 0.984 0.523 0.102 !       2.24 eA-3
C111 0.048 0.607 0.123 !       2.19 eA-3
C112 0.878 0.517 0.076 !       1.95 eA-3
C113 0.882 0.487 0.118 !       1.84 eA-3
C114 0.135 0.544 0.141 !       1.82 eA-3
C115 0.929 0.439 0.063 !       1.81 eA-3
Q116 1.000 0.517 0.195 !       1.78 eA-3
C117 0.084 0.380 0.173 !       1.70 eA-3
Q118 0.037 0.340 0.225 !       1.70 eA-3
Q119 0.060 0.647 0.023 !       1.69 eA-3
C120 0.840 0.425 0.084 !       1.69 eA-3
C121 0.441 0.010-0.001 !       1.65 eA-3
C122 0.169 0.494 0.188 !       1.64 eA-3
C123 0.142 0.515 0.069 !       1.63 eA-3
Q124 0.113 0.639 0.161 !       1.62 eA-3
C125 0.837 0.491 0.039 !       1.60 eA-3
C126 0.045 0.460 0.163 !       1.59 eA-3
Q127 0.215 0.456 0.142 !       1.58 eA-3
Q128 0.330 0.627 0.009 !       1.55 eA-3
C129 0.761 0.452 0.063 !       1.54 eA-3
Q130 0.382 0.749 0.024 !       1.51 eA-3
Q131 0.141 0.717 0.130 !       1.48 eA-3
Q132 0.091 0.967 0.051 !       1.48 eA-3
C133 0.514 0.016 0.042 !       1.47 eA-3
C134 0.286 0.591 0.125 !       1.47 eA-3
Q135 0.355 0.580 0.088 !       1.46 eA-3
C136 0.068 0.415 0.256 !       1.44 eA-3
Q137 0.315 0.619 0.076 !       1.41 eA-3
Q138 0.047 0.269 0.196 !       1.40 eA-3
Q139 0.334 0.246 0.250 !       1.39 eA-3
C140 0.078 0.569 0.169 !       1.38 eA-3
C141 0.095 0.432 0.203 !       1.37 eA-3
Q142 0.670 0.054 0.028 !       1.36 eA-3
C143 0.958 0.530 0.147 !       1.36 eA-3
Q144 0.511 0.660 0.265 !       1.32 eA-3
Q145 0.084 0.514 0.218 !       1.31 eA-3
Q146 0.858 0.323 0.221 !       1.28 eA-3
Q147 0.200 0.637 0.110 !       1.27 eA-3
Q148 0.451 0.840 0.073 !       1.25 eA-3
C149 0.188 0.549 0.224 !       1.24 eA-3
Q150 0.793 0.584 0.396 !       1.24 eA-3
C151 0.902 0.420 0.104 !       1.23 eA-3
Q152 0.325 0.617 0.161 !       1.22 eA-3
Q153 0.306 0.555 0.242 !       1.21 eA-3
Q154 0.163 0.341 0.149 !       1.21 eA-3
Q155 0.060 0.748 0.469 !       1.21 eA-3
Q156 0.862 0.310 0.171 !       1.21 eA-3
C157 0.863 0.594 0.025 !       1.19 eA-3
C158 0.913 0.617 0.076 !       1.18 eA-3
Q159 0.389 0.617 0.132 !       1.18 eA-3
Q160 0.008 0.318 0.172 !       1.18 eA-3
Q161 0.286 0.594 0.058 !       1.18 eA-3
Q162 0.148 0.619 0.251 !       1.17 eA-3
Q163 0.889 0.373 0.141 !       1.17 eA-3
Q164 0.795 0.517 0.088 !       1.17 eA-3
Q165 0.295 0.720 0.078 !       1.17 eA-3
C166 0.097 0.503 0.186 !       1.17 eA-3
Q167 0.684 0.564 0.127 !       1.17 eA-3
Q168 0.498 0.832 0.382 !       1.17 eA-3
Q169 0.143 0.328 0.212 !       1.17 eA-3
C170 0.128 0.437 0.046 !       1.17 eA-3
Q171 0.175 0.396 0.102 !       1.16 eA-3
Q172 0.139 0.158 0.008 !       1.16 eA-3
Q173 0.281 0.633 0.212 !       1.15 eA-3
C174 0.210 0.577 0.075 !       1.14 eA-3
Q175 0.845 0.529 0.157 !       1.14 eA-3
Q176 0.818 0.315 0.145 !       1.14 eA-3
Q177 0.330 0.534 0.120 !       1.13 eA-3
Q178 0.405 0.837 0.179 !       1.12 eA-3
Q179 0.335 0.117 0.007 !       1.12 eA-3
Q180 0.844 0.520 0.359 !       1.11 eA-3
Q181 0.958 0.345 0.103 !       1.10 eA-3
Q182 0.128 0.928 0.024 !       1.10 eA-3
Q183 0.671 0.518 0.132 !       1.10 eA-3
Q184 0.200 0.946 0.383 !       1.10 eA-3
Q185 0.082 0.906 0.188 !       1.10 eA-3
Q186 0.063 0.209 0.459 !       1.09 eA-3
Q187 0.698 0.954 0.025 !       1.09 eA-3
Q188 0.473 0.554 0.293 !       1.09 eA-3
Q189 0.096 0.996 0.212 !       1.09 eA-3
Q190 0.484 0.890 0.173 !       1.08 eA-3
Q191 0.861 0.063 0.072 !       1.08 eA-3
Q192 0.139 0.574 0.344 !       1.08 eA-3
Q193 0.341 0.687 0.298 !       1.07 eA-3
Q194 0.812 0.322 0.036 !       1.07 eA-3
Q195 0.965 0.070 0.290 !       1.07 eA-3
C196 0.229 0.581 0.150 !       1.07 eA-3
Q197 0.663 0.300 0.196 !       1.06 eA-3
Q198 0.527 0.522 0.432 !       1.06 eA-3
Q199 0.262 0.462 0.094 !       1.06 eA-3
)
;
loop_
_space_group_symop_id
_space_group_symop_operation_xyz
1 x,y,z
2 -x,-y,-z
loop_
_atom_site_aniso_label
_atom_site_aniso_U_11
_atom_site_aniso_U_22
_atom_site_aniso_U_33
_atom_site_aniso_U_23
_atom_site_aniso_U_13
_atom_site_aniso_U_12
Cd1 0.0669(9) 0.1042(12) 0.0414(7) -0.0083(6) -0.0075(6) 0.0148(8)
Cd2 0.206(2) 0.1316(15) 0.0304(7) 0.0169(8) -0.0162(9) -0.0858(14)
O1 0.098(10) 0.091(9) 0.076(8) -0.038(7) 0.038(8) -0.009(8)
O2 0.124(12) 0.186(15) 0.032(6) -0.025(8) 0.006(7) 0.040(11)
O3 0.0464(2) 0.0478(2) 0.0417(2) -0.0047(2) -0.0005(2) -0.0023(2)
O3A 0.0712(9) 0.0515(9) 0.0538(9) -0.0037(9) -0.0027(9) -0.0110(9)
O4 0.0464(2) 0.0478(2) 0.0417(2) -0.0047(2) -0.0005(2) -0.0023(2)
O4A 0.0712(9) 0.0515(9) 0.0538(9) -0.0037(9) -0.0027(9) -0.0110(9)
O5 0.1094(9) 0.0660(9) 0.0427(9) 0.0061(9) 0.0109(9) -0.0248(9)
O5A 0.0615(10) 0.0748(9) 0.0468(9) 0.0173(9) 0.0158(9) 0.0472(9)
O6 0.1094(9) 0.0660(9) 0.0427(9) 0.0061(9) 0.0109(9) -0.0248(9)
O6A 0.0615(10) 0.0748(9) 0.0468(9) 0.0173(9) 0.0158(9) 0.0472(9)
O7 0.094(10) 0.147(12) 0.030(6) 0.007(7) -0.004(6) 0.000(9)
O8 0.066(9) 0.168(15) 0.069(8) 0.038(8) 0.006(7) -0.003(9)
O9 0.121(13) 0.213(18) 0.062(8) 0.033(9) 0.007(8) -0.080(12)
N1 0.047(7) 0.063(8) 0.029(5) 0.006(5) -0.004(5) 0.034(7)
N2 0.040(7) 0.036(7) 0.029(5) 0.004(5) 0.015(5) -0.009(6)
C1 0.13(2) 0.070(13) 0.053(11) -0.003(9) 0.021(13) 0.003(13)
C2 0.066(4) 0.091(5) 0.038(3) -0.015(3) 0.002(3) 0.026(4)
C3 0.066(4) 0.091(5) 0.037(3) -0.015(3) 0.002(3) 0.026(4)
C4 0.066(4) 0.091(5) 0.037(3) -0.015(3) 0.002(3) 0.026(4)
C5 0.066(4) 0.091(5) 0.038(3) -0.015(3) 0.002(3) 0.026(4)
C6 0.066(4) 0.092(5) 0.038(3) -0.015(3) 0.001(3) 0.026(4)
C7 0.066(4) 0.092(5) 0.038(3) -0.015(3) 0.001(3) 0.025(4)
C8 0.048(10) 0.060(10) 0.041(8) -0.001(7) 0.014(7) 0.027(9)
C9 0.070(11) 0.045(9) 0.030(7) 0.017(6) 0.008(7) 0.016(8)
C10 0.047(10) 0.053(10) 0.029(7) 0.011(6) -0.002(6) 0.007(8)
C11 0.047(9) 0.032(8) 0.024(6) 0.006(5) 0.007(6) 0.025(7)
C12 0.042(10) 0.070(11) 0.057(10) -0.017(8) -0.004(7) 0.011(9)
C13 0.067(12) 0.064(11) 0.050(9) -0.023(8) -0.016(8) 0.012(9)
C14 0.047(5) 0.031(5) 0.029(4) -0.002(3) 0.005(3) 0.003(4)
C15 0.047(5) 0.031(5) 0.029(4) -0.002(3) 0.006(3) 0.003(4)
C16 0.047(5) 0.032(5) 0.029(4) -0.002(3) 0.006(3) 0.003(4)
C17 0.041(4) 0.034(3) 0.048(3) -0.003(3) 0.010(3) 0.006(3)
C18 0.041(4) 0.034(3) 0.048(3) -0.003(3) 0.010(3) 0.006(3)
C19 0.041(4) 0.034(3) 0.048(3) -0.003(3) 0.010(3) 0.006(3)
C20 0.041(4) 0.034(3) 0.048(3) -0.003(3) 0.010(3) 0.005(3)
C21 0.041(4) 0.035(3) 0.048(3) -0.003(3) 0.010(3) 0.005(3)
C22 0.042(4) 0.035(3) 0.048(3) -0.003(3) 0.010(3) 0.005(3)
C23 0.0464(1) 0.0478(1) 0.0417(1) -0.0047(1) -0.0005(1) -0.0023(1)
C23A 0.0711(9) 0.0515(9) 0.0538(9) -0.0037(9) -0.0027(9) -0.0110(9)
C24 0.0464(1) 0.0478(1) 0.0417(1) -0.0047(1) -0.0005(1) -0.0023(1)
C24A 0.0711(9) 0.0515(9) 0.0538(9) -0.0037(9) -0.0027(9) -0.0110(9)
C25 0.0464(1) 0.0478(1) 0.0417(1) -0.0047(1) -0.0005(1) -0.0023(1)
C25A 0.0712(9) 0.0515(9) 0.0538(9) -0.0037(9) -0.0027(9) -0.0110(9)
C26 0.0464(1) 0.0478(1) 0.0417(1) -0.0047(1) -0.0005(1) -0.0023(1)
C26A 0.0712(9) 0.0515(9) 0.0538(9) -0.0037(9) -0.0027(9) -0.0110(9)
C27 0.0464(1) 0.0478(1) 0.0417(1) -0.0047(1) -0.0005(1) -0.0023(1)
C27A 0.0712(9) 0.0515(9) 0.0538(9) -0.0037(9) -0.0027(9) -0.0110(9)
C28 0.0464(1) 0.0478(1) 0.0417(1) -0.0047(1) -0.0005(1) -0.0023(1)
C28A 0.0711(9) 0.0515(9) 0.0538(9) -0.0037(9) -0.0027(9) -0.0110(9)
C29 0.0464(1) 0.0478(1) 0.0417(1) -0.0047(1) -0.0005(1) -0.0023(1)
C29A 0.0712(9) 0.0515(9) 0.0538(9) -0.0037(9) -0.0027(9) -0.0110(9)
C30 0.1094(9) 0.0660(9) 0.0427(9) 0.0061(9) 0.0109(9) -0.0248(9)
C30A 0.0615(9) 0.0748(9) 0.0468(9) 0.0173(9) 0.0158(9) 0.0472(9)
C31 0.1094(9) 0.0660(9) 0.0427(9) 0.0061(9) 0.0109(9) -0.0248(9)
C31A 0.0615(9) 0.0748(9) 0.0468(9) 0.0173(9) 0.0158(9) 0.0472(9)
C32 0.1094(9) 0.0660(9) 0.0427(9) 0.0061(9) 0.0109(9) -0.0248(9)
C32A 0.0615(9) 0.0748(9) 0.0468(9) 0.0173(9) 0.0158(9) 0.0472(9)
C33 0.1094(9) 0.0660(9) 0.0427(9) 0.0061(9) 0.0109(9) -0.0248(9)
C33A 0.0615(9) 0.0748(9) 0.0468(9) 0.0173(9) 0.0158(9) 0.0472(9)
C34 0.1094(9) 0.0660(9) 0.0427(9) 0.0061(9) 0.0109(9) -0.0248(9)
C34A 0.0615(9) 0.0748(9) 0.0468(9) 0.0173(9) 0.0158(9) 0.0472(9)
C35 0.1094(9) 0.0660(9) 0.0427(9) 0.0061(9) 0.0109(9) -0.0248(9)
C35A 0.0615(9) 0.0748(9) 0.0468(9) 0.0173(9) 0.0158(9) 0.0472(9)
C36 0.1094(9) 0.0660(9) 0.0427(9) 0.0061(9) 0.0109(9) -0.0248(9)
C36A 0.0615(9) 0.0748(9) 0.0468(9) 0.0173(9) 0.0158(9) 0.0472(9)
C37 0.044(9) 0.043(9) 0.020(6) -0.007(6) 0.004(6) -0.008(7)
C38 0.041(9) 0.012(7) 0.048(8) 0.013(6) 0.004(6) -0.008(6)
C39 0.032(8) 0.022(8) 0.049(8) 0.004(6) 0.005(6) -0.006(7)
C40 0.013(7) 0.035(8) 0.039(7) -0.004(6) 0.015(5) -0.001(6)
C41 0.034(8) 0.038(8) 0.045(8) 0.002(7) 0.005(6) -0.013(7)
C42 0.062(10) 0.059(10) 0.013(6) -0.017(6) 0.002(6) -0.017(8)
C43 0.020(7) 0.028(7) 0.028(6) -0.010(6) 0.003(5) -0.005(6)
C44 0.036(9) 0.032(8) 0.019(6) 0.008(5) 0.002(5) -0.001(7)
C45 0.038(9) 0.029(7) 0.023(6) 0.001(5) 0.003(6) 0.014(7)
C46 0.043(9) 0.039(8) 0.026(6) -0.001(6) -0.001(6) -0.003(7)
C47 0.035(9) 0.037(8) 0.035(7) 0.001(6) 0.002(6) 0.005(7)
C48 0.026(8) 0.051(9) 0.036(7) -0.004(6) 0.008(6) 0.003(7)
C49 0.037(9) 0.057(10) 0.045(8) -0.015(7) 0.010(7) -0.013(8)
C50 0.050(10) 0.082(11) 0.026(7) -0.014(7) 0.009(6) 0.022(9)
C51 0.037(8) 0.049(9) 0.043(8) -0.025(7) 0.006(6) -0.002(7)
C52 0.029(9) 0.077(11) 0.035(8) 0.000(7) -0.004(6) 0.002(8)
C53 0.061(12) 0.071(11) 0.026(7) 0.012(7) 0.000(7) 0.001(9)
C54 0.019(8) 0.087(12) 0.064(10) -0.005(9) 0.003(7) -0.004(8)
C55 0.054(11) 0.080(12) 0.027(7) 0.007(7) 0.009(7) 0.002(9)
C56 0.061(13) 0.131(17) 0.025(7) 0.012(8) 0.003(7) -0.017(11)
C57 0.051(11) 0.129(16) 0.027(8) -0.001(9) -0.007(7) -0.027(10)
C58 0.070(14) 0.077(13) 0.051(10) 0.006(9) 0.004(10) -0.011(11)
loop_
_atom_site_label
_atom_site_type_symbol
_atom_site_thermal_displace_type
_atom_site_fract_x
_atom_site_fract_y
_atom_site_fract_z
_atom_site_occupancy
_atom_site_U_iso_or_equiv
_atom_site_calc_flag
_atom_site_refinement_flags
_atom_site_disorder_assembly
_atom_site_disorder_group
Cd1 Cd Uani 0.93643(12) 1.12117(13) 0.94985(5) 1.000 0.0709(6) d . . .
Cd2 Cd Uani 0.5533(2) 0.60915(16) 0.05513(5) 1.000 0.1268(9) d . . .
O1 O Uani 0.9770(12) 0.9334(11) 0.9314(5) 1.000 0.088(5) d . . .
O2 O Uani 1.1456(13) 0.8543(14) 0.9632(5) 1.000 0.113(7) d . . .
O3 O Uani 0.600(2) 0.621(2) 0.1523(10) 0.39(2) 0.0456(1) d DUP A 1
O3A O Uani 0.6345(18) 0.5702(18) 0.1452(7) 0.61(2) 0.0596(5) d DUP A 2
O4 O Uani 0.688(2) 0.791(2) 0.1291(10) 0.39(2) 0.0456(1) d DUP A 1
O4A O Uani 0.7045(17) 0.7421(18) 0.1182(7) 0.61(2) 0.0596(5) d DUP A 2
O5 O Uani 0.5013(15) 0.4072(13) 0.0487(6) 0.733(10) 0.0736(5) d DUP A 3
O5A O Uani 0.410(3) 0.450(2) 0.0501(13) 0.267(10) 0.0588(5) d DUP A 4
O6 O Uani 0.3388(16) 0.2884(13) 0.0192(6) 0.733(10) 0.0736(5) d DUP A 3
O6A O Uani 0.415(4) 0.257(3) 0.0217(12) 0.267(10) 0.0588(5) d DUP A 4
O7 O Uani 0.7289(12) 0.0974(12) 0.9045(4) 1.000 0.091(6) d . . .
O8 O Uani 0.8841(13) 0.1520(14) 0.8506(5) 1.000 0.101(6) d . . .
O9 O Uani 1.1447(14) 1.1608(16) 0.9563(5) 1.000 0.135(8) d . . .
N1 N Uani 1.2941(10) 0.6381(10) 0.5076(4) 1.000 0.045(4) d . . .
N2 N Uani 0.2295(9) 0.1202(9) 0.4855(4) 1.000 0.035(4) d . . .
C1 C Uani 1.075(2) 0.8905(16) 0.9206(8) 1.000 0.084(9) d . . .
C2 C Uani 1.1192(14) 0.8693(15) 0.8583(6) 1.000 0.064(2) d U . .
C3 C Uani 1.0483(14) 0.8981(14) 0.8103(6) 1.000 0.064(2) d U . .
C4 C Uani 1.0789(14) 0.8716(15) 0.7512(6) 1.000 0.064(2) d U . .
C5 C Uani 1.1834(14) 0.8160(15) 0.7381(6) 1.000 0.064(2) d U . .
C6 C Uani 1.2588(15) 0.7922(14) 0.7863(6) 1.000 0.065(2) d U . .
C7 C Uani 1.2292(14) 0.8174(15) 0.8472(6) 1.000 0.065(2) d U . .
C8 C Uani 1.2104(13) 0.7773(13) 0.6779(6) 1.000 0.048(5) d . . .
C9 C Uani 1.1233(15) 0.7204(12) 0.6393(5) 1.000 0.048(5) d . . .
C10 C Uani 1.1485(13) 0.6745(12) 0.5827(5) 1.000 0.043(5) d . . .
C11 C Uani 1.2661(12) 0.6865(11) 0.5639(5) 1.000 0.033(4) d . . .
C12 C Uani 1.3552(13) 0.7462(13) 0.6006(6) 1.000 0.057(6) d . . .
C13 C Uani 1.3272(15) 0.7900(13) 0.6567(6) 1.000 0.061(6) d . . .
C14 C Uani 1.4666(12) 0.5694(11) 0.4519(5) 1.000 0.036(3) d U . .
C15 C Uani 1.3963(12) 0.5676(11) 0.5042(5) 1.000 0.036(3) d U . .
C16 C Uani 1.4299(12) 0.4965(10) 0.5496(5) 1.000 0.036(3) d U . .
C17 C Uani 1.2136(12) 0.6458(11) 0.4579(6) 1.000 0.0407(19) d U . .
C18 C Uani 1.1598(12) 0.7517(11) 0.4459(5) 1.000 0.0407(19) d U . .
C19 C Uani 1.0753(12) 0.7600(11) 0.3992(5) 1.000 0.0407(19) d U . .
C20 C Uani 1.0389(12) 0.6661(11) 0.3599(6) 1.000 0.0407(19) d U . .
C21 C Uani 1.0927(12) 0.5615(11) 0.3725(6) 1.000 0.0410(19) d U . .
C22 C Uani 1.1790(12) 0.5513(11) 0.4171(5) 1.000 0.0414(19) d U . .
C23 C Uani 0.949(2) 0.675(3) 0.3091(12) 0.39(2) 0.0456(1) d DUP A 1
C23A C Uani 0.951(3) 0.674(3) 0.3118(12) 0.61(2) 0.0596(5) d DUP A 2
C24 C Uani 0.9402(13) 0.776(2) 0.2757(7) 0.39(2) 0.0456(1) d DUP A 1
C24A C Uani 0.938(2) 0.771(2) 0.2754(10) 0.61(2) 0.0596(5) d DUP A 2
C25 C Uani 0.8569(13) 0.7828(19) 0.2290(7) 0.39(2) 0.0456(1) d DUP A 1
C25A C Uani 0.860(2) 0.767(2) 0.2259(10) 0.61(2) 0.0596(5) d DUP A 2
C26 C Uani 0.776(2) 0.693(2) 0.2105(10) 0.39(2) 0.0456(1) d DUP A 1
C26A C Uani 0.778(3) 0.675(2) 0.2123(11) 0.61(2) 0.0596(5) d DUP A 2
C27 C Uani 0.786(3) 0.583(2) 0.2397(13) 0.39(2) 0.0456(1) d DUP A 1
C27A C Uani 0.771(2) 0.583(2) 0.2545(10) 0.61(2) 0.0596(5) d DUP A 2
C28 C Uani 0.869(4) 0.580(3) 0.2883(14) 0.39(2) 0.0456(1) d DUP A 1
C28A C Uani 0.862(3) 0.581(2) 0.2995(12) 0.61(2) 0.0596(5) d DUP A 2
C29 C Uani 0.682(3) 0.695(3) 0.1584(12) 0.39(2) 0.0456(1) d DUP A 1
C29A C Uani 0.697(2) 0.658(2) 0.1552(9) 0.61(2) 0.0596(5) d DUP A 2
C30 C Uani 0.3974(16) 0.3423(16) 0.0612(8) 0.733(10) 0.0736(5) d DUP A 3
C30A C Uani 0.421(3) 0.3334(19) 0.0627(12) 0.267(10) 0.0588(5) d DUP A 4
C31 C Uani 0.3792(10) 0.3083(13) 0.1242(7) 0.733(10) 0.0736(5) d DUP A 3
C31A C Uani 0.3946(18) 0.3037(12) 0.1256(12) 0.267(10) 0.0588(5) d DUP A 4
C32 C Uani 0.4265(16) 0.3770(17) 0.1724(8) 0.733(10) 0.0736(5) d DUP A 3
C32A C Uani 0.473(3) 0.346(2) 0.1727(14) 0.267(10) 0.0588(5) d DUP A 4
C33 C Uani 0.4103(17) 0.3463(18) 0.2331(8) 0.733(10) 0.0736(5) d DUP A 3
C33A C Uani 0.448(4) 0.317(3) 0.2333(14) 0.267(10) 0.0588(5) d DUP A 4
C34 C Uani 0.3457(16) 0.2453(18) 0.2462(8) 0.733(10) 0.0736(5) d DUP A 3
C34A C Uani 0.348(4) 0.249(3) 0.2468(16) 0.267(10) 0.0588(5) d DUP A 4
C35 C Uani 0.2983(18) 0.1768(18) 0.1946(8) 0.733(10) 0.0736(5) d DUP A 3
C35A C Uani 0.271(3) 0.208(3) 0.1963(17) 0.267(10) 0.0588(5) d DUP A 4
C36 C Uani 0.3151(15) 0.2081(17) 0.1358(8) 0.733(10) 0.0736(5) d DUP A 3
C36A C Uani 0.296(3) 0.236(2) 0.1377(16) 0.267(10) 0.0588(5) d DUP A 4
C37 C Uani 0.3185(12) 0.2178(12) 0.3096(5) 1.000 0.036(5) d . . .
C38 C Uani 0.3392(11) 0.2942(10) 0.3562(5) 1.000 0.034(5) d . . .
C39 C Uani 0.3144(11) 0.2618(11) 0.4142(6) 1.000 0.035(5) d . . .
C40 C Uani 0.2627(10) 0.1533(11) 0.4260(5) 1.000 0.029(4) d . . .
C41 C Uani 0.2412(12) 0.0707(12) 0.3782(5) 1.000 0.040(5) d . . .
C42 C Uani 0.2715(13) 0.1049(13) 0.3209(5) 1.000 0.046(5) d . . .
C43 C Uani 0.1125(10) 0.0597(10) 0.4938(5) 1.000 0.026(4) d . . .
C44 C Uani 0.0987(12) -0.0207(11) 0.5393(5) 1.000 0.029(4) d . . .
C45 C Uani -0.0112(12) -0.0762(11) 0.5454(5) 1.000 0.030(4) d . . .
C46 C Uani 0.3110(12) 0.1472(11) 0.5361(5) 1.000 0.036(4) d . . .
C47 C Uani 0.4307(11) 0.1232(11) 0.5341(5) 1.000 0.036(5) d . . .
C48 C Uani 0.5060(11) 0.1322(11) 0.5860(5) 1.000 0.038(5) d . . .
C49 C Uani 0.4614(12) 0.1674(13) 0.6408(6) 1.000 0.047(5) d . . .
C50 C Uani 0.3408(13) 0.1958(13) 0.6414(5) 1.000 0.052(5) d . . .
C51 C Uani 0.2659(12) 0.1856(12) 0.5896(5) 1.000 0.043(5) d . . .
C52 C Uani 0.5405(13) 0.1650(14) 0.6970(6) 1.000 0.047(5) d . . .
C53 C Uani 0.6569(14) 0.2081(13) 0.7001(6) 1.000 0.053(6) d . . .
C54 C Uani 0.7361(13) 0.2007(14) 0.7523(6) 1.000 0.057(6) d . . .
C55 C Uani 0.6872(15) 0.1497(14) 0.8023(6) 1.000 0.054(6) d . . .
C56 C Uani 0.5697(15) 0.1044(17) 0.8013(6) 1.000 0.073(8) d . . .
C57 C Uani 0.4949(14) 0.1162(16) 0.7481(6) 1.000 0.071(7) d . . .
C58 C Uani 0.7753(18) 0.1308(15) 0.8565(7) 1.000 0.067(7) d . . .
H3 H Uiso 0.97777 0.93624 0.81660 1.000 0.0770 c RU . .
H4 H Uiso 1.02717 0.89209 0.71969 1.000 0.0770 c RU . .
H6 H Uiso 1.33155 0.75856 0.77930 1.000 0.0780 c RU . .
H7 H Uiso 1.28190 0.79967 0.87888 1.000 0.0780 c RU . .
H9 H Uiso 1.04414 0.71236 0.65161 1.000 0.0570 c RU . .
H10 H Uiso 1.08742 0.63673 0.55830 1.000 0.0510 c RU . .
H12 H Uiso 1.43365 0.75684 0.58764 1.000 0.0680 c RU . .
H13 H Uiso 1.38811 0.82890 0.68082 1.000 0.0730 c RU . .
H14 H Uiso 1.44411 0.61375 0.41914 1.000 0.0430 c RU . .
H16 H Uiso 1.38257 0.49136 0.58293 1.000 0.0430 c RU . .
H18 H Uiso 1.18165 0.81756 0.47001 1.000 0.0490 c RU . .
H19 H Uiso 1.04084 0.83155 0.39347 1.000 0.0490 c RU . .
H21 H Uiso 1.06840 0.49510 0.34926 1.000 0.0490 c RU . .
H22 H Uiso 1.21623 0.48077 0.42102 1.000 0.0500 c RU . .
H24 H Uiso 0.99235 0.84106 0.28555 0.39(2) 0.0550 c RUP A 1
H24A H Uiso 0.98406 0.84009 0.28502 0.61(2) 0.0720 c RUP A 2
H25 H Uiso 0.85533 0.85282 0.20851 0.39(2) 0.0550 c RUP A 1
H25A H Uiso 0.86324 0.83041 0.20022 0.61(2) 0.0720 c RUP A 2
H27 H Uiso 0.73861 0.51699 0.22681 0.39(2) 0.0550 c RUP A 1
H27A H Uiso 0.70731 0.52586 0.25197 0.61(2) 0.0720 c RUP A 2
H28 H Uiso 0.87196 0.50972 0.30868 0.39(2) 0.0550 c RUP A 1
H28A H Uiso 0.86500 0.51432 0.32281 0.61(2) 0.0720 c RUP A 2
H32 H Uiso 0.47092 0.44631 0.16476 0.733(10) 0.0880 c RUP A 3
H32A H Uiso 0.54154 0.39259 0.16475 0.267(10) 0.0710 c RUP A 4
H33 H Uiso 0.44381 0.39525 0.26407 0.733(10) 0.0880 c RUP A 3
H33A H Uiso 0.50113 0.34633 0.26419 0.267(10) 0.0710 c RUP A 4
H35 H Uiso 0.25361 0.10711 0.20124 0.733(10) 0.0880 c RUP A 3
H35A H Uiso 0.20130 0.16127 0.20318 0.267(10) 0.0710 c RUP A 4
H36 H Uiso 0.28218 0.16003 0.10435 0.733(10) 0.0880 c RUP A 3
H36A H Uiso 0.24343 0.20812 0.10639 0.267(10) 0.0710 c RUP A 4
H38 H Uiso 0.37056 0.36986 0.34939 1.000 0.0410 c RU . .
H39 H Uiso 0.33321 0.31506 0.44577 1.000 0.0420 c RU . .
H41 H Uiso 0.20786 -0.00437 0.38471 1.000 0.0470 c RU . .
H42 H Uiso 0.25998 0.05071 0.28923 1.000 0.0550 c RU . .
H44 H Uiso 0.16393 -0.03615 0.56503 1.000 0.0350 c RU . .
H45 H Uiso -0.02063 -0.12770 0.57683 1.000 0.0350 c RU . .
H47 H Uiso 0.46188 0.10073 0.49783 1.000 0.0430 c RU . .
H48 H Uiso 0.58671 0.11456 0.58412 1.000 0.0450 c RU . .
H50 H Uiso 0.30980 0.22208 0.67702 1.000 0.0620 c RU . .
H51 H Uiso 0.18544 0.20446 0.59091 1.000 0.0520 c RU . .
H53 H Uiso 0.68726 0.24463 0.66653 1.000 0.0630 c RU . .
H54 H Uiso 0.81668 0.22882 0.75254 1.000 0.0690 c RU . .
H56 H Uiso 0.53924 0.06676 0.83454 1.000 0.0870 c RU . .
H57 H Uiso 0.41368 0.09035 0.74785 1.000 0.0850 c RU . .
loop_
_atom_type_symbol
_atom_type_description
_atom_type_scat_dispersion_real
_atom_type_scat_dispersion_imag
_atom_type_scat_source
C C 0.0033 0.0016 ' International Tables Vol C Tables 4.2.6.8 and 6.1.1.4'
H H 0.0000 0.0000 ' International Tables Vol C Tables 4.2.6.8 and 6.1.1.4'
Cd Cd -0.8075 1.2024 ' International Tables Vol C Tables 4.2.6.8 and 6.1.1.4'
N N 0.0061 0.0033 ' International Tables Vol C Tables 4.2.6.8 and 6.1.1.4'
O O 0.0106 0.0060 ' International Tables Vol C Tables 4.2.6.8 and 6.1.1.4'
loop_
_geom_angle_atom_site_label_1
_geom_angle_atom_site_label_2
_geom_angle_atom_site_label_3
_geom_angle
_geom_angle_site_symmetry_1
_geom_angle_site_symmetry_3
_geom_angle_publ_flag
O1 Cd1 O9 86.4(6) . . yes
O1 Cd1 O7 93.9(5) . 1_565 yes
O1 Cd1 O8 92.7(5) . 1_565 yes
O1 Cd1 C58 94.6(5) . 1_565 yes
O1 Cd1 O2 112.6(5) . 2_777 yes
O7 Cd1 O9 158.9(4) 1_565 . yes
O8 Cd1 O9 103.9(5) 1_565 . yes
O9 Cd1 C58 130.9(5) . 1_565 yes
O2 Cd1 O9 112.0(5) 2_777 . yes
O7 Cd1 O8 55.0(4) 1_565 1_565 yes
O7 Cd1 C58 28.0(5) 1_565 1_565 yes
O2 Cd1 O7 87.4(4) 2_777 1_565 yes
O8 Cd1 C58 27.1(5) 1_565 1_565 yes
O2 Cd1 O8 136.7(5) 2_777 1_565 yes
O2 Cd1 C58 112.7(5) 2_777 1_565 yes
O3A Cd2 O4A 53.6(7) . . yes
O5 Cd2 O5 81.1(5) . 2_665 yes
O5 Cd2 O6 123.3(5) . 2_665 yes
O5A Cd2 O5A 84.3(10) . 2_665 yes
O5A Cd2 O6A 124.9(12) . 2_665 yes
O5 Cd2 O6 56.8(5) 2_665 2_665 yes
O5A Cd2 O6A 56.4(9) 2_665 2_665 yes
Cd1 O1 C1 129.8(12) . . yes
Cd1 O2 C1 109.9(12) 2_777 . yes
Cd2 O3 C29 105.7(19) . . yes
Cd2 O3A C29A 100.5(15) . . yes
Cd2 O4A C29A 83.2(13) . . yes
Cd2 O5 C30 132.2(12) . . yes
Cd2 O5 Cd2 98.9(5) . 2_665 yes
Cd2 O5 C30 89.9(10) 2_665 . yes
Cd2 O5A C30A 131(2) . . yes
Cd2 O5A Cd2 95.7(11) . 2_665 yes
Cd2 O5A C30A 85.4(17) 2_665 . yes
Cd2 O6 C30 92.9(12) 2_665 . yes
Cd2 O6A C30A 95(2) 2_665 . yes
Cd1 O7 C58 85.9(11) 1_545 . yes
Cd1 O8 C58 94.3(10) 1_545 . yes
C11 N1 C15 119.1(10) . . yes
C11 N1 C17 120.1(11) . . yes
C15 N1 C17 120.2(10) . . yes
C40 N2 C46 120.3(10) . . yes
C43 N2 C46 120.1(9) . . yes
C40 N2 C43 119.6(9) . . yes
O1 C1 O2 121.4(16) . . yes
O1 C1 C2 124.6(16) . . yes
O2 C1 C2 114.0(17) . . yes
C1 C2 C3 118.6(15) . . no
C1 C2 C7 123.5(14) . . no
C3 C2 C7 117.9(13) . . no
C2 C3 C4 121.6(14) . . no
C3 C4 C5 122.6(13) . . no
C4 C5 C6 116.1(13) . . no
C4 C5 C8 123.4(13) . . no
C6 C5 C8 120.4(14) . . no
C5 C6 C7 122.3(15) . . no
C2 C7 C6 119.3(13) . . no
C5 C8 C9 122.1(13) . . no
C5 C8 C13 121.8(13) . . no
C9 C8 C13 116.1(13) . . no
C8 C9 C10 123.4(14) . . no
C9 C10 C11 118.8(12) . . no
N1 C11 C10 119.6(11) . . yes
N1 C11 C12 120.9(12) . . yes
C10 C11 C12 119.5(11) . . no
C11 C12 C13 120.2(13) . . no
C8 C13 C12 122.0(14) . . no
C15 C14 C16 119.5(11) . 2_866 no
N1 C15 C14 120.2(10) . . yes
N1 C15 C16 122.0(11) . . yes
C14 C15 C16 117.7(12) . . no
C14 C16 C15 122.7(11) 2_866 . no
N1 C17 C18 120.2(11) . . yes
N1 C17 C22 124.5(11) . . yes
C18 C17 C22 115.4(12) . . no
C17 C18 C19 121.4(12) . . no
C18 C19 C20 123.3(12) . . no
C19 C20 C21 114.7(12) . . no
C19 C20 C23A 123.5(17) . . no
C19 C20 C23 123.5(17) . . no
C21 C20 C23A 121.8(17) . . no
C21 C20 C23 121.8(17) . . no
C20 C21 C22 123.4(12) . . no
C17 C22 C21 121.7(12) . . no
C20 C23 C28 123(3) . . no
C24 C23 C28 114(2) . . no
C20 C23 C24 123(2) . . no
C24A C23A C28A 114(3) . . no
C20 C23A C24A 126(3) . . no
C20 C23A C28A 120(3) . . no
C23 C24 C25 122(2) . . no
C23A C24A C25A 122(2) . . no
C24 C25 C26 124(2) . . no
C24A C25A C26A 124(2) . . no
C25 C26 C29 127(2) . . no
C25 C26 C27 117(2) . . no
C27 C26 C29 116(2) . . no
C25A C26A C27A 117(2) . . no
C27A C26A C29A 117(2) . . no
C25A C26A C29A 127(2) . . no
C26 C27 C28 117(2) . . no
C26A C27A C28A 118(2) . . no
C23 C28 C27 125(3) . . no
C23A C28A C27A 124(2) . . no
O3 C29 O4 124(3) . . yes
O3 C29 C26 122(3) . . yes
O4 C29 C26 113(3) . . yes
O3A C29A O4A 123(2) . . yes
O3A C29A C26A 122(2) . . yes
O4A C29A C26A 115(2) . . yes
O6 C30 C31 120.1(16) . . yes
O5 C30 O6 118.7(16) . . yes
O5 C30 C31 118.5(14) . . yes
O5A C30A O6A 121(3) . . yes
O5A C30A C31A 114(2) . . yes
O6A C30A C31A 122(2) . . yes
C32 C31 C36 118.0(16) . . no
C30 C31 C32 121.9(14) . . no
C30 C31 C36 120.1(15) . . no
C30A C31A C32A 120(2) . . no
C32A C31A C36A 119(3) . . no
C30A C31A C36A 121(3) . . no
C31 C32 C33 123.0(17) . . no
C31A C32A C33A 120(3) . . no
C32 C33 C34 120.3(17) . . no
C32A C33A C34A 122(3) . . no
C35 C34 C37 124.4(16) . . no
C33 C34 C35 114.7(16) . . no
C33 C34 C37 120.7(16) . . no
C33A C34A C37 123(3) . . no
C35A C34A C37 121(3) . . no
C33A C34A C35A 116(3) . . no
C34 C35 C36 124.2(18) . . no
C34A C35A C36A 123(3) . . no
C31 C36 C35 119.9(17) . . no
C31A C36A C35A 121(3) . . no
C34 C37 C38 124.1(13) . . no
C34 C37 C42 117.4(12) . . no
C34A C37 C42 119.3(16) . . no
C34A C37 C38 122.3(17) . . no
C38 C37 C42 118.5(11) . . no
C37 C38 C39 121.0(11) . . no
C38 C39 C40 121.5(12) . . no
N2 C40 C41 118.8(11) . . yes
C39 C40 C41 118.7(11) . . no
N2 C40 C39 122.4(11) . . yes
C40 C41 C42 118.1(12) . . no
C37 C42 C41 122.1(12) . . no
C44 C43 C45 118.0(11) . 2_556 no
N2 C43 C44 120.4(10) . . yes
N2 C43 C45 121.6(10) . 2_556 yes
C43 C44 C45 118.8(11) . . no
C43 C45 C44 123.2(11) 2_556 . no
N2 C46 C51 119.5(11) . . yes
N2 C46 C47 120.4(10) . . yes
C47 C46 C51 119.6(11) . . no
C46 C47 C48 120.5(11) . . no
C47 C48 C49 120.7(11) . . no
C48 C49 C52 119.7(12) . . no
C48 C49 C50 117.9(12) . . no
C50 C49 C52 122.3(12) . . no
C49 C50 C51 121.1(12) . . no
C46 C51 C50 120.1(12) . . no
C53 C52 C57 117.6(13) . . no
C49 C52 C53 122.7(13) . . no
C49 C52 C57 119.8(13) . . no
C52 C53 C54 123.6(13) . . no
C53 C54 C55 117.0(14) . . no
C54 C55 C58 117.0(14) . . no
C54 C55 C56 121.6(13) . . no
C56 C55 C58 120.9(14) . . no
C55 C56 C57 118.6(14) . . no
C52 C57 C56 121.6(14) . . no
Cd1 C58 O7 66.2(9) 1_545 . yes
Cd1 C58 C55 174.1(12) 1_545 . yes
O8 C58 C55 118.3(14) . . yes
Cd1 C58 O8 58.6(9) 1_545 . yes
O7 C58 C55 117.0(16) . . yes
O7 C58 O8 124.7(16) . . yes
C2 C3 H3 119.00 . . no
C4 C3 H3 119.00 . . no
C3 C4 H4 119.00 . . no
C5 C4 H4 119.00 . . no
C5 C6 H6 119.00 . . no
C7 C6 H6 119.00 . . no
C2 C7 H7 120.00 . . no
C6 C7 H7 120.00 . . no
C8 C9 H9 118.00 . . no
C10 C9 H9 118.00 . . no
C9 C10 H10 121.00 . . no
C11 C10 H10 121.00 . . no
C11 C12 H12 120.00 . . no
C13 C12 H12 120.00 . . no
C8 C13 H13 119.00 . . no
C12 C13 H13 119.00 . . no
C15 C14 H14 120.00 . . no
C16 C14 H14 120.00 2_866 . no
C15 C16 H16 119.00 . . no
C14 C16 H16 119.00 2_866 . no
C17 C18 H18 119.00 . . no
C19 C18 H18 119.00 . . no
C18 C19 H19 118.00 . . no
C20 C19 H19 118.00 . . no
C20 C21 H21 118.00 . . no
C22 C21 H21 118.00 . . no
C17 C22 H22 119.00 . . no
C21 C22 H22 119.00 . . no
C25 C24 H24 119.00 . . no
C23 C24 H24 119.00 . . no
C25A C24A H24A 119.00 . . no
C23A C24A H24A 119.00 . . no
C26 C25 H25 118.00 . . no
C24 C25 H25 118.00 . . no
C26A C25A H25A 119.00 . . no
C24A C25A H25A 118.00 . . no
C28 C27 H27 122.00 . . no
C26 C27 H27 121.00 . . no
C28A C27A H27A 121.00 . . no
C26A C27A H27A 121.00 . . no
C23 C28 H28 118.00 . . no
C27 C28 H28 117.00 . . no
C27A C28A H28A 118.00 . . no
C23A C28A H28A 118.00 . . no
C31 C32 H32 119.00 . . no
C33 C32 H32 119.00 . . no
C31A C32A H32A 120.00 . . no
C33A C32A H32A 120.00 . . no
C32 C33 H33 120.00 . . no
C34 C33 H33 120.00 . . no
C32A C33A H33A 119.00 . . no
C34A C33A H33A 119.00 . . no
C34 C35 H35 118.00 . . no
C36 C35 H35 118.00 . . no
C34A C35A H35A 119.00 . . no
C36A C35A H35A 119.00 . . no
C31 C36 H36 120.00 . . no
C35 C36 H36 120.00 . . no
C31A C36A H36A 119.00 . . no
C35A C36A H36A 120.00 . . no
C37 C38 H38 119.00 . . no
C39 C38 H38 119.00 . . no
C38 C39 H39 119.00 . . no
C40 C39 H39 119.00 . . no
C40 C41 H41 121.00 . . no
C42 C41 H41 121.00 . . no
C37 C42 H42 119.00 . . no
C41 C42 H42 119.00 . . no
C43 C44 H44 121.00 . . no
C45 C44 H44 121.00 . . no
C44 C45 H45 118.00 . . no
C43 C45 H45 118.00 2_556 . no
C48 C47 H47 120.00 . . no
C46 C47 H47 120.00 . . no
C49 C48 H48 120.00 . . no
C47 C48 H48 120.00 . . no
C49 C50 H50 119.00 . . no
C51 C50 H50 119.00 . . no
C50 C51 H51 120.00 . . no
C46 C51 H51 120.00 . . no
C52 C53 H53 118.00 . . no
C54 C53 H53 118.00 . . no
C55 C54 H54 122.00 . . no
C53 C54 H54 121.00 . . no
C55 C56 H56 121.00 . . no
C57 C56 H56 121.00 . . no
C52 C57 H57 119.00 . . no
C56 C57 H57 119.00 . . no
loop_
_geom_bond_atom_site_label_1
_geom_bond_atom_site_label_2
_geom_bond_distance
_geom_bond_site_symmetry_2
_geom_bond_publ_flag
Cd1 O1 2.249(13) . yes
Cd1 O9 2.322(16) . yes
Cd1 O7 2.468(13) 1_565 yes
Cd1 O8 2.303(12) 1_565 yes
Cd1 O2 2.198(12) 2_777 yes
Cd2 O3A 2.229(17) . yes
Cd2 O4A 2.550(19) . yes
Cd2 O5 2.343(15) . yes
Cd2 O3 2.21(2) . yes
Cd2 O5A 2.34(3) . yes
Cd2 O5 2.369(14) 2_665 yes
Cd2 O6 2.373(15) 2_665 yes
Cd2 O5A 2.49(3) 2_665 yes
Cd2 O6A 2.34(3) 2_665 yes
O1 C1 1.25(3) . yes
O2 C1 1.29(2) . yes
O3 C29 1.21(4) . yes
O3A C29A 1.20(3) . yes
O4 C29 1.29(4) . yes
O4A C29A 1.28(3) . yes
O5 C30 1.37(2) . yes
O5A C30A 1.38(3) . yes
O6 C30 1.25(2) . yes
O6A C30A 1.25(4) . yes
O7 C58 1.26(2) . yes
O8 C58 1.23(2) . yes
N1 C11 1.416(15) . yes
N1 C15 1.430(17) . yes
N1 C17 1.399(17) . yes
N2 C43 1.453(15) . yes
N2 C46 1.431(15) . yes
N2 C40 1.444(15) . yes
C1 C2 1.51(2) . no
C2 C3 1.36(2) . no
C2 C7 1.41(2) . no
C3 C4 1.407(19) . no
C4 C5 1.39(2) . no
C5 C6 1.37(2) . no
C5 C8 1.455(19) . no
C6 C7 1.439(19) . no
C8 C9 1.39(2) . no
C8 C13 1.40(2) . no
C9 C10 1.403(17) . no
C10 C11 1.386(19) . no
C11 C12 1.392(19) . no
C12 C13 1.393(19) . no
C14 C15 1.431(17) . no
C14 C16 1.408(18) 2_866 no
C15 C16 1.363(17) . no
C17 C18 1.403(18) . no
C17 C22 1.422(18) . no
C18 C19 1.378(17) . no
C19 C20 1.401(18) . no
C20 C21 1.393(18) . no
C20 C23A 1.42(3) . no
C20 C23 1.48(3) . no
C21 C22 1.360(18) . no
C23 C24 1.39(4) . no
C23 C28 1.42(5) . no
C23A C28A 1.42(4) . no
C23A C24A 1.40(4) . no
C24 C25 1.37(2) . no
C24A C25A 1.37(3) . no
C25 C26 1.37(3) . no
C25A C26A 1.37(4) . no
C26 C29 1.53(4) . no
C26 C27 1.43(3) . no
C26A C29A 1.53(3) . no
C26A C27A 1.43(3) . no
C27 C28 1.39(5) . no
C27A C28A 1.39(4) . no
C30 C31 1.49(2) . no
C30A C31A 1.49(4) . no
C31 C36 1.35(2) . no
C31 C32 1.38(2) . no
C31A C32A 1.39(4) . no
C31A C36A 1.34(4) . no
C32 C33 1.42(3) . no
C32A C33A 1.43(4) . no
C33 C34 1.37(3) . no
C33A C34A 1.36(6) . no
C34 C35 1.44(3) . no
C34 C37 1.50(2) . no
C34A C37 1.50(4) . no
C34A C35A 1.44(5) . no
C35 C36 1.38(3) . no
C35A C36A 1.39(5) . no
C37 C42 1.39(2) . no
C37 C38 1.347(17) . no
C38 C39 1.387(17) . no
C39 C40 1.369(18) . no
C40 C41 1.413(17) . no
C41 C42 1.393(17) . no
C43 C45 1.415(17) 2_556 no
C43 C44 1.389(16) . no
C44 C45 1.352(19) . no
C46 C47 1.371(18) . no
C46 C51 1.387(17) . no
C47 C48 1.395(16) . no
C48 C49 1.399(18) . no
C49 C50 1.39(2) . no
C49 C52 1.499(19) . no
C50 C51 1.391(17) . no
C52 C53 1.35(2) . no
C52 C57 1.38(2) . no
C53 C54 1.43(2) . no
C54 C55 1.39(2) . no
C55 C56 1.37(2) . no
C55 C58 1.55(2) . no
C56 C57 1.43(2) . no
C3 H3 0.9300 . no
C4 H4 0.9300 . no
C6 H6 0.9300 . no
C7 H7 0.9300 . no
C9 H9 0.9300 . no
C10 H10 0.9300 . no
C12 H12 0.9300 . no
C13 H13 0.9300 . no
C14 H14 0.9300 . no
C16 H16 0.9300 . no
C18 H18 0.9300 . no
C19 H19 0.9300 . no
C21 H21 0.9300 . no
C22 H22 0.9300 . no
C24 H24 0.9300 . no
C24A H24A 0.9300 . no
C25 H25 0.9300 . no
C25A H25A 0.9300 . no
C27 H27 0.9300 . no
C27A H27A 0.9300 . no
C28 H28 0.9300 . no
C28A H28A 0.9300 . no
C32 H32 0.9300 . no
C32A H32A 0.9300 . no
C33 H33 0.9300 . no
C33A H33A 0.9300 . no
C35 H35 0.9300 . no
C35A H35A 0.9300 . no
C36 H36 0.9300 . no
C36A H36A 0.9300 . no
C38 H38 0.9300 . no
C39 H39 0.9300 . no
C41 H41 0.9300 . no
C42 H42 0.9300 . no
C44 H44 0.9300 . no
C45 H45 0.9300 . no
C47 H47 0.9300 . no
C48 H48 0.9300 . no
C50 H50 0.9300 . no
C51 H51 0.9300 . no
C53 H53 0.9300 . no
C54 H54 0.9300 . no
C56 H56 0.9300 . no
C57 H57 0.9300 . no
loop_
_geom_hbond_atom_site_label_D
_geom_hbond_atom_site_label_H
_geom_hbond_atom_site_label_A
_geom_hbond_distance_DH
_geom_hbond_distance_HA
_geom_hbond_distance_DA
_geom_hbond_angle_DHA
_geom_hbond_publ_flag
C3 H3 O1 0.9300 2.5600 2.875(18) 100.00 yes
C32 H32 O3A 0.9300 2.3000 3.18(3) 159.00 yes
loop_
_geom_torsion_atom_site_label_1
_geom_torsion_atom_site_label_2
_geom_torsion_atom_site_label_3
_geom_torsion_atom_site_label_4
_geom_torsion
_geom_torsion_site_symmetry_1
_geom_torsion_site_symmetry_3
_geom_torsion_site_symmetry_4
_geom_torsion_publ_flag
O9 Cd1 O1 C1 -10.1(14) . . . no
O7 Cd1 O1 C1 148.7(14) 1_565 . . no
O8 Cd1 O1 C1 93.7(15) 1_565 . . no
C58 Cd1 O1 C1 120.7(15) 1_565 . . no
O2 Cd1 O1 C1 -122.4(14) 2_777 . . no
O1 Cd1 O7 C58 -92.4(10) . 1_565 1_565 no
O9 Cd1 O7 C58 -2(2) . 1_565 1_565 no
O1 Cd1 O8 C58 94.8(12) . 1_565 1_565 no
O9 Cd1 O8 C58 -178.3(11) . 1_565 1_565 no
O1 Cd1 C58 O7 89.7(10) . 1_565 1_565 no
O1 Cd1 C58 O8 -86.9(12) . 1_565 1_565 no
O9 Cd1 C58 O7 178.9(10) . 1_565 1_565 no
O9 Cd1 C58 O8 2.2(15) . 1_565 1_565 no
O1 Cd1 O2 C1 57.3(14) . 2_777 2_777 no
O9 Cd1 O2 C1 -38.1(14) . 2_777 2_777 no
O4A Cd2 O3A C29A 0.3(14) . . . no
O5 Cd2 O3A C29A 163.9(16) . . . no
O6 Cd2 O3A C29A 37.0(18) 2_665 . . no
O3A Cd2 O4A C29A -0.3(13) . . . no
O5 Cd2 O4A C29A -24.1(16) . . . no
O5 Cd2 O4A C29A -157.3(12) 2_665 . . no
O6 Cd2 O4A C29A -149.6(14) 2_665 . . no
O3A Cd2 O5 C30 95.0(16) . . . no
O3A Cd2 O5 Cd2 -167.0(7) . . 2_665 no
O4A Cd2 O5 C30 114.0(16) . . . no
O4A Cd2 O5 Cd2 -148.0(6) . . 2_665 no
O5 Cd2 O5 C30 -98.0(15) 2_665 . . no
O5 Cd2 O5 Cd2 0.0(6) 2_665 . 2_665 no
O6 Cd2 O5 C30 -138.0(14) 2_665 . . no
O6 Cd2 O5 Cd2 -40.0(9) 2_665 . 2_665 no
O4A Cd2 O5 Cd2 149.0(7) . 2_665 2_665 no
O4A Cd2 O5 C30 16.2(14) . 2_665 2_665 no
O5 Cd2 O5 Cd2 0.0(6) . 2_665 2_665 no
O5 Cd2 O5 C30 -132.8(11) . 2_665 2_665 no
O3A Cd2 O6 C30 149.1(12) . 2_665 2_665 no
O4A Cd2 O6 C30 178.6(13) . 2_665 2_665 no
O5 Cd2 O6 C30 41.5(14) . 2_665 2_665 no
Cd1 O1 C1 O2 91(2) . . . no
Cd1 O1 C1 C2 -93(2) . . . no
Cd1 O2 C1 O1 1(2) 2_777 . . no
Cd1 O2 C1 C2 -175.8(12) 2_777 . . no
Cd2 O3A C29A O4A -1(3) . . . no
Cd2 O3A C29A C26A -177.9(19) . . . no
Cd2 O4A C29A O3A 1(2) . . . no
Cd2 O4A C29A C26A 178.0(19) . . . no
Cd2 O5 C30 O6 115.1(17) . . . no
Cd2 O5 C30 C31 -83.7(19) . . . no
Cd2 O5 C30 O6 13.2(17) 2_665 . . no
Cd2 O5 C30 C31 174.4(14) 2_665 . . no
Cd2 O6 C30 O5 -13.2(18) 2_665 . . no
Cd2 O6 C30 C31 -174.1(13) 2_665 . . no
Cd1 O7 C58 O8 3.5(18) 1_545 . . no
Cd1 O7 C58 C55 -174.5(13) 1_545 . . no
Cd1 O8 C58 O7 -4(2) 1_545 . . no
Cd1 O8 C58 C55 174.2(13) 1_545 . . no
C15 N1 C11 C10 -131.1(13) . . . no
C15 N1 C11 C12 49.0(17) . . . no
C17 N1 C11 C10 40.2(17) . . . no
C17 N1 C11 C12 -139.7(13) . . . no
C11 N1 C15 C14 -146.2(12) . . . no
C11 N1 C15 C16 34.3(18) . . . no
C17 N1 C15 C14 42.5(17) . . . no
C17 N1 C15 C16 -137.1(13) . . . no
C11 N1 C17 C18 44.5(18) . . . no
C11 N1 C17 C22 -134.7(14) . . . no
C15 N1 C17 C18 -144.3(13) . . . no
C15 N1 C17 C22 36.5(19) . . . no
C43 N2 C40 C39 134.9(12) . . . no
C43 N2 C40 C41 -45.2(15) . . . no
C46 N2 C40 C39 -44.9(16) . . . no
C46 N2 C40 C41 135.1(12) . . . no
C40 N2 C43 C44 148.5(11) . . . no
C40 N2 C43 C45 -28.6(16) . . 2_556 no
C46 N2 C43 C44 -31.8(16) . . . no
C46 N2 C43 C45 151.2(11) . . 2_556 no
C40 N2 C46 C47 -47.5(16) . . . no
C40 N2 C46 C51 139.8(12) . . . no
C43 N2 C46 C47 132.8(12) . . . no
C43 N2 C46 C51 -40.0(16) . . . no
O1 C1 C2 C3 0(3) . . . no
O1 C1 C2 C7 -178.1(17) . . . no
O2 C1 C2 C3 176.4(16) . . . no
O2 C1 C2 C7 -2(3) . . . no
C1 C2 C3 C4 -174.5(16) . . . no
C7 C2 C3 C4 4(2) . . . no
C1 C2 C7 C6 175.0(16) . . . no
C3 C2 C7 C6 -3(2) . . . no
C2 C3 C4 C5 -1(3) . . . no
C3 C4 C5 C6 -3(2) . . . no
C3 C4 C5 C8 173.6(15) . . . no
C4 C5 C6 C7 3(2) . . . no
C8 C5 C6 C7 -173.1(15) . . . no
C4 C5 C8 C9 -44(2) . . . no
C4 C5 C8 C13 139.8(17) . . . no
C6 C5 C8 C9 132.4(16) . . . no
C6 C5 C8 C13 -44(2) . . . no
C5 C6 C7 C2 -1(3) . . . no
C5 C8 C9 C10 -175.2(14) . . . no
C13 C8 C9 C10 2(2) . . . no
C5 C8 C13 C12 175.7(14) . . . no
C9 C8 C13 C12 -1(2) . . . no
C8 C9 C10 C11 0(2) . . . no
C9 C10 C11 N1 178.4(12) . . . no
C9 C10 C11 C12 -1.8(19) . . . no
N1 C11 C12 C13 -177.9(13) . . . no
C10 C11 C12 C13 2(2) . . . no
C11 C12 C13 C8 -1(2) . . . no
C16 C14 C15 N1 177.2(11) 2_866 . . no
C16 C14 C15 C16 -3.3(18) 2_866 . . no
C15 C14 C16 C15 3.4(19) . 2_866 2_866 no
N1 C15 C16 C14 -177.1(11) . . 2_866 no
C14 C15 C16 C14 3.4(19) . . 2_866 no
N1 C17 C18 C19 -176.5(12) . . . no
C22 C17 C18 C19 2.9(18) . . . no
N1 C17 C22 C21 174.5(12) . . . no
C18 C17 C22 C21 -4.8(19) . . . no
C17 C18 C19 C20 -1(2) . . . no
C18 C19 C20 C21 1.6(19) . . . no
C18 C19 C20 C23A 179.6(19) . . . no
C19 C20 C21 C22 -4(2) . . . no
C23A C20 C21 C22 178.4(19) . . . no
C19 C20 C23A C24A 38(4) . . . no
C19 C20 C23A C28A -138(2) . . . no
C21 C20 C23A C24A -144(2) . . . no
C21 C20 C23A C28A 40(3) . . . no
C20 C21 C22 C17 6(2) . . . no
C20 C23A C24A C25A 173(2) . . . no
C28A C23A C24A C25A -11(4) . . . no
C20 C23A C28A C27A 178(2) . . . no
C24A C23A C28A C27A 2(4) . . . no
C23A C24A C25A C26A 9(4) . . . no
C24A C25A C26A C27A 4(4) . . . no
C24A C25A C26A C29A -174(2) . . . no
C25A C26A C27A C28A -12(4) . . . no
C29A C26A C27A C28A 165(2) . . . no
C25A C26A C29A O3A 174(3) . . . no
C25A C26A C29A O4A -3(4) . . . no
C27A C26A C29A O3A -3(4) . . . no
C27A C26A C29A O4A 180(2) . . . no
C26A C27A C28A C23A 10(4) . . . no
O5 C30 C31 C32 30(2) . . . no
O5 C30 C31 C36 -150.1(16) . . . no
O6 C30 C31 C32 -169.1(17) . . . no
O6 C30 C31 C36 11(2) . . . no
C30 C31 C32 C33 -180.0(16) . . . no
C36 C31 C32 C33 0(2) . . . no
C30 C31 C36 C35 -180.0(16) . . . no
C32 C31 C36 C35 0(2) . . . no
C31 C32 C33 C34 0(3) . . . no
C32 C33 C34 C35 0(3) . . . no
C32 C33 C34 C37 -174.3(16) . . . no
C33 C34 C35 C36 0(3) . . . no
C37 C34 C35 C36 174.1(17) . . . no
C33 C34 C37 C38 10(3) . . . no
C33 C34 C37 C42 -168.9(16) . . . no
C35 C34 C37 C38 -164.2(16) . . . no
C35 C34 C37 C42 17(2) . . . no
C34 C35 C36 C31 0(3) . . . no
C34 C37 C38 C39 -178.4(13) . . . no
C42 C37 C38 C39 -0.1(19) . . . no
C34 C37 C42 C41 -179.0(14) . . . no
C38 C37 C42 C41 3(2) . . . no
C37 C38 C39 C40 -3.2(19) . . . no
C38 C39 C40 N2 -176.2(11) . . . no
C38 C39 C40 C41 3.9(18) . . . no
N2 C40 C41 C42 178.7(11) . . . no
C39 C40 C41 C42 -1.4(18) . . . no
C40 C41 C42 C37 -2(2) . . . no
N2 C43 C44 C45 -179.4(11) . . . no
C45 C43 C44 C45 -2.3(17) 2_556 . . no
N2 C43 C45 C44 179.5(11) . 2_556 2_556 no
C44 C43 C45 C44 2.4(18) . 2_556 2_556 no
C43 C44 C45 C43 2.4(19) . . 2_556 no
N2 C46 C47 C48 -170.0(11) . . . no
C51 C46 C47 C48 2.8(19) . . . no
N2 C46 C51 C50 170.7(12) . . . no
C47 C46 C51 C50 -2(2) . . . no
C46 C47 C48 C49 -0.9(19) . . . no
C47 C48 C49 C50 -2(2) . . . no
C47 C48 C49 C52 174.0(13) . . . no
C48 C49 C50 C51 2(2) . . . no
C52 C49 C50 C51 -173.3(14) . . . no
C48 C49 C52 C53 46(2) . . . no
C48 C49 C52 C57 -133.1(16) . . . no
C50 C49 C52 C53 -138.4(16) . . . no
C50 C49 C52 C57 42(2) . . . no
C49 C50 C51 C46 0(2) . . . no
C49 C52 C53 C54 -176.3(14) . . . no
C57 C52 C53 C54 3(2) . . . no
C49 C52 C57 C56 175.4(15) . . . no
C53 C52 C57 C56 -4(2) . . . no
C52 C53 C54 C55 -2(2) . . . no
C53 C54 C55 C56 2(2) . . . no
C53 C54 C55 C58 174.3(14) . . . no
C54 C55 C56 C57 -3(3) . . . no
C58 C55 C56 C57 -175.0(15) . . . no
C54 C55 C58 O7 171.8(15) . . . no
C54 C55 C58 O8 -6(2) . . . no
C56 C55 C58 O7 -16(2) . . . no
C56 C55 C58 O8 165.7(17) . . . no
C55 C56 C57 C52 4(3) . . . no
