#------------------------------------------------------------------------------
#$Date: 2019-12-14 02:10:58 +0200 (Sat, 14 Dec 2019) $
#$Revision: 245111 $
#$URL: file:///home/coder/svn-repositories/cod/cif/4/13/37/4133766.cif $
#------------------------------------------------------------------------------
#
# This file is available in the Crystallography Open Database (COD),
# http://www.crystallography.net/
#
# All data on this site have been placed in the public domain by the
# contributors.
#
data_4133766
loop_
_publ_author_name
'Zeng, Heng'
'Xie, Xiao-Jing'
'Xie, Mo'
'Huang, Yong-Liang'
'Luo, Dong'
'Wang, Ting'
'Zhao, Yifang'
'Lu, Weigang'
'Li, Dan'
_publ_section_title
;
 Cage-Interconnected Metal-Organic Framework with Tailored Apertures for
 Efficient C<sub>2</sub>H<sub>6</sub>/C<sub>2</sub>H<sub>4</sub>
 Separation under Humid Conditions.
;
_journal_name_full               'Journal of the American Chemical Society'
_journal_paper_doi               10.1021/jacs.9b10923
_journal_year                    2019
_chemical_formula_moiety         '0.01(C1536 H1440 Cu288 N960 O480)'
_chemical_formula_sum            'C16 H15 Cu3 N10 O5'
_chemical_formula_weight         618.00
_space_group_crystal_system      cubic
_space_group_IT_number           226
_space_group_name_Hall           '-F 4a 2 3'
_space_group_name_H-M_alt        'F m -3 c'
_atom_sites_solution_hydrogens   geom
_atom_sites_solution_primary     dual
_audit_creation_date             2019-06-19
_audit_creation_method
;
Olex2 1.2-beta
(compiled 2018.05.29 svn.r3508 for OlexSys, GUI svn.r5506)
;
_cell_angle_alpha                90
_cell_angle_beta                 90
_cell_angle_gamma                90
_cell_formula_units_Z            96
_cell_length_a                   43.54745(12)
_cell_length_b                   43.54745(12)
_cell_length_c                   43.54745(12)
_cell_measurement_reflns_used    11611
_cell_measurement_temperature    100.00(11)
_cell_measurement_theta_max      77.3080
_cell_measurement_theta_min      4.5060
_cell_volume                     82582.5(4)
_computing_cell_refinement       'CrysAlisPro 1.171.39.33c (Rigaku OD, 2017)'
_computing_data_collection       'CrysAlisPro 1.171.39.33c (Rigaku OD, 2017)'
_computing_data_reduction        'CrysAlisPro 1.171.39.33c (Rigaku OD, 2017)'
_computing_molecular_graphics    'Olex2 (Dolomanov et al., 2009)'
_computing_publication_material  'Olex2 (Dolomanov et al., 2009)'
_computing_structure_refinement  'ShelXL (Sheldrick, 2015)'
_computing_structure_solution    'ShelXT (Sheldrick, 2015)'
_diffrn_ambient_environment      N~2~
_diffrn_ambient_temperature      100.00(11)
_diffrn_detector                 'CCD plate'
_diffrn_measured_fraction_theta_full 0.994
_diffrn_measured_fraction_theta_max 0.982
_diffrn_measurement_details
;
List of Runs (angles in degrees, time in seconds):

  # Type    Start    End  Width  t~exp~   \w     \q     \k     \f   Frames
--------------------------------------------------------------------------
  1  \w     21.00  46.00   0.50    5.98    --   -0.90  69.00  -5.00   50
  2  \w    136.00 162.00   0.50   23.93    --  105.10  53.00-107.00   52
  3  \w      3.00  32.00   0.50    5.98    --    0.90  82.00-150.00   58
  4  \w     82.00 162.00   0.50   23.93    --  105.10  82.00-180.00  160
;
_diffrn_measurement_device       'four-circle diffractometer'
_diffrn_measurement_device_type  'XtaLAB AFC12 (RINC): Kappa single'
_diffrn_measurement_method       '\w scans'
_diffrn_orient_matrix_type
'CrysAlisPro convention (1999,Acta A55,543-557)'
_diffrn_orient_matrix_UB_11      0.0269291000
_diffrn_orient_matrix_UB_12      0.0211177000
_diffrn_orient_matrix_UB_13      -0.0089551000
_diffrn_orient_matrix_UB_21      -0.0224989000
_diffrn_orient_matrix_UB_22      0.0269709000
_diffrn_orient_matrix_UB_23      -0.0040348000
_diffrn_orient_matrix_UB_31      0.0043667000
_diffrn_orient_matrix_UB_32      0.0087599000
_diffrn_orient_matrix_UB_33      0.0340218000
_diffrn_radiation_monochromator  mirror
_diffrn_radiation_probe          x-ray
_diffrn_radiation_type           CuK\a
_diffrn_radiation_wavelength     1.54184
_diffrn_reflns_av_R_equivalents  0.0222
_diffrn_reflns_av_unetI/netI     0.0188
_diffrn_reflns_Laue_measured_fraction_full 0.994
_diffrn_reflns_Laue_measured_fraction_max 0.982
_diffrn_reflns_limit_h_max       40
_diffrn_reflns_limit_h_min       -46
_diffrn_reflns_limit_k_max       54
_diffrn_reflns_limit_k_min       -25
_diffrn_reflns_limit_l_max       24
_diffrn_reflns_limit_l_min       -50
_diffrn_reflns_number            21935
_diffrn_reflns_point_group_measured_fraction_full 0.994
_diffrn_reflns_point_group_measured_fraction_max 0.982
_diffrn_reflns_theta_full        67.684
_diffrn_reflns_theta_max         77.915
_diffrn_reflns_theta_min         4.541
_diffrn_source                   'Rotating-anode X-ray tube (dual wavelength)'
_diffrn_source_type              'Rigaku (Cu) X-ray DW Source'
_exptl_absorpt_coefficient_mu    2.454
_exptl_absorpt_correction_T_max  1.00000
_exptl_absorpt_correction_T_min  0.85696
_exptl_absorpt_correction_type   multi-scan
_exptl_absorpt_process_details
;
CrysAlisPro 1.171.39.33c (Rigaku Oxford Diffraction, 2017)
Empirical absorption correction using spherical harmonics,
 implemented in SCALE3 ABSPACK scaling algorithm.
;
_exptl_crystal_colour            'dull dark red'
_exptl_crystal_colour_lustre     dull
_exptl_crystal_colour_modifier   dark
_exptl_crystal_colour_primary    red
_exptl_crystal_density_diffrn    1.193
_exptl_crystal_description       block
_exptl_crystal_F_000             29568
_exptl_crystal_size_max          0.06
_exptl_crystal_size_mid          0.05
_exptl_crystal_size_min          0.05
_refine_diff_density_max         1.365
_refine_diff_density_min         -1.097
_refine_diff_density_rms         0.096
_refine_ls_extinction_method     none
_refine_ls_goodness_of_fit_ref   1.029
_refine_ls_hydrogen_treatment    constr
_refine_ls_matrix_type           full
_refine_ls_number_parameters     216
_refine_ls_number_reflns         3785
_refine_ls_number_restraints     235
_refine_ls_restrained_S_all      1.011
_refine_ls_R_factor_all          0.0504
_refine_ls_R_factor_gt           0.0474
_refine_ls_shift/su_max          0.002
_refine_ls_shift/su_mean         0.000
_refine_ls_structure_factor_coef Fsqd
_refine_ls_weighting_details
'w=1/[\s^2^(Fo^2^)+(0.0814P)^2^+579.5682P] where P=(Fo^2^+2Fc^2^)/3'
_refine_ls_weighting_scheme      calc
_refine_ls_wR_factor_gt          0.1349
_refine_ls_wR_factor_ref         0.1377
_reflns_Friedel_coverage         0.000
_reflns_number_gt                3433
_reflns_number_total             3785
_reflns_threshold_expression     'I > 2\s(I)'
_cod_data_source_file            ja9b10923_si_002.cif
_cod_data_source_block           As-synthesized_JNU-2
_cod_original_cell_volume        82582.5(7)
_cod_original_sg_symbol_Hall     '-F 4c 2 3'
_cod_database_code               4133766
_shelx_shelxl_version_number     2018/3
_shelx_space_group_comment
;
The symmetry employed for this shelxl refinement is uniquely defined
by the following loop, which should always be used as a source of
symmetry information in preference to the above space-group names.
They are only intended as comments.
;
_shelx_estimated_absorpt_t_max   0.887
_shelx_estimated_absorpt_t_min   0.867
_reflns_odcompleteness_completeness 99.44
_reflns_odcompleteness_iscentric 1
_reflns_odcompleteness_theta     66.97
_olex2_refinement_description
;
1. Fixed Uiso
 At 1.2 times of:
  All C(H) groups, All N(H,H) groups
 At 1.5 times of:
  All C(H,H,H) groups
2. Restrained distances
 C4_1-N9_1
 1.365 with sigma of 0.007
 C8_1-N9_1
 1.352 with sigma of 0.013
 C8_1-N7_1
 1.318 with sigma of 0.009
 C5_1-N7_1
 1.387 with sigma of 0.007
 C4_1-C5_1
 1.389 with sigma of 0.009
 C5_1-C6_1
 1.409 with sigma of 0.01
 C6_1-N1_1
 1.35 with sigma of 0.01
 C6_1-N6_1
 1.337 with sigma of 0.014
 C2_1-N1_1
 1.334 with sigma of 0.011
 C2_1-N3_1
 1.334 with sigma of 0.011
 C4_1-N3_1
 1.343 with sigma of 0.013
 C4_1-C8_1
 2.176 with sigma of 0.014
 N7_1-N9_1
 2.239 with sigma of 0.015
 C5_1-C8_1
 2.128 with sigma of 0.012
 C4_1-N7_1
 2.28 with sigma of 0.013
 C6_1-N7_1
 2.555 with sigma of 0.016
 C4_1-C6_1
 2.382 with sigma of 0.04
 C5_1-N1_1
 2.36 with sigma of 0.017
 C5_1-N6_1
 2.419 with sigma of 0.02
 N1_1-N6_1
 2.306 with sigma of 0.021
 C2_1-C6_1
 2.308 with sigma of 0.018
 N1_1-N3_1
 2.405 with sigma of 0.017
 C2_1-C4_1
 2.267 with sigma of 0.04
 C5_1-N9_1
 2.197 with sigma of 0.012
 N3_1-N9_1
 2.418 with sigma of 0.02
 C5_1-N3_1
 2.441 with sigma of 0.017
 N4-C5 \\sim N4-C6
 with sigma of 0.02
3. Restrained planarity
 C4_1, N9_1, C5_1, N3_1
 with sigma of 0.1
 C6_1, C5_1, N6_1, N1_1
 with sigma of 0.1
 C5_1, N7_1, C6_1, C4_1
 with sigma of 0.1
 N9_1, C8_1, N7_1, C5_1
 with sigma of 0.1
 C8_1, N7_1, C5_1, C4_1
 with sigma of 0.1
 N7_1, C5_1, C4_1, N9_1
 with sigma of 0.1
 C5_1, C4_1, N9_1, C8_1
 with sigma of 0.1
 C4_1, N9_1, C8_1, N7_1
 with sigma of 0.1
 C5_1, C6_1, N1_1, C2_1
 with sigma of 0.1
 C6_1, N1_1, C2_1, N3_1
 with sigma of 0.1
 N1_1, C2_1, N3_1, C4_1
 with sigma of 0.1
 C2_1, N3_1, C4_1, C5_1
 with sigma of 0.1
 N3_1, C4_1, C5_1, C6_1
 with sigma of 0.1
 C4_1, C5_1, C6_1, N1_1
 with sigma of 0.1
 C2, O3, N4, C5, C6
 with sigma of 0.1
4. Uiso/Uaniso restraints and constraints
N9_1 \\sim C8_1 \\sim N7_1 \\sim C5_1 \\sim C6_1 \\sim N6_1 \\sim N1_1 \\sim
C2_1 \\sim N3_1 \\sim C4_1: within 2A with sigma of 0.04 and sigma for terminal
atoms of 0.08
C2 \\sim O3 \\sim N4 \\sim C5 \\sim C6: within 2A with sigma of 0.04 and sigma
for terminal atoms of 0.08
5. Rigid body (RIGU) restrains
 N9_1, C8_1, N7_1, C5_1, C6_1, N6_1, N1_1, C2_1, N3_1, C4_1
 with sigma for 1-2 distances of 0.004 and sigma for 1-3 distances of 0.004
 C2, O3, N4, C5, C6
 with sigma for 1-2 distances of 0.004 and sigma for 1-3 distances of 0.004
6. Same fragment restrains
7. Others
 Fixed Sof: C2(0.5) H2(0.5) O3(0.5) N4(0.5) C5(0.5) H5A(0.5) H5B(0.5) H5C(0.5)
 C6(0.5) H6A(0.5) H6B(0.5) H6C(0.5) N9(0.5) C8(0.5) H8(0.5) N7(0.5) C5(0.5)
 C6(0.5) N6(0.5) H6A(0.5) H6B(0.5) N1(0.5) C2(0.5) H2(0.5) N3(0.5) C4(0.5)
8.a Free rotating group:
 C2(O3,N4,C5,C6)
8.b Aromatic/amide H refined with riding coordinates:
 C008(H008), C00B(H00B), C2(H2), C8(H8), C2(H2)
8.c X=CH2 refined with riding coordinates:
 N6(H6A,H6B)
8.d Idealised Me refined as rotating group:
 C5(H5A,H5B,H5C), C6(H6A,H6B,H6C)
;
_shelx_res_file
;
TITL xxj-dmf-100k_a.res in Fm-3c
    xxj-dmf-100k.res
    created by SHELXL-2018/3 at 16:59:38 on 19-Jun-2019
REM Old TITL XXJ-DMF-100K in Fm-3c
REM SHELXT solution in Fm-3c
REM R1 0.148, Rweak 0.003, Alpha 0.029, Orientation as input
REM Formula found by SHELXT: C76 N19 O36 Br12
REM REM DSR REPLACE ADE WITH N7 C8 N9 ON N009 C00G C00C PART -1 OCC 11 RESI
REM Restraints for Fragment ade, ADENINE from: . Please cite
REM https://doi.org/10.1107/S1600576718004508
REM REM DSR REPLACE ADE WITH N7 C8 N9 ON N009 C00G C00C PART -1 OCC 11 RESI ADE
CELL 1.54184 43.547448 43.547448 43.547448 90 90 90
ZERR 96 0.00012 0.00012 0.00012 0 0 0
LATT 4
SYMM -X,-Y,+Z
SYMM -X,+Y,-Z
SYMM +X,-Y,-Z
SYMM +Z,+X,+Y
SYMM +Z,-X,-Y
SYMM -Z,-X,+Y
SYMM -Z,+X,-Y
SYMM +Y,+Z,+X
SYMM -Y,+Z,-X
SYMM +Y,-Z,-X
SYMM -Y,-Z,+X
SYMM 0.5+Y,0.5+X,0.5-Z
SYMM 0.5-Y,0.5-X,0.5-Z
SYMM 0.5+Y,0.5-X,0.5+Z
SYMM 0.5-Y,0.5+X,0.5+Z
SYMM 0.5+X,0.5+Z,0.5-Y
SYMM 0.5-X,0.5+Z,0.5+Y
SYMM 0.5-X,0.5-Z,0.5-Y
SYMM 0.5+X,0.5-Z,0.5+Y
SYMM 0.5+Z,0.5+Y,0.5-X
SYMM 0.5+Z,0.5-Y,0.5+X
SYMM 0.5-Z,0.5+Y,0.5+X
SYMM 0.5-Z,0.5-Y,0.5-X
SFAC C H Cu N O
UNIT 1536 1440 288 960 480
DFIX_ADE 1.365 0.007 C4 N9
DFIX_ADE 1.352 0.013 C8 N9
DFIX_ADE 1.318 0.009 C8 N7
DFIX_ADE 1.387 0.007 C5 N7
DFIX_ADE 1.389 0.009 C4 C5
DFIX_ADE 1.409 0.01 C5 C6
DFIX_ADE 1.35 0.01 C6 N1
DFIX_ADE 1.337 0.014 C6 N6
DFIX_ADE 1.334 0.011 C2 N1
DFIX_ADE 1.334 0.011 C2 N3
DFIX_ADE 1.343 0.013 C4 N3
SADI N4 C5 N4 C6
DANG_ADE 2.176 0.014 C4 C8
DANG_ADE 2.239 0.015 N7 N9
DANG_ADE 2.128 0.012 C5 C8
DANG_ADE 2.28 0.013 C4 N7
DANG_ADE 2.555 0.016 C6 N7
DANG_ADE 2.382 C4 C6
DANG_ADE 2.36 0.017 C5 N1
DANG_ADE 2.419 0.02 C5 N6
DANG_ADE 2.306 0.021 N1 N6
DANG_ADE 2.308 0.018 C2 C6
DANG_ADE 2.405 0.017 N1 N3
DANG_ADE 2.267 C2 C4
DANG_ADE 2.197 0.012 C5 N9
DANG_ADE 2.418 0.02 N3 N9
DANG_ADE 2.441 0.017 C5 N3
FLAT_ADE C4 N9 C5 N3
FLAT_ADE C6 C5 N6 N1
FLAT_ADE C5 N7 C6 C4
FLAT_ADE N9 C8 N7 C5
FLAT_ADE C8 N7 C5 C4
FLAT_ADE N7 C5 C4 N9
FLAT_ADE C5 C4 N9 C8
FLAT_ADE C4 N9 C8 N7
FLAT_ADE C5 C6 N1 C2
FLAT_ADE C6 N1 C2 N3
FLAT_ADE N1 C2 N3 C4
FLAT_ADE C2 N3 C4 C5
FLAT_ADE N3 C4 C5 C6
FLAT_ADE C4 C5 C6 N1
FLAT C2 O3 N4 C5 C6
SIMU_ADE N9 > C4
SIMU C2 O3 N4 C5 C6
RIGU_ADE N9 > C4
RIGU C2 O3 N4 C5 C6
SAME_ADE 0.02 0.04 N9 > C4

L.S. 12 0 0
PLAN  20
SIZE 0.06 0.05 0.05
BOND $H
list 4
more -4
fmap 2 53
ABIN
ACTA
OMIT 1 7 11
OMIT 1 5 11
REM <olex2.extras>
REM <HklSrc "%.\\XXJ-DMF-100K_sq.hkl">
REM </olex2.extras>

WGHT    0.081400  579.568176
FVAR       0.08325
CU01  3    0.420236    0.720035    0.620686    11.00000    0.01556    0.01590 =
         0.01739    0.00211    0.00014    0.00050
O1    5    0.447422    0.706973    0.677134    11.00000    0.05719    0.03402 =
         0.05247    0.01433   -0.01184   -0.01421
CU02  3    0.467005    0.710863    0.500000    10.50000    0.02683    0.07816 =
         0.05548    0.00000    0.00000    0.00062
O003  5    0.415343    0.683113    0.645399    11.00000    0.03872    0.03832 =
         0.03388    0.01190   -0.00382   -0.00536
N004  4    0.420020    0.634428    0.736897    11.00000    0.02586    0.02297 =
         0.02565    0.00123   -0.00160   -0.00213
N005  4    0.404904    0.618114    0.714594    11.00000    0.02675    0.02863 =
         0.02410    0.00286   -0.00413   -0.00371
C008  1    0.406661    0.634224    0.688512    11.00000    0.03174    0.03378 =
         0.02567    0.00933   -0.00495   -0.00699
AFIX  43
H008  2    0.397898    0.628375    0.669936    11.00000   -1.20000
AFIX   0
C00A  1    0.423389    0.660851    0.693124    11.00000    0.02627    0.02887 =
         0.03491    0.00703   -0.00244   -0.00043
C00B  1    0.431279    0.659794    0.724014    11.00000    0.03471    0.02534 =
         0.03103    0.00424   -0.00024   -0.00428
AFIX  43
H00B  2    0.442754    0.674635    0.734220    11.00000   -1.20000
AFIX   0
C00D  1    0.429629    0.685382    0.670951    11.00000    0.03132    0.03244 =
         0.03761    0.01046    0.00129    0.00135
PART -1
AFIX   6
C2    1    0.390171    0.702136    0.496061    10.50000    0.04113    0.07746 =
         0.10977    0.01360   -0.00978   -0.00174
AFIX  43
H2    2    0.373355    0.714793    0.499678    10.50000   -1.20000
AFIX   5
O3    5    0.414521    0.715046    0.489949    10.50000    0.03175    0.09662 =
         0.04355   -0.00402   -0.00031   -0.00520
N4    4    0.385115    0.671409    0.498115    10.50000    0.05199    0.08351 =
         0.17229    0.06022    0.02880    0.00847
C5    1    0.355764    0.657957    0.502862    10.50000    0.05753    0.10840 =
         0.06811   -0.03132    0.00446   -0.01939
AFIX 137
H5A   2    0.340474    0.673812    0.503773    10.50000   -1.50000
H5B   2    0.355817    0.646702    0.521817    10.50000   -1.50000
H5C   2    0.351172    0.644270    0.486202    10.50000   -1.50000
AFIX   5
C6    1    0.410463    0.650244    0.488214    10.50000    0.06937    0.09122 =
         0.20413    0.01178    0.02753    0.00416
AFIX 137
H6A   2    0.415541    0.654217    0.467133    10.50000   -1.50000
H6B   2    0.403833    0.629330    0.490360    10.50000   -1.50000
H6C   2    0.428225    0.653651    0.500819    10.50000   -1.50000
AFIX   0

RESI ADE 1
N9    4    0.468226    0.710157    0.538938    10.50000    0.01974    0.06519 =
         0.03016   -0.00423   -0.00049    0.00129
C8    1    0.445302    0.711574    0.559429    10.50000    0.02368    0.05324 =
         0.01956    0.00318    0.00221    0.00338
AFIX  43
H8    2    0.424768    0.711102    0.553581    10.50000   -1.20000
AFIX   0
N7    4    0.453812    0.713690    0.588546    10.50000    0.01632    0.03918 =
         0.02087    0.00027   -0.00413    0.00217
C5    1    0.485544    0.713937    0.587127    10.50000    0.01937    0.03369 =
         0.02235    0.00021    0.00115    0.00132
C6    1    0.509342    0.715923    0.609081    10.50000    0.01752    0.02538 =
         0.02204    0.00076    0.00264    0.00084
N6    4    0.505041    0.718545    0.639147    10.50000    0.01188    0.03219 =
         0.02209   -0.00168   -0.00174   -0.00018
AFIX  93
H6A   2    0.520579    0.719808    0.651271    10.50000   -1.20000
H6B   2    0.486718    0.718979    0.646499    10.50000   -1.20000
AFIX   0
N1    4    0.538856    0.715308    0.598183    10.50000    0.01998    0.02758 =
         0.01978    0.00282    0.00290   -0.00342
C2    1    0.544151    0.713004    0.568108    10.50000    0.02661    0.04972 =
         0.01953    0.00124    0.00081   -0.00127
AFIX  43
H2    2    0.564596    0.712392    0.561967    10.50000   -1.20000
AFIX   0
N3    4    0.523045    0.711490    0.545949    10.50000    0.02216    0.06660 =
         0.01964    0.00119   -0.00206    0.00611
C4    1    0.494140    0.711878    0.556444    10.50000    0.02403    0.05050 =
         0.02006   -0.00097    0.00067   -0.00153
HKLF 4




REM  xxj-dmf-100k_a.res in Fm-3c
REM wR2 = 0.1377, GooF = S = 1.029, Restrained GooF = 1.011 for all data
REM R1 = 0.0474 for 3433 Fo > 4sig(Fo) and 0.0504 for all 3785 data
REM 216 parameters refined using 235 restraints

END

WGHT      0.0855    442.4735

REM Highest difference peak  1.365,  deepest hole -1.097,  1-sigma level  0.096
Q1    1   0.4616  0.6782  0.5000  10.50000  0.05    1.36
Q2    1   0.4183  0.6794  0.5000  10.50000  0.05    0.37
Q3    1   0.3577  0.6860  0.5000  10.50000  0.05    0.36
Q4    1   0.4194  0.6831  0.5000  10.50000  0.05    0.35
Q5    1   0.4268  0.6922  0.5000  10.50000  0.05    0.32
Q6    1   0.3565  0.6903  0.5000  10.50000  0.05    0.27
Q7    1   0.5000  0.7155  0.5000  10.25000  0.05    0.24
Q8    1   0.4586  0.7436  0.5239  11.00000  0.05    0.24
Q9    1   0.4636  0.7479  0.5000  10.50000  0.05    0.22
Q10   1   0.4205  0.7183  0.6620  11.00000  0.05    0.19
Q11   1   0.5000  0.7416  0.6187  10.50000  0.05    0.18
Q12   1   0.5000  0.7011  0.5999  10.50000  0.05    0.18
Q13   1   0.4213  0.6391  0.6772  11.00000  0.05    0.18
Q14   1   0.4193  0.7196  0.6747  11.00000  0.05    0.17
Q15   1   0.5210  0.7230  0.5384  11.00000  0.05    0.17
Q16   1   0.4327  0.7310  0.6024  11.00000  0.05    0.17
Q17   1   0.4648  0.7500  0.5352  10.50000  0.05    0.16
Q18   1   0.5000  0.5794  0.5215  10.50000  0.05    0.15
Q19   1   0.3746  0.6383  0.5223  11.00000  0.05    0.15
Q20   1   0.5000  0.7334  0.7008  10.50000  0.05    0.15
;
_shelx_res_checksum              91744
_shelx_hkl_file
;
   3   1  -1-0.64410 3.82266   1
  -3   1   1 1.20007 2.54923   1
   1   3   1-0.56444 4.05716   1
   1  -1   3-1.72600 4.71088   3
   3  -1   3 0.93972 4.87245   3
  -3  -3   1 8.35199 5.52995   3
  -1  -3  -3 1.79996 4.81166   1
   1  -3  -3 4.54354 2.71036   1
   3   3  -3 2.07254 8.13784   3
  -3  -3   3-0.18812 7.45206   3
   4   0  -2 24391.6 832.664   1
   0   4   2 25063.1 832.723   1
  -4  -2   0 24984.2 832.452   3
   4   2   0 24293.8 832.443   3
   4   2  -2 4222.94 144.258   3
   2  -2   4 4213.53 144.495   3
  -2  -4  -2 4241.10 144.213   1
   2   4   2 4294.54 144.301   1
  -2   2  -4 4301.24 144.491   3
  -4   2   2 4200.54 143.284   1
  -2  -4   2 4236.39 144.641   3
  -4   0  -4 703.880 25.2592   3
   0  -4  -4 705.574 25.2484   1
   4  -2   4 11907.5 401.934   3
   2  -4   4 11753.5 402.603   3
   2  -4  -4 12106.1 400.881   1
  -2  -4  -4 11415.0 401.991   1
  -4  -4   2 11646.5 402.211   3
   4   4  -4 35934.9 1179.34   3
  -4  -4   4 33935.0 1179.25   3
  -4  -4  -4 34886.7 1178.99   1
  -5  -1   1 1.00263 5.97068   1
  -5   1   1-1.76172 4.69191   1
   5   1  -1-0.43780 5.73082   1
  -1   1  -5-1.88794 7.18874   3
  -5  -1  -1-1.83724 6.52087   1
  -1  -5  -3 2453.91 81.3675   1
   5  -1  -3 2334.24 80.7558   1
  -1   3  -5 2388.25 82.5060   3
   1   5   3 2429.04 81.4380   1
   3   5   1 2273.66 81.8710   1
   1  -3   5 2358.88 82.3420   3
  -1   5   3 2421.51 80.8628   1
   5   3  -1 2214.79 81.7858   1
   5   3  -1 2381.46 81.2587   3
   5  -1   3 2328.49 80.8726   3
  -3   1  -5 2441.31 81.6966   3
  -5  -3  -1 2344.62 80.5919   3
  -5  -3   1 2386.62 81.3065   3
  -3  -5  -3 1.59419 7.70677   1
   3   5   3 9.59243 8.35936   1
   3   3  -5 15.9804 11.0669   3
   3  -3   5-0.22319 8.68462   3
   5   3  -3 8.92723 8.69728   3
  -3  -5   3-10.5240 9.13830   3
  -5  -5   1 7.81889 8.15407   3
  -5  -1  -5-1.20266 5.71866   3
  -1  -5  -5-5.41554 6.87258   1
   1  -5  -5-0.33180 5.13539   1
   5  -1   5 11.5851 7.13515   3
  -3  -5   5 7.02741 10.5825   3
   5   5  -3-7.25116 9.75412   3
  -3  -5  -5 6.11926 8.50070   1
  -5  -5   3 1.75837 9.52820   3
   3  -5   5-6.39437 10.7336   3
   5  -3   5-0.88218 9.27438   3
   5   3  -5 0.55894 11.3911   3
   3   5  -5-14.0668 12.5974   3
   5   5  -5-11.8307 11.5770   3
  -5  -5  -5 13.1003 10.3546   1
  -6   0   0 29026.3 980.217   1
  -6  -2   0 5262.75 177.682   1
   6   2   0 5218.74 176.485   3
   6   0  -2 5227.82 177.136   1
  -6   0   2 5265.42 177.105   1
   6   2   0 5025.30 177.702   1
  -6   2   2 7124.10 239.372   1
   2   6   2 7052.14 240.241   1
   6   2  -2 7086.90 240.160   1
  -2   2  -6 6940.40 240.577   3
   6   0  -4 3861.99 130.709   1
  -4   0  -6 3937.92 131.201   3
   0   6   4 3843.12 130.887   1
  -6  -4   0 3721.51 130.665   3
   2  -4   6 6519.51 219.043   3
  -4  -6   2 6291.82 218.581   3
   4  -2   6 6409.85 218.315   3
   4   6   2 6405.54 218.608   1
   6  -2  -4 6325.28 216.909   1
  -2   6   4 6531.19 217.015   1
   6   4  -2 6356.57 218.072   3
   6   4  -2 6461.08 218.446   1
  -2  -6  -4 6496.95 218.119   1
  -4   2  -6 6495.49 218.318   3
  -2  -6   4 6074.88 219.092   3
   6  -2   4 6411.82 217.674   3
   4   4  -6 12245.3 416.270   3
   6   4  -4 12004.6 415.631   3
  -4  -6  -4 12212.8 415.536   1
  -4  -6   4 12367.7 416.144   3
   4  -4   6 12454.0 415.839   3
  -6  -6   0 4271.11 146.367   3
  -6   0  -6 4240.76 145.906   3
   0  -6  -6 4317.61 145.931   1
  -6  -6   2 14048.7 497.152   3
   2  -6   6 14820.0 498.346   3
  -2  -6  -6 14905.4 496.928   1
   6  -2   6 14333.2 496.714   3
   2  -6  -6 14963.8 495.742   1
  -6  -6  -4 13604.1 464.738   1
  -4  -6   6 14178.6 465.491   3
   4   6  -6 14031.9 465.514   3
   6   6  -4 14011.8 464.824   3
  -6  -6   4 13869.5 464.840   3
   4  -6   6 13176.4 465.192   3
   6   4  -6 13660.2 465.053   3
  -4  -6  -6 12869.7 464.344   1
   6  -4   6 14035.8 464.505   3
   6   6  -6 21395.3 730.102   3
  -6  -6  -6 21666.4 729.600   1
  -7  -1  -1 2.92149 8.30158   1
  -7  -1   1 5.02006 8.17467   1
  -7   1   1-0.99799 6.84530   1
  -1   1  -7 8.05412 9.64989   3
   7   3  -1 6271.52 217.659   1
  -1   3  -7 6498.94 218.407   3
  -3   1  -7 6472.09 217.773   3
   7   3  -1 6336.89 216.696   3
  -1   7   3 6487.58 216.688   1
   7   1  -3 6312.45 217.102   1
  -7  -3  -1 6092.18 217.723   1
   3   7   1 6372.14 217.685   1
   1   7   3 6563.88 217.213   1
  -3   3  -7 17.8975 10.0577   3
   3  -3   7-0.56994 10.3668   3
   7   3  -3 2.00227 9.30241   3
   7   3  -3 2.82374 8.50263   1
  -3  -7   3 1.87939 11.1268   3
  -7   3   3 3.00409 4.67487   1
   3   7   3 1.50426 9.25101   1
  -7  -5   1 1546.97 54.3387   3
  -1   5  -7 1534.72 56.2503   3
   5   7   1 1498.56 55.6310   1
   7  -1  -5 1572.02 53.5831   1
   7  -1   5 1540.22 53.6217   3
   7   5  -1 1462.35 55.4234   1
  -1  -7  -5 1624.25 54.2911   1
   1  -5   7 1472.28 56.3740   3
  -5  -1  -7 1564.70 54.4284   3
  -7  -5  -1 1510.73 53.6038   3
  -5   1  -7 1524.74 54.7165   3
  -3  -7  -5 4786.38 159.101   1
   3  -5   7 4445.62 160.062   3
  -5  -7   3 4670.47 159.735   3
   5   7   3 4646.02 159.635   1
  -5  -7  -3 4718.42 159.533   1
   7   5  -3 4504.04 159.174   3
   5  -3   7 4587.26 159.193   3
  -3  -7   5 4705.25 160.323   3
   5   3  -7 4689.67 160.268   3
   7   3  -5 4495.63 159.480   3
   7  -3   5 4729.63 158.745   3
   5  -5   7-19.9509 11.5619   3
  -5  -7   5-9.39751 11.9016   3
   5   5  -7 5.09264 13.8344   3
  -5  -7  -5 3.46464 9.93609   1
   7   5  -5-5.06588 11.8119   3
  -7  -1  -7-0.51086 7.31481   3
  -7  -7   1-6.35704 9.45197   3
   1  -7   7 5.89815 13.1686   3
   1  -7  -7-2.97492 5.63854   1
  -1  -7  -7 9.98125 8.14166   1
  -3  -7   7 15.9701 11.8416   3
   7  -3   7 2.14089 9.41100   3
   7   3  -7-6.56312 12.7798   3
  -3  -7  -7-4.03002 9.17790   1
  -7  -7   3 5.77591 11.6213   3
   7  -3  -7 3.37627 4.10108   1
   7   7   3 16.5225 12.1338   1
   3  -7   7 3.78411 12.7440   3
  -5  -7   7-5.38213 13.4109   3
  -7  -7  -5-0.75053 10.9000   1
   5  -7   7 15.5095 12.7050   3
  -5  -7  -7 3.48517 10.6866   1
   5   7  -7 1.78572 12.6512   3
   7   5  -7 2.48254 12.8271   3
   7  -5   7 14.4953 11.5743   3
  -7  -7   5-5.85305 12.1664   3
   7  -7   7 3.39632 11.8829   3
   7   7  -7 17.0093 13.6416   3
  -7  -7  -7-3.69032 10.9231   1
  -8   0   0 1539.89 54.6347   1
   0   2  -8 45.5128 12.1411   3
  -8  -2   0 37.9213 10.3655   1
   8   2   0 44.4509 5.82529   3
   2   8   2 22580.1 765.036   1
   8   2  -2 22391.0 765.034   1
  -8   2   2 23168.2 764.300   1
  -2   2  -8 22502.5 765.673   3
  -8  -2  -2 22123.4 765.415   1
   8   4   0 8089.42 270.374   1
   8   0  -4 7847.79 269.174   1
  -4   0  -8 8114.82 270.021   3
   8   0   4 7849.74 267.990   3
  -8  -4   0 7837.22 270.328   1
   0   4  -8 7589.42 270.960   3
   0   8   4 8230.09 269.323   1
   8   4  -2 25.4439 8.90721   3
   8   4  -2 20.9812 9.91940   1
   8   2  -4 31.2991 8.43651   1
  -4   2  -8 10.6667 9.19815   3
  -2   8   4 30.4776 6.42546   1
  -2   4  -8 16.0622 11.9345   3
   4   8   2 28.8554 10.6620   1
   2  -4   8 27.3176 13.0463   3
  -2  -8   4 20.5955 12.1790   3
   2   8   4 29.1973 9.22080   1
  -4   8   4 261.656 10.4300   1
   4  -4   8 241.236 16.3161   3
   8   4  -4 249.875 14.6124   1
   4   4  -8 231.996 17.6309   3
   8   4  -4 226.223 14.9046   3
  -4  -8   4 269.490 17.1699   3
   4   8   4 218.492 14.9710   1
  -8  -6   0 46970.4 1583.48   3
   8   0  -6 45676.3 1583.33   1
  -6   0  -8 48438.1 1583.87   3
  -6  -8   2 9087.85 310.664   3
  -2  -8   6 8535.62 311.426   3
   8  -2  -6 9036.32 308.653   1
   2  -6   8 9473.77 311.606   3
  -8  -6   2 9182.95 309.973   3
   2  -8   6 8978.38 311.565   3
  -8  -6  -2 9079.80 308.865   3
   8   6  -2 9079.60 310.726   1
   6   8   2 9115.92 310.859   1
   2  -6  -8 9295.71 308.788   1
  -8  -2  -6 9153.48 308.287   3
   8  -2   6 9005.67 309.332   3
  -2  -8  -6 9258.35 309.928   1
   4  -6  -8 9336.02 314.670   1
   8   4  -6 9293.62 317.628   3
   8  -4   6 9150.93 316.754   3
   8   6  -4 9334.66 317.298   3
  -6  -8  -4 9217.54 317.429   1
  -8   6   4 9375.50 314.607   1
  -4  -8  -6 9560.58 317.178   1
   4   6  -8 9222.27 318.515   3
  -6  -8   4 9286.10 317.785   3
  -4  -8   6 9402.99 318.388   3
   6  -4   8 8931.34 317.141   3
   4  -6   8 9326.43 318.052   3
   6   4  -8 9295.83 318.222   3
  -6  -8  -6 15905.6 542.034   1
   8   6  -6 16047.9 542.391   3
   6  -6   8 15755.0 542.329   3
   6   6  -8 16219.3 542.994   3
  -6  -8   6 15943.5 542.728   3
  -6  -6  -8 16141.5 542.148   1
  -8  -6  -6 15793.9 542.293   1
   0  -8  -8 3052.86 106.384   1
  -8  -8   0 3132.18 107.128   3
  -2  -8  -8 998.302 37.0665   1
  -8  -8   2 962.231 37.8503   3
   2  -8   8 974.570 39.9017   3
   2  -8  -8 973.284 35.1179   1
  -8  -2  -8 1012.26 35.7217   3
  -4  -8  -8 450.444 21.3620   1
  -4  -8   8 519.076 23.9548   3
   8  -4  -8 460.276 16.6885   1
   8   4  -8 460.605 23.4465   3
   4  -8   8 469.092 23.9349   3
   8  -4   8 486.680 21.2413   3
  -8  -8   4 451.323 22.1383   3
  -8  -8  -4 458.836 22.3766   1
  -6  -8  -8 10679.3 361.883   1
  -8  -8  -6 10428.6 362.007   1
   6   8  -8 10478.9 362.858   3
   8  -6   8 10607.9 361.861   3
   6  -8   8 10598.3 362.631   3
   8   6  -8 10865.5 362.750   3
  -8  -6  -8 10636.5 362.227   1
   8  -8   8 25531.6 869.267   3
   8   8  -8 25829.0 869.754   3
  -8  -8  -8 25583.1 869.072   1
  -9  -1  -1 9.64192 9.68066   1
  -9   1   1 7.41713 8.32711   1
  -9  -1   1 2.82118 9.35373   1
  -1   1  -9-14.4159 12.4592   3
   1   9   3 1975.62 68.0284   1
  -9  -3  -1 2008.85 68.8276   1
   9   1  -3 1985.85 67.9526   1
  -3   1  -9 1910.17 68.7388   3
   9   3  -1 1917.73 68.5220   1
  -1   3  -9 1935.15 69.5809   3
   9   3  -1 1837.66 66.8587   3
   9   3  -3-2.30593 9.70874   1
  -9   3   3-1.44096 6.14979   1
   9   3  -3 3.94498 9.23012   3
  -3   3  -9 20.0461 11.3245   3
   3   9   3 16.1207 9.38152   1
  -9  -3  -3-10.6578 10.2730   1
  -9  -5  -1 26475.9 906.916   1
  -1   9   5 27343.7 905.554   1
   1  -5   9 26874.8 907.630   3
   9  -1  -5 27185.5 905.436   1
  -5   1  -9 27541.5 906.606   3
   9  -1   5 25953.6 904.852   3
  -1   5  -9 27928.9 907.856   3
   9   5  -1 26018.5 906.872   1
   5   9   1 27100.2 906.973   1
   9   1  -5 26374.7 905.851   1
   1   9   5 27018.0 906.102   1
   3   9   5 392.722 18.4420   1
   5   9   3 404.376 19.6574   1
   9   5  -3 361.123 17.9830   3
  -3   9   5 362.636 15.0710   1
   9   3  -5 340.657 18.4584   3
  -5   3  -9 364.153 18.5255   3
   5   3  -9 414.056 21.1288   3
   3  -5   9 412.251 20.8662   3
  -5  -9   3 398.644 19.8543   3
  -9   5   3 377.121 14.9608   1
  -3  -9   5 372.652 21.4169   3
  -9  -5  -3 376.358 13.9354   3
   9   5  -3 379.148 18.7548   1
   9   3  -5 338.471 17.5924   1
  -5  -9  -5 3.19075 10.0129   1
  -5   9   5 6.75143 4.26353   1
   5  -5   9 0.80367 12.0817   3
   5   5  -9 4.27277 14.3657   3
  -5  -9   5 5.34164 13.6047   3
   9   5  -5-7.11079 11.3255   3
  -7  -1  -9 5792.61 195.322   3
   1  -7  -9 5724.89 194.739   1
   7   9   1 5260.61 196.447   1
  -1  -7  -9 5663.57 195.288   1
  -7  -9   1 5469.74 196.182   3
   9  -1  -7 5871.41 194.657   1
   1  -7   9 5620.31 197.550   3
  -9  -7   1 5718.16 195.376   3
   9   7  -1 5560.08 196.648   1
  -7   1  -9 5776.82 195.648   3
  -1  -9  -7 5909.31 195.321   1
  -9  -7  -1 5840.48 194.831   3
  -9  -3  -7 2198.28 74.1562   3
   9   3  -7 2144.91 77.8517   3
   7   3  -9 2210.69 78.7870   3
  -3  -9   7 2118.52 78.7554   3
   3  -9   7 2164.95 79.1944   3
  -7  -9   3 2153.84 77.3665   3
  -3  -7  -9 2206.83 76.7312   1
   9  -3   7 2145.22 75.9241   3
   3  -7   9 2212.16 78.7697   3
  -3  -9  -7 2128.70 76.5484   1
   9   7  -3 2133.35 77.2425   1
   3  -7  -9 2126.23 74.3681   1
   7   9   3 2193.69 77.8586   1
  -5  -9  -7 5395.69 180.805   1
  -5  -7  -9 5293.06 180.742   1
   5  -7   9 5407.31 181.822   3
   5   7  -9 5440.44 182.371   3
  -7  -9   5 5371.67 181.473   3
  -5  -9   7 5295.62 182.032   3
  -9  -5  -7 4926.79 181.109   1
   9  -5   7 5166.38 180.474   3
   9   5  -7 5116.84 181.245   3
   9   7  -5 5146.79 180.906   3
   5  -9   7 5362.98 181.995   3
  -9  -7  -5 4873.68 181.041   1
   7   5  -9 5289.45 181.916   3
  -7  -9  -5 5357.77 181.107   1
   7  -5   9 5301.36 180.836   3
  -9  -7  -7 0.95073 12.3748   1
   9   7  -7 17.2591 13.0072   3
   9  -7   7 3.44669 12.0782   3
  -7  -7  -9 9.48693 11.9981   1
   7   7  -9-4.89031 12.8609   3
  -7  -9  -7-3.09389 11.1616   1
  -7  -9   7-1.04962 14.3628   3
   7  -7   9 17.6213 13.5739   3
  -1  -9  -9 20.3495 8.51964   1
  -9  -1  -9-0.87408 7.29006   3
   1  -9   9 2.77460 15.9463   3
  -9  -9   1-1.00712 10.0205   3
   1  -9  -9-5.94780 6.07060   1
  -9  -9  -1 4.39540 8.72847   3
   9   9   3-10.0803 13.0008   1
  -3  -9  -9 2.79404 9.54615   1
   9   9  -3 4.55488 11.0491   1
  -9  -9   3 6.68651 11.4781   3
   9  -3  -9 1.08610 4.84496   1
   9   3  -9 3.51756 13.8082   3
  -3  -9   9 14.2236 15.9488   3
   3  -9   9-3.89991 14.2970   3
  -9  -3  -9 1.60016 6.82965   3
  -9  -9   5 13.9233 11.6002   3
  -5  -9  -9-1.65136 11.4683   1
  -9  -9  -5-19.5901 12.9518   1
   9   5  -9 6.26585 12.9607   3
  -5  -9   9-1.17180 15.8286   3
   5  -9   9 12.8265 13.6755   3
   9  -5   9 3.91846 10.2324   3
  -7  -9  -9 4.77244 10.8991   1
  -9  -7  -9 18.1305 10.7867   1
   9   7  -9-5.07816 13.1411   3
  -9  -9  -7 2.02601 12.3838   1
   7  -9   9 3.94348 14.3698   3
   9  -7   9 4.30709 12.2592   3
  -9  -9  -9-9.79171 12.5551   1
   9  -9   9-11.3971 13.9405   3
   9   9  -9-1.22452 13.0976   3
   0   2 -10 7104.11 241.749   3
 -10  -2   0 7176.63 240.707   1
  10   2   0 6876.59 238.695   3
 -10   0   2 7250.87 240.109   1
  10   2  -2 6268.95 213.743   1
 -10   2   2 6287.74 212.896   1
  -2   2 -10 6088.33 214.669   3
 -10  -2  -2 6211.47 214.157   1
   2  10   2 6322.13 213.717   1
  -4   0 -10 5166.97 177.512   3
 -10  -4   0 5179.19 177.597   1
  10   0  -4 5082.02 176.511   1
   0  10   4 5168.88 176.499   1
   0   4 -10 5245.64 178.716   3
 -10  -4  -2 1888.57 67.3918   1
   4  10   2 1939.02 67.0989   1
  -4   2 -10 1861.39 67.0392   3
 -10   4   2 1894.22 65.0677   1
  -2  10   4 1869.40 65.1338   1
  -2   4 -10 1865.14 68.0606   3
  10   4  -2 1823.26 65.4131   3
  10   4  -2 1818.58 66.6798   1
  10   2  -4 1786.16 66.1978   1
   2  10   4 1885.44 66.3226   1
 -10   4   4 1857.70 64.4134   1
   4  10   4 1921.21 66.9771   1
  -4 -10   4 1804.78 68.2102   3
  -4   4 -10 1923.81 67.8729   3
  10   4  -4 1796.47 66.3522   3
  10   4  -4 1871.76 66.7917   1
   0   6 -10 7.96280 14.6849   3
  10   0  -6 14.5098 7.41759   1
   6  10   0 1.59897 12.0734   1
  10   6   0-2.04419 12.9689   1
  -6   0 -10 25.1585 10.1844   3
  -6   2 -10 1657.88 62.8984   3
   2  -6  10 1714.66 64.5407   3
  10   6  -2 1742.30 63.3729   1
  -6 -10   2 1771.82 63.7842   3
  -2 -10   6 1770.98 64.8410   3
  10  -2   6 1749.84 61.0515   3
   6  10   2 1781.38 63.6518   1
  10   2  -6 1757.90 62.1492   1
  10   6  -4 749.297 30.5548   1
 -10  -6  -4 720.626 25.8392   3
   4   6 -10 688.053 32.4981   3
  -6 -10   4 748.588 31.6573   3
   6   4 -10 736.107 32.4573   3
   6  10   4 776.106 30.6201   1
  10   4  -6 745.036 29.6812   1
  10  -4   6 731.123 28.8192   3
  10   6  -4 693.601 29.8227   3
   4  -6  10 761.025 32.0117   3
  10   4  -6 700.028 30.3769   3
 -10   6   4 743.383 26.2131   1
  -4 -10   6 722.526 31.7978   3
  -6 -10   6 289.129 18.7872   3
   6  -6  10 293.092 18.5715   3
   6   6 -10 277.948 20.4625   3
  10   6  -6 271.696 17.7192   3
  -6 -10  -6 296.925 17.2266   1
  10   0  -8 4563.77 154.841   1
  -8   0 -10 4531.88 155.420   3
   0  -8 -10 4806.56 155.106   1
  -8 -10   0 4406.91 155.964   3
   0  -8  10 4130.91 157.635   3
 -10  -8   0 4449.28 155.037   3
   8  10   2 2776.90 100.668   1
  10   8  -2 2878.32 100.696   1
  -8  -2 -10 2853.41 98.6689   3
   2  -8  10 2706.58 101.605   3
   2 -10   8 2789.26 101.820   3
  -8 -10   2 2818.68 100.175   3
   2  -8 -10 2893.25 97.7823   1
  10  -2  -8 2838.21 97.6466   1
  -2  -8 -10 2823.12 99.1567   1
 -10  -8   2 2847.57 99.3754   3
 -10  -8  -2 2853.33 98.0731   3
  -2 -10  -8 2858.34 99.1980   1
   8  -4  10 2919.78 103.004   3
  10   4  -8 2869.29 103.943   3
  10  -4   8 2880.75 102.346   3
  -4 -10   8 2914.92 104.982   3
   4 -10   8 2990.81 105.421   3
 -10  -4  -8 2997.67 100.189   3
  -4 -10  -8 2983.77 102.962   1
   4  -8  10 2870.66 104.701   3
   8   4 -10 2907.46 104.966   3
   4   8 -10 2855.61 105.187   3
  10   8  -4 2985.98 103.829   1
  -4  -8 -10 2909.03 103.017   1
  -8 -10   4 2865.39 103.733   3
   4  -8 -10 2928.31 100.003   1
   8  -6  10 2514.70 94.1229   3
   6  -8  10 2699.30 95.2059   3
   6   8 -10 2611.56 95.9624   3
  -8 -10   6 2689.02 95.1443   3
  10  -6   8 2627.06 93.7547   3
 -10  -6  -8 2648.11 94.9088   1
 -10  -8  -6 2648.05 94.8699   1
  -6  -8 -10 2632.47 94.1057   1
   8   6 -10 2714.78 95.6684   3
  -6 -10   8 2578.81 95.6672   3
  -8 -10  -6 2656.68 94.5324   1
  -6 -10  -8 2700.01 94.1721   1
  10   6  -8 2686.43 94.9674   3
   6 -10   8 2671.90 95.8065   3
  10   8  -8 1526.27 59.3578   3
  -8 -10  -8 1585.12 58.7117   1
   8  -8  10 1600.54 59.4478   3
  -8  -8 -10 1536.19 58.7942   1
   8   8 -10 1516.15 59.9598   3
   8 -10   8 1589.55 60.0608   3
  10  -8   8 1558.51 58.8041   3
 -10  -8  -8 1658.25 59.6433   1
   0 -10 -10 1447.69 51.3807   1
 -10 -10   0 1404.90 52.4347   3
  -2 -10 -10 2119.73 73.7391   1
 -10 -10   2 2037.95 74.1813   3
  10  -2 -10 2071.94 71.8682   1
   2 -10  10 2058.52 76.7132   3
 -10 -10  -2 2038.59 73.1812   3
 -10  -2 -10 2078.67 72.1965   3
  10   4 -10 1876.47 70.0510   3
  10  10  -4 1880.51 69.3489   1
  10  -4  10 1795.22 67.6392   3
  10  -4 -10 1904.54 64.7000   1
  -4 -10 -10 1833.15 68.0535   1
 -10 -10   4 1805.20 68.4893   3
  -4 -10  10 1856.57 70.8732   3
   4 -10  10 1971.05 71.1295   3
 -10  -4 -10 1945.23 65.9616   3
  10  -6  10 1061.80 40.1107   3
 -10  -6 -10 1023.01 41.4906   1
  -6 -10 -10 986.035 40.0613   1
   6 -10  10 1040.82 42.4088   3
 -10 -10  -6 996.000 40.9893   1
  10   6 -10 1003.26 41.9783   3
  10   8 -10 4938.16 176.913   3
  10  -8  10 5115.48 176.074   3
 -10 -10  -8 4989.09 176.276   1
 -10  -8 -10 4890.24 176.195   1
  10 -10   8 5213.15 176.645   3
   8 -10  10 5145.17 177.093   3
  -8 -10 -10 5093.70 175.985   1
  10 -10  10 1506.42 56.9963   3
 -10 -10 -10 1444.84 56.5975   1
 -11   1   1 14.1949 9.50725   1
  -1   1 -11-16.7567 13.6737   3
 -11  -1   1 19.7886 10.2322   1
 -11  -1  -1 9.34847 10.3821   1
   1   3 -11 8400.56 295.010   3
 -11   3   1 8682.50 292.789   1
  11   3  -1 8455.98 291.960   3
 -11   1   3 8748.27 292.766   1
 -11  -3  -1 8742.64 294.031   1
  -3   1 -11 8672.90 294.333   3
   1  11   3 8681.18 293.268   1
 -11  -3   1 8439.63 293.659   1
  -1   3 -11 8685.18 294.923   3
  11   3  -3 1.39779 10.2727   1
  -3   3 -11 22.3734 13.1393   3
 -11   3   3 7.40945 7.40780   1
 -11  -3  -3 3.26906 10.5562   1
  11   3  -3 2.43758 9.03738   3
   3  11   3 2.83451 10.5556   1
  11  -1   5 296.340 12.7548   3
   1  11   5 297.267 16.1291   1
  11   5  -1 301.896 18.2875   1
  11   1  -5 305.165 16.0147   1
   5  11   1 315.266 18.4789   1
  -5  -1 -11 349.612 17.6611   3
   1   5 -11 303.551 21.5697   3
  -1  11   5 323.319 14.7701   1
  -5   1 -11 305.010 17.2867   3
 -11  -5  -1 316.387 18.3503   1
  -1   5 -11 345.895 19.8366   3
  11   5  -3 50.4782 11.3369   1
  -3 -11   5 55.9164 15.4888   3
   3  11   5 53.1349 11.0429   1
  11   5  -3 44.3809 10.1817   3
  -3  11   5 52.7664 7.33749   1
   5  11   3 47.8779 13.0128   1
  11   3  -5 44.9761 11.5156   3
  -5   3 -11 36.9655 11.2959   3
 -11   5   3 50.3901 7.19001   1
  11   3  -5 42.7926 10.1320   1
 -11  -3  -5 39.9947 11.6402   1
  -5 -11   3 49.4901 13.7956   3
 -11  -5  -3 54.6907 12.2571   1
   5   3 -11 55.1880 15.8541   3
  -3   5 -11 42.1275 12.6914   3
  11   5  -5-0.80540 10.9432   1
  11   5  -5-17.6714 11.2459   3
   5   5 -11-9.56376 13.1898   3
   5  11   5-1.72250 11.6776   1
  -5  11   5 8.04641 5.61038   1
  -5 -11   5-1.04945 14.2473   3
  -7  -1 -11 343.300 17.9565   3
  11   7   1 349.301 19.6880   1
  -7   1 -11 349.676 18.1956   3
  11  -1  -7 355.946 15.7507   1
   7  11   1 288.938 19.5462   1
   1  -7  11 437.990 21.4967   3
  11   7  -1 369.044 20.4317   1
   7  11  -1 281.059 18.9179   1
  11   1  -7 360.979 16.3691   1
  11  -3   7 1743.97 62.6745   3
   7  11   3 1855.13 65.5610   1
   3 -11   7 1749.56 66.7020   3
 -11  -7  -3 1780.93 61.2318   3
  11   7  -3 1769.83 64.8269   1
  -7 -11   3 1757.12 65.2965   3
   3  -7  11 1759.19 66.1450   3
  -3 -11   7 1762.41 66.5636   3
   7   3 -11 1792.68 66.6477   3
  11   3  -7 1743.43 63.6724   1
  11   3  -7 1791.44 65.1172   3
  11   7  -5 4638.06 166.004   1
  11   7  -5 4683.07 165.805   3
   5  -7  11 4818.76 167.104   3
  -7  11   5 4720.82 162.541   1
  11  -5   7 4793.80 165.061   3
   5  -7 -11 4914.27 162.510   1
   7  -5  11 4860.37 166.311   3
  11   5  -7 4656.14 166.232   3
  11   5  -7 4878.44 165.670   1
  -7 -11   5 4702.70 166.855   3
   5   7 -11 4821.08 167.767   3
  -5 -11   7 4827.01 167.642   3
   7   5 -11 4739.67 167.415   3
 -11  -7  -5 4787.01 162.508   3
  -7 -11  -7-1.93085 11.4684   1
   7   7 -11-5.03260 13.7235   3
  11   7  -7 9.55584 12.7181   3
  -7 -11   7 1.18123 13.0745   3
   7  -7  11-2.13684 13.5736   3
 -11  -7  -7 3.80057 11.5264   1
   9  11   1 4834.33 181.179   1
  -9  -1 -11 5323.51 179.472   3
  11  -1  -9 5400.90 178.845   1
 -11  -9   1 5296.34 179.682   3
  11   1  -9 4940.68 179.357   1
   1  -9 -11 5424.33 178.942   1
  -1  -9 -11 5249.35 179.590   1
   1  -9  11 5175.70 182.574   3
  11   9  -1 5330.27 181.555   1
  -9 -11   1 5169.57 180.602   3
 -11  -9  -1 5178.65 179.062   3
  11   3  -9 976.784 40.7940   3
  -3 -11   9 963.099 42.0060   3
   3  -9 -11 1003.38 35.6911   1
   3  -9  11 1017.93 41.8105   3
  -9  -3 -11 1036.97 37.3180   3
  -3  -9 -11 1015.44 38.4867   1
  -9 -11   3 981.446 39.5270   3
  11   9  -3 972.635 39.7119   1
   3 -11   9 1010.90 41.8119   3
 -11  -9  -3 963.537 36.4353   3
   9  11   3 992.870 40.1692   1
   9   3 -11 961.035 41.4741   3
  -3 -11  -9 1059.98 38.5321   1
   9  -5  11 685.171 29.4197   3
  -5  -9 -11 715.981 29.4062   1
 -11  -9  -5 684.569 30.9967   1
 -11  -5  -9 738.410 24.9675   3
  11  -5   9 707.943 28.2136   3
   5   9 -11 731.101 32.6591   3
  -5 -11  -9 702.193 28.9702   1
 -11   9   5 650.477 23.8186   1
  -5 -11   9 741.830 32.9246   3
   5  -9  11 711.398 31.3891   3
  -9 -11   5 722.079 30.4915   3
  11   5  -9 697.006 30.9801   3
  11   9  -5 682.665 29.7934   1
   9   5 -11 713.735 32.3795   3
   5 -11   9 687.262 31.6375   3
 -11  -9  -7 17929.6 605.391   1
 -11  -7  -9 17896.8 605.525   1
   9  -7  11 17632.9 604.955   3
  -7 -11   9 17746.0 606.249   3
  11  -7   9 18057.1 604.512   3
  11   7  -9 16866.1 605.361   3
  -9  -7 -11 17900.7 605.366   1
  -9 -11  -7 17477.4 605.066   1
   9   7 -11 17801.2 606.285   3
  -9 -11   7 17585.7 605.701   3
   7 -11   9 18260.5 606.245   3
  -7 -11  -9 18019.0 604.833   1
  -7  -9 -11 18083.1 604.939   1
   7  -9  11 17907.7 605.831   3
   7   9 -11 17650.8 606.402   3
 -11  -9  -9 6.15256 12.9655   1
  -9  -9 -11 9.51608 11.6616   1
  -9 -11  -9-0.58480 13.1093   1
   9  -9  11 8.06196 12.4761   3
  11   9  -9 1.26993 13.3807   3
   9 -11   9 1.32977 14.2228   3
  11  -9   9 21.8973 13.5275   3
   9   9 -11 9.19192 14.1483   3
 -11 -11   1 5.74423 10.0159   3
  11  -1 -11-5.20233 6.77973   1
 -11 -11  -1 14.8667 9.18904   3
  -1 -11 -11 38.2751 9.01044   1
   1 -11  11 7.03162 15.5599   3
  11  11  -3 13.5305 13.5206   1
  11   3 -11 3.16800 15.4183   3
  -3 -11  11 14.4666 16.8929   3
   3 -11  11 10.5711 16.0263   3
  -3 -11 -11 23.2909 9.64223   1
 -11 -11   3 2.36521 10.3671   3
 -11 -11  -3 3.92715 8.52392   3
 -11  -3 -11-3.21718 6.68336   3
  11  -3 -11 1.26862 5.36470   1
  11   5 -11 0.64784 14.0139   3
  11  11  -5-3.56871 12.6616   1
 -11  -5 -11-2.31087 6.25652   3
  11  -5  11 7.15184 10.5851   3
 -11  11   5 2.65750 2.26441   1
   5 -11  11 4.89391 14.8120   3
  -5 -11 -11 5.80226 9.62189   1
  -5 -11  11-3.68883 15.9694   3
  11   7 -11-11.6829 14.5502   3
 -11 -11  -7 22.3208 14.2746   1
   7 -11  11 3.56162 14.3609   3
  11  -7  11 0.52783 11.9748   3
 -11  -7 -11 3.86208 12.5479   1
  11  -9  11 0.62275 12.4689   3
 -11 -11  -9 8.55103 11.6822   1
  11 -11   9-4.07079 12.9879   3
 -11  -9 -11 4.67797 11.8457   1
  11   9 -11-8.04528 13.3763   3
  -9 -11 -11 8.72976 12.5613   1
   9 -11  11-10.8236 15.1612   3
  11 -11  11 6.56026 13.2081   3
 -11 -11 -11-4.19063 12.5725   1
 -12   0   0 4162.56 143.949   1
 -12   0  -2 86160.9 2909.98   1
  12   2   0 83841.2 2907.60   3
   0   2 -12 87233.2 2911.16   3
 -12   0   2 87449.6 2909.36   1
 -12  -2   0 86963.6 2909.91   1
 -12   2   0 89206.1 2909.45   1
 -12   2   2 3408.36 113.462   1
   2   2 -12 3217.21 116.275   3
   2  12   2 3247.28 114.208   1
 -12  -2  -2 3238.95 114.873   1
  -2   2 -12 3175.36 115.512   3
   0   4 -12 10186.0 351.008   3
   0  12   4 10319.2 348.721   1
 -12  -4   0 10336.9 349.810   1
  -4   0 -12 10124.9 349.966   3
 -12  -2  -4 1501.20 57.4289   1
  -2   4 -12 1570.09 58.1544   3
   2  12   4 1517.56 56.0206   1
 -12   4   2 1624.17 54.9941   1
  12   4  -2 1543.00 54.8521   3
  12   4  -2 1488.75 56.6967   1
  -2  12   4 1562.99 54.9264   1
   4  12   2 1533.76 56.8619   1
  -4   2 -12 1564.97 57.2975   3
  12   2  -4 1493.80 56.0305   1
 -12  -4  -2 1490.77 57.0578   1
  -4   4 -12 21163.8 680.981   3
  -4 -12   4 20247.6 681.093   3
 -12  -4  -4 19983.2 680.387   1
   4  12   4 20460.0 679.975   1
  12   4  -4 19668.5 678.966   3
 -12   4   4 19629.4 677.826   1
  12   4  -4 19973.8 679.673   1
  12   0  -6 16556.5 566.137   1
   6  12   0 16505.0 567.724   1
   0   6 -12 16809.4 569.046   3
  -6   0 -12 17127.4 567.339   3
   0  12   6 16638.6 566.316   1
  -2 -12   6 3069.13 113.386   3
  12   6  -2 3160.84 111.991   1
   2  12   6 3305.18 111.134   1
   6  12   2 3136.07 111.951   1
  -2  12   6 3173.03 109.662   1
  12   2  -6 3112.96 110.653   1
  -2   6 -12 3199.65 113.352   3
  12  -2   6 3170.65 108.973   3
  -6   2 -12 3183.26 111.686   3
 -12  -6  -2 3209.33 112.030   1
  12   6  -4 746.448 31.1501   1
 -12   6   4 761.073 27.6806   1
  12  -4   6 742.662 29.3794   3
  -4 -12   6 824.201 34.6811   3
  12   4  -6 735.279 30.4933   1
  -6 -12   4 737.183 32.6492   3
   6   4 -12 717.520 34.0680   3
   6  12   4 777.074 31.7080   1
  -4  12   6 753.427 27.8486   1
  12   4  -6 754.860 31.1637   3
  12   6  -4 741.052 30.3669   3
  12   6  -6 558.378 25.5542   3
  -6  12   6 566.122 20.5191   1
   6   6 -12 550.310 27.2502   3
  12   6  -6 525.260 25.1880   1
  -6 -12   6 532.637 27.5153   3
  -8   0 -12 5630.87 188.868   3
  12   0  -8 5364.15 187.833   1
   0  -8 -12 5544.14 188.054   1
  12   8   0 5453.38 190.191   1
   8  12   0 5439.41 190.214   1
  -8   2 -12 9393.91 320.647   3
  -2 -12   8 8910.60 322.740   3
   2  -8 -12 9695.68 318.934   1
   2  -8  12 9337.55 322.809   3
   2 -12   8 9217.45 322.869   3
  -8 -12   2 9127.17 321.310   3
  12   2  -8 9406.44 319.977   1
  12   8  -2 9395.27 321.665   1
  -8  -2 -12 9544.52 320.143   3
  -2  -8 -12 9220.58 320.135   1
   8  12   2 9560.32 321.826   1
   8  12   4 8227.07 279.278   1
   4   8 -12 7528.77 280.048   3
  12   4  -8 7887.16 277.842   1
  -8 -12   4 7931.80 279.104   3
 -12  -8  -4 8078.59 275.123   3
  12   4  -8 7949.77 278.877   3
 -12   8   4 8377.19 275.396   1
   4  -8 -12 8549.55 275.500   1
  12  -4   8 7964.98 276.982   3
   4 -12   8 8248.53 280.472   3
  12   8  -4 7855.19 278.726   1
   8   4 -12 7881.08 280.141   3
  -4  -8 -12 8135.66 278.151   1
   4  -8  12 8087.37 280.092   3
  -4 -12   8 7757.19 280.165   3
   8   6 -12 592.577 28.8391   3
  -6 -12   8 565.440 28.0428   3
   8  -6  12 523.557 26.7300   3
   6 -12   8 584.687 28.9189   3
  12  -6   8 592.571 25.3328   3
 -12  -8  -6 594.823 20.9758   3
  12   6  -8 555.459 26.8997   3
  -8 -12   6 548.169 27.3525   3
  -6  -8 -12 568.931 26.0371   1
   6   8 -12 551.622 29.3893   3
   6  -8  12 576.934 27.9455   3
  12   6  -8 576.933 25.5499   1
  12   8  -6 583.096 26.6762   1
  -8 -12  -8 5939.05 205.230   1
  -8  -8 -12 6114.00 205.656   1
 -12  -8  -8 5904.79 205.788   1
  12   8  -8 5881.27 205.486   3
  -8 -12   8 5729.59 206.284   3
   8   8 -12 6125.01 207.265   3
   8  -8  12 5836.80 205.727   3
  12  -8   8 5885.11 204.835   3
 -12 -10   0 15571.4 531.540   3
   0 -10  12 14826.7 534.890   3
  12   0 -10 15634.2 531.227   1
 -10 -12   0 15955.4 532.652   3
   0 -10 -12 16001.0 531.477   1
   2 -12  10 4437.58 151.947   3
  12  10  -2 4207.74 149.979   1
  -2 -10 -12 4359.32 148.176   1
   2 -10 -12 4274.24 146.610   1
  10  12   2 4241.69 150.244   1
  12   2 -10 4220.71 147.873   1
 -12 -10  -2 4253.52 146.999   3
  12  -2 -10 4236.09 146.498   1
 -10 -12   2 4339.30 149.198   3
   2 -10  12 4235.01 151.446   3
 -10  -2 -12 4315.76 147.424   3
   4 -10  12 4326.67 150.495   3
  -4 -12 -10 4226.63 147.752   1
 -10  -4 -12 4345.78 146.297   3
  12   4 -10 4164.18 149.367   3
 -10 -12   4 4197.38 148.584   3
  -4 -12  10 4238.37 150.344   3
  10  -4 -12 4256.10 144.440   1
  12  10  -4 4175.44 148.907   1
 -12 -10  -4 4221.95 145.590   3
   4 -12  10 4222.48 150.548   3
  12  -4  10 4237.41 146.862   3
  -4 -10 -12 4317.08 147.846   1
  10   4 -12 4144.23 149.968   3
   6 -12  10 1220.22 49.4825   3
 -12 -10  -6 1200.99 46.8653   1
 -12  -6 -10 1177.30 47.6707   1
 -10 -12   6 1260.64 47.6396   3
  10   6 -12 1119.23 47.9830   3
  12   6 -10 1095.18 47.1034   3
  -6 -12 -10 1215.17 46.1269   1
 -12  -6 -10 1227.56 41.8301   3
   6 -10  12 1216.09 48.7182   3
  -6 -10 -12 1225.74 46.3759   1
  -6 -12  10 1134.97 48.4463   3
  10  -6  12 1156.79 46.3096   3
  12  -6  10 1171.03 45.5539   3
  12  10  -6 1143.87 46.8663   1
  12   8 -10 888.960 38.4284   3
   8 -12  10 906.241 38.6614   3
 -10 -12  -8 897.321 37.3218   1
 -12 -10  -8 899.278 37.2476   1
 -12  -8 -10 884.444 37.3611   1
   8 -10  12 908.537 38.9122   3
 -10  -8 -12 904.567 38.0322   1
  -8 -12 -10 884.180 36.5376   1
  12  -8  10 849.802 36.3713   3
  10   8 -12 859.250 38.4896   3
  10  -8  12 845.466 37.1234   3
  -8 -10 -12 925.835 37.4211   1
  12 -10   8 852.583 37.4310   3
   8  10 -12 853.253 38.8210   3
  10  10 -12 9412.13 332.561   3
 -10 -12 -10 9678.85 331.435   1
 -12 -10 -10 9671.21 331.826   1
  10 -12  10 9618.02 332.223   3
  10 -10  12 9723.67 331.955   3
  12 -10  10 9516.83 331.217   3
 -10 -10 -12 9823.74 331.599   1
 -12 -12   0 28451.0 961.264   3
  12   0 -12 28342.9 960.232   1
  -2 -12 -12 21422.9 715.613   1
  12  -2 -12 21303.3 713.906   1
 -12 -12  -2 20764.1 715.123   3
 -12 -12   2 20963.4 716.148   3
   2 -12  12 20834.2 718.958   3
  12  12  -4 6129.32 214.104   1
  -4 -12 -12 6271.66 212.552   1
 -12 -12   4 6213.10 213.073   3
  -4 -12  12 6120.62 215.757   3
  12   4 -12 5978.09 214.693   3
 -12 -12  -4 6088.48 210.999   3
 -12  -4 -12 6177.86 209.891   3
   4 -12  12 6255.26 215.540   3
  12  12  -6 2312.72 84.3494   1
  12   6 -12 2256.07 84.7765   3
  12  -6  12 2235.96 82.5268   3
 -12  -6 -12 2284.80 79.5080   3
   6 -12  12 2362.88 85.6016   3
  -6 -12 -12 2280.85 83.0191   1
  12   8 -12 2985.96 109.256   3
  12  -8  12 3031.49 107.594   3
 -12  -8 -12 2929.70 108.617   1
 -12 -12  -8 2912.90 108.306   1
   8 -12  12 3069.66 109.625   3
  -8 -12 -12 3090.27 107.974   1
  12  10 -12 184.966 18.9041   3
  12 -12  10 194.290 17.5935   3
  12 -10  12 177.668 16.5907   3
 -10 -12 -12 203.451 17.7309   1
  10 -12  12 202.774 18.9130   3
 -12 -10 -12 197.792 17.0237   1
 -12 -12 -10 182.557 14.9683   1
 -12 -12 -12 83000.5 2795.18   1
  12 -12  12 82359.3 2795.10   3
 -13  -1   1 6.48097 10.1035   1
 -13   1  -1-0.38680 10.5213   1
  -1   1 -13 7.48542 12.8825   3
 -13  -1  -1 10.2508 10.4148   1
 -13   1   1 2.06350 10.0520   1
 -13  -3  -1 886.053 37.1216   1
 -13   1   3 946.880 35.5645   1
  -1   3 -13 975.566 39.5734   3
   1  13   3 959.091 36.1915   1
  -3   1 -13 949.024 38.0021   3
   1   3 -13 886.722 39.1085   3
 -13  -1  -3 893.856 37.2421   1
  13   3  -1 925.534 34.0661   3
 -13  -3   1 964.231 36.9786   1
 -13   3   1 955.890 35.5200   1
  13   3  -3 7.34480 9.07979   3
   3  13   3 14.1334 11.4883   1
 -13  -3  -3 0.47483 12.3328   1
 -13   3   3-0.56016 8.49871   1
  -3   3 -13 3.20195 12.8579   3
   1  13   5 30.7965 9.93589   1
 -13  -5  -1 10.0417 12.1941   1
   1   5 -13-0.61344 15.7021   3
  -1   5 -13 14.9367 15.0918   3
  -5   1 -13 14.4704 10.8347   3
  13  -1   5 16.2375 4.75013   3
  -1  13   5 6.52049 8.98966   1
   5  13   1 10.8018 12.2014   1
  -5   3 -13 13570.7 459.753   3
   5  13   3 13440.2 459.287   1
  -3   5 -13 13853.0 460.525   3
 -13  -5  -3 13179.6 459.526   1
  13   3  -5 13093.9 458.489   3
  13   3  -5 13420.9 458.639   1
  13   5  -3 13240.4 459.095   1
   3  13   5 13715.0 458.836   1
 -13   5   3 13524.1 457.062   1
  -3  13   5 13696.9 457.224   1
  13   5  -3 13434.0 457.703   3
  -3 -13   5 13607.9 460.775   3
 -13  -3  -5 13528.6 459.834   1
   5  13   5 0.48517 11.7076   1
 -13  -5  -5-7.60083 10.5319   1
  13   5  -5 1.37179 10.8994   1
  -5  13   5-0.85287 6.47570   1
  13   5  -5-4.01595 10.1018   3
  -5 -13   5-4.90795 14.0994   3
  13   7  -1 103.194 14.7854   1
  -7   1 -13 78.5827 12.2518   3
  13   1  -7 103.079 10.4087   1
   7  13   1 112.233 12.9763   1
  -1 -13   7 71.2861 14.8573   3
  -7  -1 -13 116.860 13.0726   3
   7  13  -1 101.113 14.9814   1
  -1   7 -13 87.9235 17.6064   3
   1   7 -13 80.6057 15.6755   3
  13  -3   7 1867.69 66.8927   3
  13   3  -7 1875.80 68.5528   1
 -13  -7  -3 1836.39 70.1708   1
   7  13   3 1966.90 70.2548   1
  -7 -13   3 1930.46 70.6083   3
  -3 -13   7 1849.15 71.9809   3
  -7   3 -13 1933.34 69.5363   3
 -13   7   3 1963.02 66.7310   1
  13   7  -3 1891.03 69.8516   1
   7   3 -13 1886.63 71.5018   3
  13   3  -7 1902.70 69.6313   3
   5   7 -13 9600.41 322.552   3
  13   5  -7 9231.54 319.874   1
  13   7  -5 9158.60 319.612   3
  13   5  -7 9161.58 320.112   3
  -7  13   5 9642.13 317.029   1
  13  -5   7 8984.57 318.782   3
  13   7  -5 9202.83 320.334   1
  -5 -13   7 9349.52 322.016   3
   7   5 -13 9241.30 322.125   3
  -7 -13   5 9386.73 321.417   3
   7  13   5 9663.90 320.943   1
   7  -7  13-13.4296 12.7366   3
  13   7  -7-4.79483 11.3028   1
   7   7 -13 25.4285 14.6912   3
  -7 -13   7 24.8432 14.0784   3
  13  -7   7-4.92477 10.7407   3
  13   7  -7 2.10312 11.9065   3
  13   9  -1 6843.22 242.366   1
   9  13   1 6936.59 242.538   1
  -9 -13   1 6824.80 241.798   3
  -9   1 -13 7088.39 240.997   3
  -9  -1 -13 6985.85 240.700   3
  13  -1  -9 7138.60 239.608   1
   1  -9  13 7176.05 244.056   3
  13   1  -9 7064.21 240.235   1
  -1  -9 -13 7008.98 240.345   1
   1  -9 -13 7214.30 239.771   1
   9  13  -1 6698.91 242.402   1
   9  13   3 313.060 20.2345   1
   3  -9 -13 351.502 14.3399   1
  -3 -13   9 328.641 23.1876   3
  -3  -9 -13 294.102 17.3837   1
  -9  -3 -13 322.508 16.9366   3
   3  -9  13 321.847 21.9135   3
   9   3 -13 329.828 21.5604   3
  13   3  -9 321.183 20.2456   3
  13   9  -3 349.748 19.7051   1
  -9 -13   3 334.206 19.9852   3
   3 -13   9 328.808 21.7033   3
  13   3  -9 328.708 17.2828   1
  13   5  -9 19496.9 662.434   3
   9   5 -13 19890.1 663.944   3
  13   5  -9 19396.4 661.335   1
 -13   9   5 19289.9 657.770   1
   5  -9  13 19416.3 663.344   3
   5 -13   9 19674.4 663.934   3
  -9 -13   5 19652.4 662.665   3
 -13  -9  -5 19375.0 657.920   3
  13  -5   9 19829.2 660.467   3
   5   9 -13 19932.4 664.260   3
  -5 -13   9 19327.7 663.819   3
  13   9  -5 19499.3 662.370   1
  -5  -9 -13 19667.0 661.716   1
 -13  -7  -9 4933.42 173.625   1
   7   9 -13 4987.50 175.271   3
  13  -7   9 5136.92 172.135   3
 -13  -9  -7 4847.27 168.193   3
 -13  -9  -7 4878.54 173.657   1
   7 -13   9 5227.35 175.052   3
  13   7  -9 4897.01 172.572   1
   9   7 -13 5112.34 175.284   3
   7  -9  13 4974.62 174.274   3
  13   9  -7 5082.73 173.241   1
  -7 -13   9 4929.34 174.666   3
  -9 -13   7 4980.96 174.212   3
  13   7  -9 4939.86 173.470   3
   9  -7  13 5036.00 173.292   3
  -9 -13   9 5.34288 13.9850   3
   9 -13   9 7.68859 14.4818   3
  13  -9   9-5.26937 11.6687   3
 -13  -9  -9-3.46294 13.5226   1
  13   9  -9 2.63892 13.1178   3
   9  -9  13-2.73497 13.7320   3
   9   9 -13 21.6217 16.9193   3
  13   9  -9-14.9635 11.4967   1
  -9  -9 -13 3.89231 12.8586   1
  13   1 -11 6444.40 214.646   1
  -1 -11 -13 6430.27 214.745   1
 -13 -11  -1 6112.33 214.196   3
  13  -1 -11 6422.42 213.853   1
 -11 -13   1 6100.03 215.742   3
   1 -11  13 6227.56 218.837   3
  13  11  -1 6090.93 217.106   1
   1 -11 -13 6478.64 213.986   1
   1 -13  11 5946.02 218.534   3
 -11 -13  -1 6210.36 215.387   3
  11  13   1 5817.24 217.033   1
   3 -13  11 59.8298 17.2680   3
 -11  -3 -13 33.5195 8.51109   3
 -11 -13   3 59.7337 12.2011   3
  11   3 -13 59.7429 16.6697   3
  13  11  -3 39.2780 11.5714   1
  11  -3 -13 26.9665 5.76911   1
  11  13   3 42.2781 13.8899   1
  13   3 -11 39.0578 13.1768   3
   3 -11  13 16.3084 15.9643   3
  -3 -11 -13 56.3742 9.94226   1
  -3 -13  11 25.6470 16.0722   3
  13   3 -11 38.3202 9.89423   1
 -13 -11  -3 34.6673 7.74836   3
  11  13  -5 18838.7 610.717   1
  -5 -11 -13 18567.2 609.279   1
  13  11  -5 19039.4 610.619   1
 -13 -11  -5 18450.1 606.419   3
   5 -13  11 17802.4 611.714   3
  -5 -13 -11 18866.4 609.223   1
  11   5 -13 17914.8 611.311   3
 -13  11   5 16850.2 604.617   1
   5 -11  13 18950.3 611.761   3
  13   5 -11 18265.0 610.715   3
 -11 -13   5 18577.5 610.071   3
 -11  -5 -13 18909.4 607.176   3
  -5 -13  11 18911.3 612.239   3
  -7 -13  11 79.0682 14.6070   3
  13  11  -7 74.1834 13.4585   1
 -13  -7 -11 71.8790 5.63475   3
  13  -7  11 61.6889 11.7588   3
  -7 -13 -11 63.4169 12.5008   1
  -7 -11 -13 87.2956 13.4263   1
   7 -13  11 71.4648 16.8551   3
 -13  -7 -11 59.1173 13.6878   1
  11  -7  13 59.5377 12.5990   3
  11   7 -13 76.5905 15.6802   3
 -11  -7 -13 68.5718 14.7073   1
 -13 -11  -7 63.4737 11.9257   1
   7 -11  13 76.0178 14.1200   3
  13   7 -11 59.6278 14.3441   3
   9 -11  13 2070.52 75.2276   3
 -11  -9 -13 1957.18 74.1717   1
   9 -13  11 2027.96 75.7578   3
  -9 -11 -13 1964.30 73.6530   1
  13 -11   9 1978.80 74.1457   3
  11  -9  13 1929.26 73.6842   3
  11   9 -13 2027.28 75.5507   3
  13   9 -11 1895.39 74.6679   3
  -9 -13 -11 1929.60 73.3713   1
  11 -13   9 2085.83 75.4882   3
  13  -9  11 1931.50 73.1364   3
 -13 -11  -9 1925.90 73.9381   1
 -13  -9 -11 2025.51 74.6093   1
  13 -11  11 1.47337 12.2565   3
  11 -11  13 14.8312 13.2721   3
 -11 -13 -11 17.0532 13.0675   1
 -13 -11 -11-3.12212 12.0739   1
  11 -13  11 10.0204 13.1795   3
 -11 -11 -13 7.51440 13.1383   1
 -13 -13   1 16.4715 10.5892   3
   1 -13  13 1.74006 16.1300   3
 -13 -13  -1-5.16280 9.60762   3
  13  -1 -13-6.59044 7.27548   1
  13   1 -13 12.5718 8.53199   1
  13  13  -3-5.03892 12.5471   1
  -3 -13 -13 23.4877 9.57130   1
  13  -3 -13 0.22154 5.92977   1
  13   3 -13 17.9527 15.9264   3
 -13 -13   3-1.65868 10.5503   3
 -13 -13  -3 8.53473 8.49252   3
   3 -13  13 10.4334 15.1847   3
   5 -13  13 8.68958 15.4780   3
  13  13  -5-5.21593 14.0593   1
  -5 -13 -13-0.56005 9.85920   1
 -13 -13  -5-12.2069 7.85266   3
 -13  -5 -13 10.1272 5.85308   3
  13   5 -13 6.32146 12.8784   3
  13  13  -7 2.27834 12.5059   1
   7 -13  13 1.75862 15.5560   3
 -13  -7 -13 6.29653 12.2817   1
  13   7 -13 8.26202 14.9711   3
  -7 -13 -13-8.88004 11.0100   1
 -13  -7 -13 4.59838 5.92941   3
  13   9 -13 37.0912 15.3837   3
   9 -13  13 12.3756 14.0229   3
  -9 -13 -13 33.5269 13.0154   1
  13  13  -9-2.38341 11.6438   1
  13 -13   9 11.2271 12.7535   3
  13  -9  13 3.41031 11.3135   3
 -13  -9 -13-3.24034 12.9922   1
 -11 -13 -13 12.6411 12.6548   1
 -13 -11 -13 33.4387 14.0013   1
  11 -13  13-2.67317 12.9251   3
 -13 -13 -11-2.47226 12.6005   1
  13 -13  11 1.69506 12.9246   3
  13 -11  13 16.4415 12.1280   3
 -13 -13 -13 4.37488 13.0359   1
  13 -13  13-1.79655 12.5804   3
 -14   0  -2 6543.64 222.468   1
   0   2 -14 6496.32 224.138   3
 -14   0   2 6585.49 221.724   1
  -2   0 -14 6560.47 223.599   3
  14   2   0 6264.24 219.361   3
 -14   2   0 6640.43 221.756   1
 -14  -2   0 6505.60 222.390   1
 -14  -2  -2 43623.5 1475.96   1
   2  14   2 44310.4 1475.50   1
 -14   2   2 44419.0 1474.67   1
   2   2 -14 42308.6 1477.34   3
  -2   2 -14 44407.4 1476.96   3
  14   2  -2 42885.4 1473.79   3
  -4   0 -14 3023.46 104.208   3
 -14  -4   0 2900.92 103.534   1
   0   4 -14 2804.32 105.153   3
   0  14   4 2925.34 102.320   1
  -2  14   4 1397.88 50.6737   1
  -4   2 -14 1427.80 53.4180   3
  -2   4 -14 1408.41 54.5875   3
 -14  -4  -2 1517.50 53.3750   1
   4  14   2 1388.29 52.3703   1
 -14   4   2 1356.70 50.4972   1
 -14  -2  -4 1395.66 53.3419   1
   2  14   4 1426.12 52.0664   1
   2   4 -14 1275.34 54.8256   3
  14   4  -2 1363.49 49.8781   3
  14   4  -4 3130.88 111.414   3
 -14   4   4 3173.72 110.498   1
  14   4  -4 3140.65 112.619   1
   4  14   4 3320.76 112.924   1
  -4   4 -14 3409.21 114.364   3
 -14  -4  -4 3091.88 113.332   1
  -6   0 -14 137.690 13.3070   3
   6  14   0 96.2275 13.7817   1
   0  14   6 99.3542 11.0990   1
   0   6 -14 82.8184 18.0212   3
  14   6  -2 55.2701 12.1984   1
 -14  -6  -2 57.8130 13.5708   1
  -2 -14   6 48.3871 16.5754   3
  -6   2 -14 43.8476 10.7608   3
  -6  -2 -14 96.2144 13.3796   3
  14  -2   6 48.4726 6.17450   3
   6  14   2 38.7022 13.7563   1
   2   6 -14 59.7338 15.5108   3
  14   2  -6 66.5844 10.3988   1
   2  14   6 58.0095 11.5196   1
  -2  14   6 50.3106 8.90106   1
  -2   6 -14 53.3223 16.9584   3
 -14   6   2 48.1328 8.88799   1
  -4  14   6 2696.26 92.0599   1
  14   6  -4 2564.45 93.2150   3
  -4 -14   6 2578.10 96.8187   3
  -6 -14   4 2585.90 96.0732   3
  14   4  -6 2563.27 94.2635   1
  14  -4   6 2671.26 92.4244   3
 -14  -4  -6 2635.34 95.7585   1
 -14   6   4 2701.26 91.8752   1
  -6   4 -14 2822.03 95.5986   3
  14   4  -6 2626.42 94.2650   3
   6  14   4 2707.30 95.3519   1
 -14  -6  -4 2593.72 95.6180   1
   4  14   6 2674.03 94.6685   1
   6   4 -14 2636.38 97.2847   3
  14   6  -4 2610.69 94.8074   1
   6   6 -14 20.6749 16.5573   3
  -6  14   6 30.5230 5.86278   1
  14   6  -6 22.3545 12.4688   1
  -6 -14   6 0.68980 14.7242   3
  14   6  -6 10.9080 10.3213   3
   0   8 -14 5876.77 206.240   3
  -8   0 -14 5926.31 203.630   3
   8  14   0 5941.37 204.860   1
  14   0  -8 5859.82 202.279   1
   8  14   2 23.0872 13.7327   1
  -8  -2 -14 4.53000 10.7529   3
  14   2  -8 12.6742 9.44765   1
  -2 -14   8-2.98451 16.5081   3
   8  14  -2 8.41634 10.8852   1
  -8   2 -14-9.17216 11.2327   3
  14   8  -2 10.5494 12.2646   1
  -8 -14   2 8.73696 12.9039   3
   4  -8 -14 2014.26 68.0107   1
   8   4 -14 1942.28 73.8329   3
   8  14   4 1957.04 72.2804   1
  14  -4   8 1916.31 68.9375   3
   4 -14   8 1949.91 74.3830   3
 -14  -8  -4 1746.30 72.0987   1
 -14   8   4 1953.06 67.8442   1
  14   4  -8 1928.59 70.7411   1
  14   4  -8 1962.71 71.7460   3
  14   8  -4 2003.73 72.1699   1
  -4 -14   8 1959.89 73.7989   3
  -8 -14   4 1949.55 72.5893   3
   8   6 -14 902.840 41.1337   3
  14   6  -8 931.877 37.5633   1
  -6 -14   8 960.842 41.1167   3
  14  -6   8 926.156 36.2416   3
  14   6  -8 955.448 38.5039   3
   6  -8 -14 949.544 32.5894   1
  -8  14   6 902.088 32.6883   1
  14   8  -6 915.333 38.0933   1
  -8 -14   6 882.574 39.3497   3
   6   8 -14 948.095 41.8145   3
   8   8 -14 61.0228 18.1221   3
  14   8  -8 44.9613 11.5432   1
  14   8  -8 29.1405 12.7651   3
  14  -8   8 62.2373 12.1343   3
  -8 -14   8 58.9134 16.1879   3
  -8  -8 -14 67.0295 12.1857   1
 -10 -14   0 14.8936 12.2053   3
  10  14   0 8.46348 13.8138   1
  14   0 -10 11.6129 8.36839   1
 -10   0 -14-1.73981 9.72154   3
  14  10   0 10.6291 14.2772   1
   0 -10 -14 4.77912 7.21620   1
  -2 -10 -14 698.288 28.5765   1
 -10  -2 -14 689.603 28.5362   3
 -10 -14   2 713.340 30.8471   3
  14  10  -2 669.228 30.9997   1
  10  14   2 669.364 30.9869   1
  -2 -14  10 690.548 32.7019   3
  14   2 -10 702.631 28.4058   1
   2 -10  14 675.292 32.6811   3
   2 -10 -14 683.072 26.5378   1
   2 -14  10 691.515 33.4269   3
  14   4 -10 6789.03 233.968   1
  -4 -14  10 6557.82 236.984   3
  14   4 -10 6671.10 235.457   3
  10   4 -14 6808.99 236.987   3
   4 -14  10 6718.64 237.061   3
 -10 -14   4 6694.60 235.398   3
  -4 -10 -14 6853.68 234.180   1
  10  14   4 6920.27 235.878   1
 -14  10   4 6835.62 230.866   1
   4 -10 -14 6921.15 230.956   1
   4 -10  14 6831.74 236.953   3
 -10  -4 -14 6587.13 233.030   3
  14  10  -4 6794.98 235.410   1
  -6 -14  10 2109.03 77.6295   3
  14   6 -10 2122.63 74.6927   1
  14   6 -10 2144.96 76.1102   3
   6  10 -14 2140.57 78.0247   3
 -10 -14   6 2059.52 76.3072   3
  14  10  -6 2128.91 76.0232   1
  14  -6  10 2084.13 73.5199   3
 -14 -10  -6 1929.95 69.8252   3
   6 -14  10 2146.40 77.7321   3
  -6 -10 -14 2064.44 75.1273   1
   6 -10  14 2064.43 76.8866   3
  10   6 -14 2161.35 77.9447   3
 -10 -14   8 21.6038 13.3615   3
   8 -14  10 26.1258 14.3665   3
   8  10 -14 10.3797 15.1448   3
  14   8 -10 10.6681 11.9231   1
 -14 -10  -8 24.1933 12.7359   1
  -8 -10 -14 29.4453 12.4843   1
  10   8 -14 22.8129 16.3582   3
  14  -8  10 29.6667 11.1295   3
  14  10  -8 19.6676 11.4546   1
  14 -10   8 20.5597 12.5138   3
   8 -10  14 0.77042 14.8068   3
 -10  -8 -14 13.4807 12.4388   1
 -14 -10  -8 11.3958 3.26408   3
  -8 -14  10 27.7164 16.3407   3
  14   8 -10 16.8662 13.8301   3
 -14  -8 -10 21.6426 13.7837   1
 -10 -10 -14 373.592 22.6537   1
  10  10 -14 384.083 24.8348   3
  14 -10  10 410.398 22.7137   3
  14  10 -10 379.420 21.8505   1
  10 -14  10 417.513 25.0879   3
 -14 -10 -10 427.326 24.0337   1
  10 -10  14 415.098 23.5755   3
  14  12   0 2159.59 87.0245   1
   0 -12  14 2401.52 89.7626   3
  14   0 -12 2419.05 84.0402   1
   0 -12 -14 2475.48 84.2378   1
 -12 -14   0 2360.07 85.7272   3
  14  12  -2 6375.94 221.463   1
 -14 -12  -2 6263.69 217.684   3
  14  -2 -12 6396.44 217.143   1
 -12 -14   2 6163.35 219.921   3
 -12 -14  -2 6303.62 219.009   3
   2 -14  12 6290.34 223.042   3
  14   2 -12 6360.58 218.709   1
  -2 -12 -14 6492.49 219.029   1
   2 -12  14 6407.74 222.932   3
  12  -2 -14 6398.22 217.052   1
  12  14   2 6490.30 221.787   1
 -12  -4 -14 1967.47 68.8361   3
  -4 -14  12 1942.53 75.1325   3
  14  12  -4 1943.88 72.8317   1
 -14  12   4 1922.45 67.0848   1
  12  -4 -14 1973.45 66.9797   1
   4 -12  14 1924.23 74.4532   3
  14   4 -12 1920.15 70.7136   1
  -4 -12 -14 1934.64 70.8385   1
  12   4 -14 1957.41 74.1882   3
 -12 -14   4 2029.84 72.3311   3
   4 -14  12 1963.78 74.6217   3
  14   4 -12 1979.89 73.6254   3
 -14 -12  -4 1878.61 68.1576   3
  12  14  -4 1763.16 72.8121   1
  14   6 -12 1980.11 71.9724   1
   6 -14  12 2025.54 75.3783   3
 -14  -6 -12 2010.19 74.5863   1
 -12  -6 -14 2002.26 69.4093   3
  -6 -12 -14 1968.73 72.1947   1
 -14 -12  -6 1924.50 68.3873   3
  12   6 -14 1948.36 75.0767   3
  14   6 -12 1890.62 74.0615   3
  14  12  -6 1908.43 73.2122   1
 -12 -14   6 1912.84 73.2679   3
  -6 -14  12 1946.76 75.2951   3
   6 -12  14 1935.03 75.0293   3
  12  14  -6 1943.73 74.0446   1
 -14 -12  -8 408.131 23.1755   1
 -12  -8 -14 407.515 22.5917   1
   8 -12  14 381.350 24.0054   3
 -14  -8 -12 419.713 24.0573   1
 -14  -8 -12 339.096 14.2208   3
  14  12  -8 409.728 22.8103   1
  -8 -12 -14 398.749 22.0581   1
 -14 -12  -8 420.630 16.1142   3
  14   8 -12 434.432 23.7895   3
   8 -14  12 465.952 25.8150   3
  12   8 -14 420.617 25.0599   3
  14  -8  12 381.617 20.8690   3
  -8 -14 -12 398.043 21.3498   1
  14  10 -12 546.340 29.6109   3
  14  12 -10 624.173 30.1619   1
 -10 -12 -14 642.722 28.8873   1
 -12 -10 -14 583.209 29.8160   1
  10 -12  14 553.536 29.6489   3
  14 -12  10 601.606 29.6742   3
 -14 -10 -12 628.675 30.3651   1
  10 -14  12 649.222 32.0264   3
  14 -10  12 589.390 28.6831   3
 -14 -12 -10 566.507 29.2603   1
  12 -10  14 600.918 29.2961   3
  12 -14  10 656.288 31.6102   3
 -10 -14 -12 624.389 28.6546   1
  12  10 -14 636.742 32.0515   3
 -12 -12 -14 212.683 18.1461   1
  12 -14  12 246.462 19.6692   3
 -12 -14 -12 212.597 16.2010   1
 -14 -12 -12 199.674 17.7028   1
  14 -12  12 246.252 17.8977   3
  12 -12  14 216.149 18.2524   3
  14   0 -14 6810.60 228.002   1
   0 -14  14 6492.14 233.367   3
 -14 -14   0 6528.63 228.934   3
   2 -14  14 43.2002 14.0488   3
  14  -2 -14 34.4489 6.57939   1
 -14 -14  -2 55.6348 9.47646   3
  14   2 -14 31.0163 9.39738   1
  14  14  -2 36.8315 14.7476   1
 -14 -14   2 51.2635 10.9302   3
   4 -14  14 1258.61 52.3310   3
  -4 -14 -14 1278.40 48.0759   1
 -14 -14  -4 1231.48 46.3613   3
  14  14  -4 1213.21 50.2764   1
  14   4 -14 1270.66 51.6853   3
   6 -14  14 1309.24 54.6558   3
  14   6 -14 1360.17 53.7076   3
  14  14  -6 1364.19 53.4267   1
  -6 -14 -14 1282.72 50.6042   1
 -14  -6 -14 1275.45 52.5607   1
 -14 -14  -6 1284.24 47.8119   3
 -14  -8 -14 7811.38 271.368   3
  -8 -14 -14 8075.60 276.360   1
  14  14  -8 8368.82 277.982   1
   8 -14  14 8101.91 278.821   3
 -14  -8 -14 7973.74 277.925   1
  14   8 -14 8146.91 278.443   3
  14 -14  10 6543.12 225.514   3
  14  14 -10 6568.02 225.493   1
 -14 -10 -14 6421.53 225.319   1
  14  10 -14 6367.83 226.009   3
  14 -10  14 6290.08 223.781   3
 -14 -10 -14 6373.75 219.208   3
  10 -14  14 6422.51 226.093   3
 -10 -14 -14 6545.69 224.550   1
 -14 -14 -12 9031.78 322.657   1
  14 -12  14 9210.45 322.316   3
 -14 -12 -14 9199.33 322.901   1
 -12 -14 -14 9413.01 322.686   1
  14 -14  12 9704.52 323.484   3
  12 -14  14 9367.94 323.579   3
  14 -14  14 8169.23 284.556   3
 -14 -14 -14 8144.89 284.514   1
 -15   1  -1 4.08420 10.3033   1
   1   1 -15 18.5999 14.2382   3
 -15  -1   1 2.21414 10.2090   1
  15   1   1 5.25904 4.95694   3
 -15  -1  -1 12.3598 11.1039   1
  -1   1 -15 2.52819 13.2078   3
 -15   1   1 10.2238 9.69197   1
  -1   3 -15 872.457 38.1349   3
  -3   1 -15 879.388 37.0024   3
  15   3  -1 855.424 32.0945   3
 -15   1  -3 899.578 35.8705   1
 -15   3   1 901.672 34.1448   1
 -15   3  -1 880.613 35.0211   1
   1   3 -15 870.864 38.5259   3
 -15  -1  -3 892.145 36.0483   1
  -1  15   3 847.672 34.1089   1
   3  15   1 879.737 35.5697   1
   1  15   3 870.088 34.7571   1
 -15  -3  -1 848.440 36.0847   1
   3  15   3 0.96699 11.4394   1
  15   3  -3 6.64443 8.37312   3
   3   3 -15 8.45427 16.2590   3
 -15  -3  -3 4.89703 12.3682   1
  -3   3 -15 13.2511 12.4216   3
 -15   3   3 9.80140 8.70893   1
   1   5 -15 951.071 41.4819   3
  -1   5 -15 940.526 40.9730   3
   5  15   1 941.612 38.8627   1
 -15  -1  -5 951.264 39.2149   1
  -5   1 -15 931.432 39.1789   3
 -15  -5  -1 986.984 39.8352   1
 -15   5   1 991.275 37.1901   1
  -5  -1 -15 1019.15 39.6339   3
  -1  15   5 974.230 37.3573   1
   1  15   5 991.379 37.9120   1
   3  15   5 6248.47 212.961   1
 -15   5   3 6314.65 211.030   1
  15   3  -5 5924.13 211.954   3
  -3 -15   5 5904.69 215.026   3
  -3  15   5 5989.33 211.121   1
  -5   3 -15 6414.72 214.314   3
  15  -3   5 6213.79 210.240   3
 -15  -5  -3 6152.46 213.757   1
 -15  -3  -5 6072.95 213.785   1
  15   5  -3 6222.45 211.231   3
  -3   5 -15 6360.18 215.116   3
   5  15   3 6208.37 213.349   1
 -15  -5  -5 9.82886 10.8817   1
   5  15   5 1.09596 11.7629   1
  -5 -15   5-9.17625 13.6393   3
  -5  15   5 15.7531 7.07422   1
  15   5  -5-1.05150 11.6636   1
  15   5  -5-0.85610 10.1400   3
  -5   5 -15 37.9872 13.9827   3
  -1  15   7 1604.53 56.8395   1
  -1 -15   7 1568.67 62.0207   3
   7  15   1 1545.30 59.4926   1
   1   7 -15 1481.24 60.8594   3
  -1   7 -15 1507.11 60.9030   3
  -7   1 -15 1547.27 58.8691   3
   7  15  -1 1574.52 59.7760   1
  -7  -1 -15 1627.89 58.9448   3
  -7   3 -15 2344.49 84.1992   3
  15  -3   7 2299.73 80.3687   3
 -15  -3  -7 2240.70 84.4461   1
  15   7  -3 2280.48 84.4115   1
  15   3  -7 2320.65 83.4990   3
  15   3  -7 2275.72 82.9077   1
  -3  15   7 2348.33 81.2155   1
   7   3 -15 2248.43 86.2683   3
   7  15   3 2327.61 84.3666   1
  -7  -3 -15 2449.41 83.8327   3
  -3 -15   7 2364.65 86.4993   3
 -15  -7  -3 2298.00 84.6130   1
  -7 -15   3 2279.23 85.0799   3
 -15   7   3 2301.55 80.9540   1
  -7 -15   5 2170.15 83.3666   3
 -15  -7  -5 2309.06 83.2128   1
  15   5  -7 2237.67 81.5971   1
  -7  15   5 2278.47 78.2547   1
  -5 -15   7 2280.39 84.2461   3
  15   7  -5 2173.75 80.4644   3
  15  -5   7 2238.79 79.7099   3
   7   5 -15 2356.39 85.1583   3
   7  15   5 2286.49 82.5036   1
 -15  -5  -7 2241.02 82.9682   1
  15   7  -5 2248.27 82.3677   1
  15   5  -7 2234.51 81.5548   3
  -7 -15   7-3.06652 15.2827   3
  15   7  -7 2.93835 11.2927   1
   7   7 -15 12.5128 14.8337   3
  15  -7   7 13.6608 9.24183   3
  15   7  -7 18.6657 11.5481   3
   9  15   1 1823.02 67.3561   1
   1  -9 -15 1823.64 63.6171   1
  -9 -15   1 1718.88 66.4581   3
  -9  -1 -15 1736.86 65.2225   3
   9  15  -1 1829.50 67.5083   1
  15   9  -1 1755.57 66.7630   1
  -9   1 -15 1761.34 65.4670   3
  15   1  -9 1761.75 64.3424   1
  -1  -9 -15 1769.41 64.3485   1
   3  -9 -15 3629.85 122.162   1
  15   3  -9 3390.66 125.540   3
   3 -15   9 3633.56 128.220   3
  15   3  -9 3464.94 124.020   1
   9   3 -15 3566.93 127.968   3
  -9  -3 -15 3606.30 124.355   3
   9  15  -3 3471.73 126.127   1
  -3 -15   9 3508.00 128.016   3
 -15   9   3 3550.64 122.032   1
  15   9  -3 3535.31 125.888   1
  -3  -9 -15 3459.19 124.361   1
  -9 -15   3 3497.06 126.058   3
   9  15   3 3640.65 126.369   1
  15   9  -5 270.415 17.8608   1
  15   5  -9 272.148 17.4385   1
  -5  -9 -15 307.050 17.9834   1
   9   5 -15 340.856 22.5680   3
   5   9 -15 240.665 20.9518   3
  -9 -15   5 274.874 20.5780   3
   5 -15   9 266.390 22.7103   3
  -9  15   5 309.062 12.4726   1
  -5 -15   9 289.483 21.3008   3
  15   5  -9 279.041 19.4188   3
  15  -5   9 259.761 15.0385   3
   5  -9 -15 308.736 12.3344   1
  -9 -15   7 1732.06 67.0480   3
   7 -15   9 1734.68 67.9900   3
  15   9  -7 1767.59 66.1738   1
  15   7  -9 1762.39 65.7924   1
   7   9 -15 1780.15 68.8379   3
   9   7 -15 1692.92 68.4242   3
  15  -7   9 1762.82 64.3124   3
  -7  -9 -15 1806.27 65.9763   1
  15   7  -9 1763.99 66.2339   3
  -7 -15   9 1667.19 67.4982   3
   9   9 -15-8.17641 14.4822   3
  -9  -9 -15 11.3717 13.2993   1
   9 -15   9 20.2325 15.3513   3
 -15  -9  -9 17.0365 14.2973   1
  -9 -15   9 0.84609 13.4718   3
  15   9  -9 28.4386 12.1677   1
  15  -9   9 7.70919 11.3394   3
  11  15  -1 4586.12 169.582   1
  15  -1 -11 4978.54 166.220   1
 -11 -15   1 4745.06 168.648   3
   1 -11 -15 4923.75 166.262   1
  -1 -11 -15 4832.47 167.020   1
  15   1 -11 4792.52 166.872   1
  11  15   1 4937.73 170.218   1
  15  11  -1 4708.94 169.833   1
 -11 -15  -1 4777.18 168.308   3
 -11  -1 -15 4803.80 167.193   3
  15  11  -3 28.1449 13.4619   1
 -11 -15   3 84.7785 14.2527   3
   3 -15  11 72.5280 15.3224   3
 -11  -3 -15 53.9151 9.34787   3
  11   3 -15 74.3572 17.2738   3
  -3 -11 -15 71.4455 10.5885   1
  15   3 -11 57.5733 10.5172   1
  15   3 -11 84.6167 15.3176   3
   3 -11  15 65.9717 16.5927   3
  11  15   3 68.8897 15.7400   1
  -3 -15  11 86.9999 17.3233   3
   3 -11 -15 43.2073 6.08645   1
  11  -5 -15 3527.39 125.166   1
  15  11  -5 3722.40 131.351   1
  11   5 -15 3745.64 133.012   3
  15   5 -11 3652.92 131.484   3
 -11  -5 -15 3895.62 128.652   3
   5 -15  11 3881.92 134.051   3
  15   5 -11 3940.86 130.163   1
  -5 -11 -15 3795.97 130.305   1
  -5 -15  11 3854.07 133.790   3
   5 -11  15 3747.92 133.230   3
 -11 -15   5 3701.18 131.359   3
   7 -11  15 3737.40 132.117   3
 -15 -11  -7 3528.24 130.824   1
  11   7 -15 3517.86 132.119   3
   7 -15  11 3645.88 132.481   3
  -7 -11 -15 3650.60 129.775   1
 -15  -7 -11 3609.84 131.444   1
  15   7 -11 3741.88 129.825   1
  -7 -15  11 3710.71 132.920   3
  15  11  -7 3675.26 130.796   1
  15   7 -11 3722.33 131.113   3
  15  -7  11 3703.23 128.463   3
 -11 -15   7 3590.52 130.980   3
 -11  -9 -15 18.9878 13.4815   1
 -15 -11  -9 21.2064 12.6968   1
 -15  -9 -11 29.8184 11.3809   1
   9 -15  11 37.5840 15.3947   3
  11   9 -15 29.1876 15.7584   3
  15  -9  11 30.0362 10.9783   3
  15  11  -9 41.5323 13.7708   1
  15   9 -11 27.8395 12.5132   1
  15   9 -11 25.4757 13.4357   3
   9 -11  15 34.9251 13.2068   3
  15 -11   9 25.2291 11.6296   3
  11 -15   9 34.1549 15.5173   3
  -9 -11 -15 16.0926 10.1092   1
 -15 -11 -11 5.27611 13.7934   1
  11 -11  15 15.3021 12.8945   3
  11 -15  11 2.87215 13.5782   3
 -11 -11 -15 13.8099 12.1895   1
  15  11 -11-8.02640 13.2048   1
  15 -11  11 17.7386 11.4781   3
  15   1 -13 1641.40 59.7900   1
 -13 -15   1 1668.58 61.6855   3
 -13 -15  -1 1595.11 60.9080   3
  15  -1 -13 1653.72 59.0894   1
  13  -1 -15 1669.43 58.9625   1
  -1 -13 -15 1721.93 60.2149   1
   1 -13  15 1655.72 65.9111   3
  15  13  -1 1587.89 63.4471   1
   1 -15  13 1636.41 66.1973   3
  13  15   1 1517.67 63.1812   1
 -13 -15   3 553.036 26.3319   3
  -3 -13 -15 558.036 24.5856   1
  13  -3 -15 539.347 21.2079   1
  15   3 -13 538.274 28.6805   3
 -13 -15  -3 564.396 24.4738   3
   3 -15  13 511.225 30.4413   3
  15   3 -13 516.473 24.4690   1
 -15 -13  -3 544.195 22.4751   3
  13   3 -15 596.911 30.2683   3
  15  13  -3 530.688 28.3601   1
  -3 -15  13 574.598 30.6061   3
   3 -13  15 582.685 30.8516   3
  15  13  -5 2756.72 100.536   1
   5 -13  15 2781.50 102.410   3
  -5 -13 -15 2878.34 98.8022   1
 -13 -15  -5 2710.23 96.9994   3
  -5 -15  13 2677.48 102.040   3
  13  15  -5 2958.34 101.542   1
  15   5 -13 2694.97 98.2427   1
  15   5 -13 2690.98 100.884   3
  13   5 -15 2707.68 101.551   3
 -15 -13  -5 2704.08 95.0029   3
 -15  -5 -13 2634.01 100.302   1
 -13  -5 -15 2729.22 95.6306   3
 -13 -15   5 2764.34 99.6586   3
   5 -15  13 2746.65 102.452   3
  13  15  -7 2311.83 85.5571   1
 -13  -7 -15 2360.75 80.1245   3
 -15  -7 -13 2263.28 85.5452   1
  15   7 -13 2268.57 83.5296   1
   7 -13  15 2333.44 86.7112   3
   7 -15  13 2230.35 86.7346   3
  -7 -13 -15 2271.06 83.7340   1
 -15 -13  -7 2219.63 78.8820   3
  15   7 -13 2217.73 85.3200   3
  13   7 -15 2248.05 86.3198   3
  15  13  -7 2292.05 85.0309   1
 -13  -7 -15 2255.69 85.4495   1
  15   9 -13 7015.89 234.291   1
 -15 -13  -9 6416.15 228.542   3
  -9 -13 -15 6653.31 233.903   1
  13  15  -9 6876.04 235.379   1
  13   9 -15 6892.59 236.455   3
   9 -15  13 7110.13 236.775   3
   9 -13  15 6718.26 235.836   3
  15 -13   9 7047.31 234.975   3
 -15  -9 -13 6805.25 235.403   1
 -13  -9 -15 6838.95 235.275   1
  13 -15   9 6592.97 235.336   3
 -13  -9 -15 6813.03 230.181   3
  15   9 -13 6450.36 235.136   3
  15  13  -9 6853.02 235.125   1
  15  -9  13 6680.54 233.127   3
 -15 -11 -13 899.940 39.4824   1
  15 -11  13 940.665 38.5093   3
  13 -11  15 978.989 39.6895   3
  15  11 -13 1001.57 40.1428   1
  13 -15  11 963.267 41.1904   3
 -15 -11 -13 827.482 31.6968   3
 -15 -13 -11 897.850 40.2264   1
 -11 -13 -15 955.789 39.8768   1
  15  13 -11 908.353 40.1235   1
  15 -13  11 930.083 39.4537   3
  11 -13  15 983.476 41.1011   3
  11 -15  13 921.786 40.6186   3
 -13 -11 -15 882.664 39.3470   1
  13 -13  15-6.73215 12.0660   3
  15 -13  13 4.50786 11.2669   3
  13 -15  13 1.00963 13.5514   3
 -15 -13 -13-10.6349 12.6402   1
  15  13 -13 14.2744 12.6194   1
 -13 -13 -15 0.95111 10.1439   1
 -15 -15  -1-0.49305 8.74271   3
   1 -15  15 6.35727 15.4783   3
 -15 -15   1 3.90970 9.73699   3
  15  -1 -15 8.77009 6.86901   1
  15   1 -15 12.8278 7.79169   1
  15   3 -15 9.45143 14.8052   3
   3 -15  15 21.2085 13.9649   3
  15  15  -3 9.75547 13.1594   1
 -15 -15  -3-1.30675 7.91752   3
  15   3 -15 5.94369 9.14851   1
  15   5 -15 1.90001 14.2516   3
 -15 -15  -5-1.95490 6.97133   3
  15   5 -15-10.0128 9.86345   1
  15  15  -5 14.3058 13.8103   1
   5 -15  15-7.39311 14.3922   3
  15  15  -7 4.60105 10.7762   1
 -15 -15  -7 2.53388 6.89602   3
  15   7 -15 14.8035 12.9268   3
 -15  -7 -15 0.95260 11.8114   1
   7 -15  15 11.6367 15.6079   3
  -7 -15 -15 0.72060 10.2032   1
  15  15  -9 3.84793 10.5098   1
 -15 -15  -9 9.70654 6.47248   3
   9 -15  15-8.52512 14.7384   3
  15 -15   9 4.70221 12.1426   3
 -15  -9 -15 2.91613 13.8488   1
  15   9 -15 18.3237 14.7643   3
  -9 -15 -15 6.43194 10.1885   1
 -15  -9 -15 9.57631 4.49053   3
 -15 -11 -15 4.96981 12.6655   1
  15  15 -11 27.1594 12.1958   1
  15 -11  15 4.22482 10.1807   3
  15 -15  11 2.94792 11.5854   3
  11 -15  15-10.7154 13.2602   3
 -11 -15 -15-8.04197 11.6422   1
 -15 -11 -15 9.38418 5.03911   3
  15 -15  13 2.05287 11.0995   3
  15 -13  15 10.5756 11.1617   3
 -13 -15 -15-0.98029 10.5171   1
  13 -15  15 26.8954 12.4028   3
 -15 -13 -15 12.4190 11.6242   1
  15  15 -13 18.0591 14.0419   1
  15 -15  15 1.07998 10.9764   3
 -16   0   0 7591.65 260.702   1
   0   2 -16 29198.2 984.577   3
 -16   0  -2 29018.4 982.741   1
 -16   2   0 28950.1 982.072   1
 -16   0   2 29159.1 981.997   1
  -2   0 -16 30496.4 984.465   3
  16   2   0 28466.5 979.194   3
 -16  -2   0 29335.3 982.659   1
 -16  -2  -2 4423.48 155.086   1
   2   2 -16 4531.17 157.246   3
  16   2  -2 4394.35 152.360   3
  -2   2 -16 4497.34 156.571   3
 -16   2  -2 4411.12 154.626   1
   2  16   2 4424.63 154.582   1
 -16   2   2 4442.51 153.653   1
 -16  -4   0 783.594 32.6995   1
 -16   4   0 736.319 30.9635   1
 -16   0  -4 719.952 32.3649   1
  -4   0 -16 794.122 33.2894   3
   0   4 -16 840.458 35.2277   3
   0  16   4 732.371 31.0645   1
  -4   2 -16 2766.46 98.4261   3
  16   2  -4 2595.73 95.6193   3
   2   4 -16 2744.65 99.7985   3
 -16  -2  -4 2695.96 97.8963   1
   2  16   4 2674.39 96.6597   1
 -16  -4  -2 2697.49 97.7164   1
  -2   4 -16 2806.15 99.4788   3
  16   4  -2 2648.32 94.3384   3
  -2  16   4 2791.66 95.6533   1
   4  16   2 2794.27 97.5160   1
 -16   4   2 2758.26 95.5570   1
   4  16   4 3023.98 108.808   1
 -16  -4  -4 2986.44 109.692   1
  16   4  -4 3016.95 107.075   3
  -4  16   4 3098.84 106.839   1
  -4   4 -16 3212.90 110.748   3
   0  16   6 4813.34 170.854   1
   0   6 -16 4986.46 174.739   3
  -6   0 -16 5052.51 172.695   3
   6  16   0 4978.20 172.869   1
 -16   6   2 5968.81 204.010   1
  -6   2 -16 6222.39 206.992   3
 -16  -2  -6 6168.72 207.242   1
  16  -2   6 5747.67 201.721   3
 -16  -6  -2 5863.60 206.542   1
  -2 -16   6 5972.56 208.403   3
  -2   6 -16 5841.34 207.979   3
  -6  -2 -16 6178.21 206.642   3
   6  16   2 6019.86 206.647   1
   2   6 -16 6170.41 208.809   3
   2  16   6 6117.99 205.517   1
  -2  16   6 5913.16 204.164   1
 -16  -6  -4 6991.33 237.627   1
  16   6  -4 6766.53 236.708   1
  -4  16   6 6660.29 234.032   1
  -6   4 -16 7049.58 237.783   3
   4  16   6 6976.74 236.494   1
  16   4  -6 6985.47 236.297   1
  16   6  -4 6658.62 234.845   3
  -4 -16   6 6694.98 238.557   3
  -4   6 -16 7133.66 238.545   3
 -16  -4  -6 6788.34 237.423   1
   6  16   4 7150.42 237.197   1
 -16   6   4 6879.08 233.851   1
  16   4  -6 6633.90 235.530   3
  -6 -16   4 6793.40 238.193   3
  16  -4   6 6880.41 233.721   3
 -16  -6  -6 122.667 14.2608   1
  -6  16   6 128.038 8.70416   1
  16   6  -6 123.261 12.3515   3
   6   6 -16 84.1932 18.3914   3
  16   6  -6 134.117 14.0239   1
  -6 -16   6 107.648 17.5337   3
   0   8 -16 11391.3 382.446   3
   8  16   0 10833.1 380.393   1
  -8   0 -16 11124.9 379.641   3
   2   8 -16 3920.59 142.066   3
  -8 -16   2 3879.61 140.174   3
  -2 -16   8 3961.30 141.972   3
 -16   8   2 3976.74 136.680   1
   8  16  -2 3935.76 140.160   1
  -8  -2 -16 3988.44 138.951   3
  16   2  -8 3975.15 138.027   1
  -8   2 -16 3890.46 139.254   3
   8  16   2 4015.63 140.149   1
   8   2 -16 3933.23 141.967   3
   8  16   4 2962.30 103.202   1
  -8 -16   4 2811.24 103.497   3
 -16  -8  -4 2762.22 102.992   1
  -4 -16   8 2770.78 104.407   3
  16  -4   8 2774.73 98.7590   3
 -16  -4  -8 2860.76 103.465   1
   4 -16   8 2739.93 104.715   3
  16   4  -8 2875.27 101.502   1
 -16   8   4 2921.12 98.5722   1
  16   4  -8 2839.61 101.958   3
  -8  -4 -16 3006.68 101.998   3
   8   4 -16 2819.26 104.593   3
  16   8  -4 2758.30 102.442   1
   6   8 -16 1614.59 63.6800   3
   8   6 -16 1561.47 62.7339   3
  16   6  -8 1581.05 59.7855   1
 -16  -8  -6 1556.77 61.0792   1
  -8  16   6 1606.48 55.2640   1
   6  -8 -16 1638.67 55.2458   1
  16   8  -6 1542.86 60.3985   1
  -8 -16   6 1496.61 61.4045   3
  16   6  -8 1538.60 59.9353   3
 -16  -6  -8 1471.04 60.4621   1
  -6 -16   8 1522.13 62.8195   3
  16  -6   8 1583.79 57.7357   3
  16   8  -8 6298.13 219.154   1
  16  -8   8 6386.75 217.771   3
  -8 -16   8 6129.67 220.770   3
   8   8 -16 6245.01 221.785   3
  16   8  -8 6389.34 218.918   3
 -10   0 -16 4396.83 151.529   3
  10  16   0 4385.54 153.428   1
   0 -10 -16 4336.98 150.239   1
 -10 -16   0 4211.75 152.324   3
  10  16   2 545.351 27.3747   1
  10  16  -2 573.414 27.9148   1
   2 -10 -16 589.438 22.8677   1
 -10 -16   2 554.439 27.4821   3
  16   2 -10 551.268 24.4347   1
  16  10  -2 574.541 28.2866   1
   2 -16  10 543.641 30.8321   3
  -2 -16  10 487.809 29.6288   3
 -10  -2 -16 580.904 25.5121   3
  10   2 -16 602.276 30.9104   3
  -2 -10 -16 530.033 24.3334   1
  -4 -10 -16 397.032 20.8421   1
 -16  -4 -10 355.387 21.9558   1
  -4 -16  10 417.824 24.6126   3
  10  16   4 398.375 23.8980   1
 -10 -16   4 407.453 23.0765   3
   4 -16  10 391.942 24.8588   3
  16   4 -10 393.825 22.9119   3
  16  10  -4 412.740 23.2943   1
   4 -10 -16 428.581 16.7583   1
 -10  -4 -16 416.105 20.3481   3
  10   4 -16 389.971 25.5945   3
  16   4 -10 400.597 20.5070   1
 -16  10   4 402.388 16.5308   1
 -10  16   6 1135.69 43.2153   1
  10   6 -16 1315.73 52.4681   3
   6 -16  10 1322.11 52.3705   3
  16  -6  10 1360.58 47.2003   3
   6  10 -16 1304.92 52.7392   3
  -6 -10 -16 1348.34 49.5801   1
  16   6 -10 1403.91 50.7537   3
  16  10  -6 1308.19 50.5681   1
 -10  -6 -16 1388.10 48.2318   3
  16   6 -10 1268.49 49.0652   1
 -10 -16   6 1319.14 51.2570   3
  -6 -16  10 1360.95 52.3776   3
  -8 -16  10 1032.01 45.5880   3
  -8 -10 -16 1046.91 43.5517   1
  16   8 -10 1098.33 44.5914   3
   8 -16  10 1075.74 46.1786   3
  16 -10   8 1070.13 43.1350   3
  16   8 -10 1059.66 43.4647   1
  16  -8  10 1069.21 41.9507   3
  16  10  -8 1082.84 44.2852   1
 -10 -16   8 1036.54 45.2728   3
 -10  -8 -16 1089.87 44.9944   1
   8  10 -16 1108.06 46.9231   3
  10   8 -16 1042.61 46.6953   3
 -16 -10 -10 3376.99 120.771   1
  16  10 -10 3332.88 119.843   1
  10  10 -16 3381.64 122.420   3
  10 -16  10 3302.63 121.636   3
 -10 -10 -16 3162.04 119.625   1
  16 -10  10 3398.39 118.850   3
  16   0 -12 3044.18 106.221   1
   0 -12 -16 3121.42 106.485   1
  12  16   0 2905.63 109.870   1
 -12 -16   0 2971.27 108.381   3
 -12 -16  -2 1172.20 46.4422   3
  16   2 -12 1250.79 49.2385   3
  12  16   2 1151.31 48.7035   1
   2 -12 -16 1212.71 43.6357   1
  -2 -16  12 1220.28 51.7458   3
 -12  -2 -16 1176.28 44.9712   3
   2 -16  12 1176.31 51.3525   3
  12   2 -16 1207.55 50.5486   3
  16   2 -12 1218.79 45.5471   1
  16  12  -2 1172.79 48.5683   1
 -12 -16   2 1152.05 47.3846   3
  -2 -12 -16 1194.17 45.5484   1
 -12 -16   4 6752.31 242.799   3
  -4 -16  12 6842.71 245.463   3
  -4 -12 -16 7002.32 241.724   1
 -12  -4 -16 7229.36 240.273   3
  16   4 -12 6836.05 243.632   3
 -16  12   4 7005.62 237.854   1
  12   4 -16 6947.37 245.134   3
  16  12  -4 6758.06 243.496   1
  16   4 -12 7013.77 241.447   1
  12  -4 -16 7064.03 237.769   1
   4 -16  12 7130.00 245.919   3
  16  12  -6 514.716 27.8495   1
   6 -12  16 528.078 29.2877   3
   6 -16  12 591.997 31.5956   3
  -6 -12 -16 581.400 26.4735   1
  16   6 -12 522.064 28.4623   3
 -12  -6 -16 572.032 23.9004   3
  16   6 -12 561.014 26.0570   1
  -6 -16  12 543.517 30.9131   3
 -12 -16   6 608.955 28.5547   3
  12  16  -6 492.912 28.4970   1
  12   6 -16 530.907 29.8579   3
  16   8 -12 16.6072 11.7081   1
 -12  -8 -16 14.0726 8.69823   3
  16  -8  12 30.4295 9.63032   3
 -12  -8 -16 26.7234 12.1134   1
 -16  -8 -12 43.0544 14.2251   1
  12   8 -16 7.98537 15.3347   3
  16  12  -8 21.5294 13.7927   1
   8 -16  12 61.2302 17.4551   3
  16   8 -12-0.84779 12.5638   3
   8 -12  16 16.1358 12.4971   3
  -8 -12 -16 20.5805 11.4049   1
 -16 -10 -12 1341.60 54.6294   1
  16 -10  12 1296.58 51.8272   3
  10 -16  12 1342.58 56.1163   3
  16 -12  10 1359.88 53.1188   3
  12  10 -16 1276.65 55.1509   3
  16  10 -12 1396.12 53.7885   1
 -10 -12 -16 1286.57 53.1641   1
  16  12 -10 1411.33 54.4449   1
 -16 -12 -10 1314.81 53.9619   1
 -12 -10 -16 1377.80 54.4861   1
  12 -16  10 1306.73 55.2788   3
  10 -12  16 1269.78 54.5847   3
  12 -16  12 9309.34 320.557   3
 -12 -12 -16 8863.61 318.719   1
  16 -12  12 9134.30 318.021   3
 -16 -12 -12 9224.79 319.611   1
  12 -12  16 9186.08 319.375   3
  16  12 -12 9541.67 319.219   1
 -14 -16   0 665.409 29.0908   3
  16   0 -14 671.215 27.1109   1
  16  14   0 606.348 32.0352   1
  14   0 -16 671.760 27.0665   1
   2 -14  16 860.560 39.6621   3
   2 -16  14 792.838 39.6626   3
  14  -2 -16 806.945 30.9438   1
  14  16   2 766.948 37.6892   1
  16   2 -14 849.117 32.9911   1
  14   2 -16 814.481 38.6075   3
 -14 -16  -2 790.697 33.4160   3
 -14 -16   2 830.544 34.6356   3
  16   2 -14 830.783 38.0969   3
  16  14  -2 799.350 36.3601   1
  16   4 -14 72.5885 15.5529   3
  -4 -16  14 56.6662 14.9338   3
  14   4 -16 70.5058 15.0025   3
 -14 -16   4 65.5594 11.9362   3
  16   4 -14 52.0028 10.0403   1
  14  16  -4 75.1964 13.2269   1
   4 -14  16 61.2591 14.5061   3
 -16  14   4 61.1567 5.18584   1
  -4 -14 -16 72.8415 10.9736   1
 -14 -16  -4 41.8859 9.49181   3
   4 -16  14 40.6523 16.1934   3
  16  14  -4 38.9957 13.6221   1
 -16  -6 -14 10652.4 365.772   1
 -16 -14  -6 10332.6 358.838   3
 -14 -16  -6 10693.3 361.161   3
  16   6 -14 10811.3 363.243   1
   6 -16  14 10482.8 366.830   3
  16  14  -6 10894.5 365.496   1
  -6 -14 -16 10883.5 363.375   1
  16   6 -14 10816.7 365.640   3
   6 -14  16 10218.8 366.348   3
  14  16  -6 10653.2 365.479   1
  14   6 -16 10493.2 366.197   3
 -14  -6 -16 10504.6 359.528   3
 -14  -8 -16 3401.56 116.162   3
 -16 -14  -8 3148.07 114.690   3
  16   8 -14 3349.49 122.562   3
  16  14  -8 3526.82 122.540   1
   8 -16  14 3479.34 124.232   3
  16   8 -14 3520.22 120.833   1
  14   8 -16 3525.66 123.941   3
  -8 -14 -16 3434.36 120.620   1
 -14  -8 -16 3421.16 122.296   1
   8 -14  16 3317.94 123.455   3
 -16  -8 -14 3342.84 122.492   1
  14  16  -8 3591.42 122.987   1
 -16 -14 -10 669.702 28.0142   3
  14  10 -16 809.788 38.7657   3
  16  10 -14 860.944 36.2075   1
 -14 -10 -16 865.783 37.6487   1
 -16 -10 -14 867.858 37.7206   1
  14 -16  10 816.756 37.8408   3
  10 -14  16 900.295 38.9120   3
  14  16 -10 843.231 36.8356   1
  10 -16  14 897.854 39.3897   3
  16  10 -14 895.366 37.9529   3
  16  14 -10 884.234 37.5492   1
 -14 -10 -16 820.773 30.5698   3
  16 -10  14 856.619 34.7899   3
 -10 -14 -16 896.610 36.2867   1
  16 -14  10 837.711 36.1976   3
  16 -14  12 10018.5 310.809   3
  16  12 -14 10268.9 311.318   1
 -16 -12 -14 10155.0 312.188   1
  12 -16  14 9632.85 312.273   3
  14 -12  16 9836.88 310.685   3
  16  14 -12 10110.3 311.689   1
 -12 -14 -16 9741.85 310.751   1
  16 -12  14 9753.29 309.875   3
  12 -14  16 9552.40 311.709   3
 -14 -12 -16 9691.66 311.113   1
  14 -16  12 10148.4 312.414   3
  16  14 -14 4174.05 151.658   1
  16 -14  14 4229.81 150.781   3
  14 -16  14 4114.60 151.823   3
  14 -14  16 4238.92 151.410   3
  16   0 -16 20843.9 701.922   1
   0 -16  16 20306.2 708.676   3
 -16 -16  -2 1060.91 41.5261   3
  16  -2 -16 1112.83 39.9639   1
   2 -16  16 1085.80 48.6218   3
  16   2 -16 1077.13 42.0722   1
  16  16  -2 1045.91 45.9669   1
  16   2 -16 1067.39 46.8720   3
  16   4 -16 2660.43 87.3358   1
   4 -16  16 2702.05 93.1448   3
 -16 -16  -4 2520.16 84.8601   3
  16  16  -4 2622.68 91.1342   1
  16   4 -16 2481.97 90.9089   3
   6 -16  16 12279.1 417.033   3
 -16  -6 -16 12387.1 416.028   1
 -16 -16  -6 11705.1 409.118   3
  16   6 -16 12098.9 415.770   3
  16   6 -16 12370.8 412.843   1
  16  16  -6 11903.7 415.186   1
 -16  -8 -16 10427.5 348.036   1
 -16 -16  -8 9480.81 340.572   3
  16   8 -16 10182.0 348.164   3
  16   8 -16 10555.5 345.798   1
   8 -16  16 10327.0 349.179   3
  16  16  -8 10306.3 347.625   1
 -16 -16 -10 236.554 12.2821   3
  16  10 -16 288.176 18.7642   1
  16  10 -16 249.137 20.1806   3
  16 -16  10 281.085 19.9061   3
  10 -16  16 261.105 21.7105   3
  16  16 -10 297.862 21.9561   1
  16  12 -16 930.820 41.3250   1
  12 -16  16 921.356 42.8547   3
  16  16 -12 867.473 41.3973   1
  16 -16  12 982.809 42.2516   3
  14 -16  16 13075.0 452.110   3
 -16  16  14 13049.6 443.897   2
  16 -16  14 12549.2 450.966   3
 -16  14  16 13267.4 443.930   2
  16 -14  16 13063.7 450.885   3
 -16  16  16 8597.16 289.519   2
  16 -16  16 8147.30 296.887   3
  17   1   1 3.12421 4.39895   3
  -1   1 -17 4.47437 14.8057   3
 -17   1  -1 13.5544 11.0160   1
 -17  -1   1 6.14782 10.1407   1
   1   1 -17 2.32965 12.8030   3
 -17   1   1 4.84445 10.5698   1
 -17  -1  -1 13.1484 10.9201   1
 -17  -3  -1 13819.4 483.067   1
   3  17   1 14431.8 483.031   1
  -1  17   3 14082.2 481.846   1
  -1   3 -17 14114.0 484.953   3
 -17  -1  -3 14320.9 483.310   1
  17   3  -1 13830.5 479.455   3
 -17   3  -1 14146.2 482.228   1
 -17   3   1 14134.2 481.766   1
 -17   1  -3 13854.2 482.910   1
  -3   1 -17 14393.4 484.444   3
   1   3 -17 14427.4 485.295   3
   1  17   3 14347.5 482.321   1
  -3  -1 -17 14654.1 484.441   3
   3   1 -17 14607.4 485.515   3
 -17  -3  -3-8.68252 11.6112   1
   3  17   3 4.99730 11.7161   1
  17   3  -3 10.4481 8.67828   3
  -3   3 -17-0.74017 14.7750   3
   3   3 -17 7.34046 15.0809   3
 -17   3   3 7.67110 8.95001   1
   1  17   5 8462.80 291.612   1
 -17   5   1 8468.67 290.770   1
   1   5 -17 8236.83 294.603   3
  -5   1 -17 8698.25 293.484   3
 -17   5  -1 8653.42 291.574   1
  -1  17   5 8539.89 291.023   1
  -1   5 -17 8398.72 294.450   3
  -5  -1 -17 8578.95 293.263   3
 -17  -5  -1 8503.78 292.818   1
   5  17   1 8565.61 292.888   1
 -17  -1  -5 8333.03 292.860   1
 -17  -3  -5 3007.21 107.479   1
  17   5  -3 2911.54 103.846   3
  -5   3 -17 3135.42 107.950   3
 -17   5   3 3041.12 104.224   1
  17   3  -5 2927.12 104.895   3
 -17  -5  -3 3085.90 107.472   1
   3  17   5 2981.48 106.171   1
   5  17   3 2899.10 106.477   1
  -3   5 -17 3065.78 108.727   3
  -3 -17   5 2882.02 108.319   3
  17  -3   5 2954.19 102.512   3
   3   5 -17 3030.96 109.470   3
  -3  17   5 2942.13 104.290   1
   5  17   5 3.09357 12.3260   1
  -5   5 -17 16.7676 13.0843   3
  -5  17   5 13.6601 7.93290   1
 -17  -5  -5 9.73677 13.8221   1
  17   5  -5 8.08128 9.14589   3
  -5 -17   5 5.68760 15.1479   3
   1  17   7 8194.67 280.056   1
 -17   7   1 7950.05 279.015   1
  -1  17   7 8169.45 279.310   1
  -7  -1 -17 8267.62 281.355   3
  -1   7 -17 8259.01 283.626   3
  -7   1 -17 8120.39 281.539   3
 -17  -1  -7 8168.78 282.076   1
   1   7 -17 8255.89 283.809   3
   7  17  -1 8095.20 281.660   1
   7  17   1 8292.44 281.786   1
  -1 -17   7 8137.55 283.733   3
 -17   7   3 1892.87 66.9601   1
  -3 -17   7 1743.12 72.2131   3
  17  -3   7 1882.88 65.4345   3
  17   3  -7 1838.42 69.1198   3
  -7 -17   3 1820.98 71.5158   3
  -3  17   7 1899.13 67.3721   1
  -3   7 -17 1874.17 72.4883   3
   7   3 -17 1774.71 73.0532   3
 -17  -7  -3 1906.51 70.9423   1
  -7  -3 -17 2004.78 70.5356   3
   7  17   3 1933.47 70.9691   1
 -17  -3  -7 1941.91 71.3288   1
  -7   3 -17 1880.20 70.6918   3
  -5 -17   7 877.075 39.8203   3
 -17  -7  -5 868.127 38.2898   1
  17   7  -5 908.467 38.1256   1
  17  -5   7 917.323 34.4600   3
  17   5  -7 877.662 37.2194   1
   7  17   5 891.926 38.4969   1
  -7 -17   5 873.048 40.0669   3
   7   5 -17 882.500 40.3896   3
  17   5  -7 922.774 37.1878   3
  -7  17   5 931.331 33.8211   1
  -5  17   7 925.065 33.9598   1
 -17  -5  -7 878.246 39.2014   1
  17   7  -7-0.57548 10.6020   3
  17   7  -7 0.66306 12.1490   1
  17  -7   7 2.75179 8.69824   3
  -7 -17   7 10.3306 14.3675   3
   7   7 -17-7.59767 16.9817   3
 -17  -7  -7-7.75304 13.1938   1
  -1 -17   9 11341.3 395.610   3
   9  17   1 11436.9 393.881   1
   9  17  -1 11556.3 394.049   1
   1  -9 -17 11606.2 390.673   1
   1   9 -17 11405.3 395.698   3
  -9 -17   1 11271.0 393.498   3
  -9  -1 -17 11669.6 392.510   3
  -9   1 -17 11312.2 392.564   3
   9  17   3 1629.11 61.5462   1
   3 -17   9 1569.46 63.0950   3
   9   3 -17 1401.23 63.1782   3
   9  17  -3 1570.89 61.6104   1
  17   3  -9 1570.24 59.2695   1
  17   9  -3 1580.53 61.5502   1
  -9  -3 -17 1610.31 59.9232   3
  -3 -17   9 1619.01 63.4847   3
  17   3  -9 1556.85 60.5564   3
 -17   9   3 1616.57 56.8899   1
 -17  -3  -9 1598.36 62.4036   1
  -9 -17   3 1560.51 61.6290   3
   3  -9 -17 1646.79 57.1692   1
  17   5  -9 993.777 40.3053   1
  17  -5   9 988.587 37.3362   3
  17   9  -5 1008.30 41.9774   1
   9   5 -17 1013.87 44.3260   3
  -5 -17   9 1013.76 44.2436   3
  -9 -17   5 1075.08 43.3706   3
 -17  -9  -5 991.712 42.1589   1
  -5  -9 -17 979.155 40.4578   1
  17   5  -9 984.912 40.8029   3
   5  -9 -17 1003.30 36.0644   1
   5 -17   9 1039.33 45.1307   3
 -17  -5  -9 939.417 42.5509   1
  -9  -5 -17 1051.14 40.4480   3
  -9  17   5 944.185 35.8707   1
  -7 -17   9 302.400 22.7846   3
   7   9 -17 337.125 24.7790   3
  17   9  -7 293.144 19.8061   1
  17   7  -9 293.373 19.0284   1
  -9 -17   7 329.621 22.3054   3
   9   7 -17 332.279 23.1007   3
  -7  -9 -17 319.665 20.3380   1
   7 -17   9 329.507 23.5390   3
  17   7  -9 325.193 19.9798   3
  17  -7   9 347.069 17.1741   3
   9 -17   9 11.0096 14.4074   3
  17   9  -9-0.74808 10.0238   1
  17  -9   9 5.90601 8.95621   3
   9   9 -17 5.12764 14.5860   3
  -9  -9 -17-9.37851 11.5305   1
  -9 -17   9-0.94899 14.1582   3
  17   1 -11 827.538 33.8468   1
  11  17  -1 853.313 38.1820   1
  -1 -11 -17 852.186 33.7594   1
 -11 -17   1 819.302 36.6243   3
   1 -11 -17 871.661 32.8794   1
 -11 -17  -1 824.732 36.1393   3
 -11  -1 -17 863.773 34.8950   3
  11  17  -3 126.891 17.0396   1
  17   3 -11 76.1616 14.2580   3
  -3 -11 -17 102.029 11.9620   1
  11  17   3 107.582 16.4131   1
 -17  11   3 82.2271 7.85698   1
  17  11  -3 87.3038 14.2761   1
   3 -11 -17 86.8568 7.72613   1
  11   3 -17 86.9488 18.3681   3
  17   3 -11 67.1918 10.8080   1
 -11  -3 -17 89.6197 10.9802   3
   3 -17  11 72.0840 17.4690   3
  -3 -17  11 41.0857 16.8686   3
 -11 -17   3 123.176 14.9696   3
  11  -5 -17 2264.84 79.7063   1
  17   5 -11 2373.65 84.6501   1
  -5 -17  11 2205.08 87.8262   3
 -11 -17   5 2315.37 86.4717   3
 -11  17   5 2272.98 79.9726   1
  17  11  -5 2468.06 86.8470   1
  -5 -11 -17 2452.57 85.2057   1
   5 -17  11 2297.03 88.9761   3
 -11  -5 -17 2487.56 83.8682   3
  11   5 -17 2440.99 89.1084   3
  17   5 -11 2332.10 86.2553   3
  17  11  -7 1724.67 68.3741   1
  17   7 -11 1820.10 67.5080   1
  17   7 -11 1855.73 68.9169   3
 -11  -7 -17 1803.04 65.7926   3
 -11 -17   7 1759.92 69.3461   3
  -7 -17  11 1760.20 70.6021   3
   7 -17  11 1769.68 71.3139   3
  11   7 -17 1765.84 71.1444   3
  -7 -11 -17 1790.42 67.6362   1
  17  -7  11 1792.17 65.3009   3
  17  11  -9 4690.47 163.074   1
 -11  -9 -17 4497.82 162.934   1
  17 -11   9 4689.83 161.797   3
  17   9 -11 4501.96 162.691   3
  17   9 -11 4631.64 162.343   1
 -17  -9 -11 4585.91 163.834   1
  11 -17   9 4663.01 165.052   3
 -11 -17   9 4514.76 163.881   3
  11   9 -17 4434.50 164.944   3
  -9 -17  11 4641.32 165.138   3
  17  -9  11 4631.90 160.701   3
   9 -17  11 4773.42 165.301   3
 -17 -11  -9 4448.91 163.356   1
   9  11 -17 4344.01 164.750   3
  -9 -11 -17 4720.49 162.756   1
  11  11 -17 12.2281 15.1997   3
 -11 -11 -17 3.53830 10.6126   1
  11 -17  11 5.40920 15.3884   3
 -17 -11 -11 2.89403 11.0419   1
  17  11 -11 5.19648 10.2567   1
  17 -11  11 10.2207 9.40882   3
  13  17   1 2454.70 91.4850   1
  13  17  -1 2371.68 91.0452   1
 -13 -17   1 2319.28 89.2345   3
 -13 -17  -1 2423.67 88.8394   3
  -1 -13 -17 2555.41 87.5845   1
  17   1 -13 2519.67 87.5226   1
   1 -17  13 2376.83 93.3183   3
   3 -17  13 382.263 24.3533   3
  -3 -13 -17 456.930 20.7044   1
  13  -3 -17 396.308 16.5539   1
 -17  13   3 392.438 16.7240   1
  17  13  -3 398.545 23.9960   1
 -13 -17  -3 378.066 20.5451   3
 -13 -17   3 423.155 22.6418   3
  -3 -17  13 378.927 25.9182   3
  13   3 -17 395.419 25.8868   3
  17   3 -13 389.482 20.2215   1
  17   3 -13 388.478 23.7640   3
 -13 -17  -5 962.561 35.2842   3
  17   5 -13 1008.92 39.6739   3
  17  13  -5 950.241 38.8153   1
  13   5 -17 931.940 40.1836   3
   5 -17  13 910.960 40.6349   3
  -5 -17  13 954.932 41.6766   3
 -13  -5 -17 956.321 33.5310   3
 -13 -17   5 946.464 37.9748   3
 -13  17   5 743.344 29.2847   1
  17   5 -13 957.263 36.1422   1
  -5 -13 -17 972.202 36.2936   1
  17  13  -7 257.320 18.6283   1
   7 -17  13 281.249 22.2952   3
  13  17  -7 273.077 21.4555   1
  17   7 -13 274.761 20.3045   3
  13   7 -17 274.948 21.5817   3
  -7 -13 -17 281.344 18.0920   1
 -13  -7 -17 283.546 14.9785   3
  17   7 -13 290.456 17.8650   1
 -17  -7 -13 262.215 19.7694   1
  -7 -17  13 287.313 21.8011   3
 -13  -7 -17 306.375 21.6526   1
 -17  -9 -13 437.893 25.9603   1
 -13  -9 -17 430.803 25.3848   1
  17   9 -13 452.791 23.7096   1
  13  17  -9 430.311 25.8232   1
  13   9 -17 394.865 25.8562   3
   9 -13  17 425.084 26.5085   3
  -9 -13 -17 414.919 23.1039   1
  17  -9  13 463.138 22.0315   3
 -13  -9 -17 445.254 19.9151   3
  17 -13   9 459.543 23.8658   3
  17   9 -13 414.125 25.0637   3
  13 -17   9 427.521 26.6703   3
   9 -17  13 450.401 26.1790   3
  17  13  -9 394.498 23.8474   1
  13  11 -17 4865.27 176.683   3
  17 -11  13 4932.45 173.034   3
  13 -17  11 4955.18 176.370   3
  17  11 -13 5050.11 174.718   1
  11 -17  13 4828.59 176.522   3
 -13 -11 -17 4978.71 175.205   1
 -17 -13 -11 4872.73 175.361   1
  17 -13  11 4877.52 173.877   3
 -17 -11 -13 4864.14 175.343   1
  11 -13  17 4925.06 175.714   3
 -11 -13 -17 4843.52 174.344   1
  17  13 -11 4916.38 174.880   1
  13 -17  13-1.14921 11.9575   3
 -13 -13 -17 8.02891 11.8333   1
  17 -13  13 10.7711 10.3472   3
  17  13 -13 12.2326 13.0146   1
 -15 -17  -1 626.497 27.9260   3
  15  17   1 602.030 31.2010   1
   1 -17  15 547.259 32.9071   3
  17  15  -1 682.432 32.3711   1
 -15 -17   1 601.084 28.4645   3
  17   1 -15 642.425 26.9779   1
  15  -1 -17 711.184 26.1262   1
  15   1 -17 625.346 26.9804   1
  17   3 -15 9362.27 319.634   3
   3 -17  15 9137.36 321.048   3
  15  -3 -17 9255.88 312.180   1
  15   3 -17 9179.53 320.107   3
 -15 -17  -3 8959.62 314.895   3
  -3 -17  15 9197.28 321.285   3
  15   3 -17 9283.85 315.417   1
  17  15  -3 9157.47 319.074   1
   3 -15  17 8999.70 320.753   3
  17   3 -15 9222.38 315.365   1
 -15 -17  -5 165.141 12.2445   3
  17   5 -15 167.092 13.6042   1
  17   5 -15 161.360 17.4732   3
  15  17  -5 179.984 16.4606   1
  17  15  -5 178.792 18.2926   1
   5 -15  17 152.721 17.5016   3
  -5 -15 -17 180.773 14.0662   1
 -17  -5 -15 144.457 18.3837   1
   5 -17  15 184.075 19.2661   3
  15   5 -17 134.194 18.9678   3
  17  15  -7 1821.33 68.7720   1
   7 -15  17 1794.93 70.3318   3
  -7 -15 -17 1712.08 65.9037   1
  17   7 -15 1781.14 66.2093   1
  15   7 -17 1731.90 69.7347   3
 -15 -17  -7 1665.94 62.9808   3
 -15  -7 -17 1717.89 68.4731   1
  17   7 -15 1752.93 68.9334   3
 -17  -7 -15 1649.15 68.1607   1
  15  17  -7 1793.46 69.0367   1
   7 -17  15 1691.98 70.1170   3
   9 -15  17 97.4002 15.5612   3
  17   9 -15 75.6675 15.6689   3
   9 -17  15 84.5707 17.2083   3
  17   9 -15 72.1615 12.9266   1
 -15  -9 -17 75.7955 12.6762   1
  17 -15   9 70.5260 13.1398   3
  17  15  -9 101.132 15.8416   1
  15   9 -17 79.2201 14.2941   3
  15  17  -9 75.6116 13.9760   1
  15 -17   9 80.4222 15.0980   3
 -17  -9 -15 81.0538 14.5939   1
 -15  -9 -17 76.3243 6.96043   3
  -9 -15 -17 76.4047 13.3325   1
 -15 -17  -9 91.7826 9.03681   3
 -15 -11 -17 399.313 17.6522   3
  17 -15  11 429.856 24.3120   3
  15 -17  11 422.032 25.2863   3
 -11 -15 -17 425.909 24.4036   1
  11 -17  15 422.551 26.4474   3
  17  11 -15 502.260 25.7411   1
  17  15 -11 454.214 25.9227   1
  15  17 -11 424.561 25.0837   1
  11 -15  17 401.747 25.3174   3
  17 -13  15 31.2709 10.7027   3
  15 -17  13 15.0459 12.3876   3
  17  13 -15 10.7142 10.8688   1
  13 -17  15 13.3108 11.9000   3
  17 -15  13-3.09910 11.0294   3
 -17  13  15 20.1613 9.72375   2
  13 -15  17 18.5639 11.6975   3
  15 -15  17-3.47287 11.0078   3
 -15  15  17 7.48548 9.64043   2
  17 -15  15 34.4659 11.9459   3
 -15  17  15 0.31460 9.03282   2
 -17  15  15 6.82428 9.76230   2
  15 -17  15-1.21603 12.3242   3
  17  -1 -17 9.63629 6.61022   1
   1 -17  17-8.94547 15.9413   3
  17   1 -17 9.12090 15.2006   3
  17   1 -17 10.8632 8.00527   1
   3 -17  17-3.82610 14.4237   3
  17  17  -3 4.26991 10.0455   1
  17   3 -17-2.24876 14.5948   3
  17   3 -17 9.20874 8.74599   1
 -17 -17  -5 9.46550 6.73002   3
  17  17  -5 33.6720 15.2234   1
   5 -17  17 8.87711 15.3842   3
  17   5 -17 33.2764 10.1481   1
  17   5 -17 14.8020 13.4348   3
  17  17  -7 4.42500 13.4694   1
 -17 -17  -7 15.7980 5.97068   3
  17   7 -17-7.27502 9.67944   1
   7 -17  17 15.2606 14.8271   3
  17   7 -17 3.48407 14.4591   3
  17   9 -17-6.38516 11.5798   1
  17 -17   9 13.1531 12.2780   3
 -17   9  17 6.36836 9.47880   2
  17   9 -17 17.9401 13.1651   3
  17  11 -17-4.08035 11.4807   1
  17 -17  11 19.2325 12.1959   3
 -17  11  17-3.76888 9.44579   2
 -13  17  17 9.32508 8.68364   2
  17 -17  13-3.49985 11.4994   3
 -17  13  17 3.24021 9.72241   2
 -17  15  17-2.02650 10.2336   2
 -15  17  17 4.89997 9.42927   2
 -17  17  15 4.43334 10.6397   2
 -17  17  17 12.0058 10.2378   2
 -18   0   0 12023.0 413.207   1
   0   0 -18 12202.9 415.903   3
  18   2   0 8731.00 269.143   3
 -18   2   0 9073.96 273.343   1
   0   2 -18 9244.14 276.912   3
  -2   0 -18 9143.55 276.344   3
 -18   0  -2 9220.17 274.244   1
 -18  -2   0 8857.17 273.926   1
   0  18   2 9146.66 273.471   1
  -2   2 -18 469.040 25.9413   3
 -18   2   2 440.199 21.2010   1
 -18   2  -2 450.285 22.8183   1
   2  18   2 467.215 22.8350   1
 -18  -2  -2 434.752 23.2928   1
   2   2 -18 411.501 26.1579   3
  18   2  -2 424.084 18.8346   3
  -4   0 -18 696.248 32.3725   3
   0   4 -18 729.450 34.8837   3
   4  18   0 727.705 31.9449   1
 -18   0  -4 757.722 31.7647   1
   0  18   4 673.555 29.9153   1
 -18   4   0 683.839 29.7603   1
  -2  18   4 4581.59 153.821   1
   2   4 -18 4551.25 158.225   3
  -2   4 -18 4449.19 157.494   3
   4   2 -18 4522.35 158.220   3
  18   2  -4 4414.41 153.181   3
 -18   4  -2 4595.79 154.881   1
  -4  -2 -18 4678.88 156.870   3
 -18   2  -4 4449.46 155.426   1
 -18  -4  -2 4322.45 155.599   1
   4  18   2 4677.10 155.861   1
  18   4  -2 4311.37 151.739   3
  -4   2 -18 4664.88 156.994   3
 -18  -2  -4 4528.37 155.958   1
 -18   4   2 4588.53 153.671   1
  18  -2   4 4175.89 150.316   3
  -4  18   4 5476.72 188.610   1
  -4   4 -18 5628.19 192.788   3
   4   4 -18 5428.85 193.448   3
  18   4  -4 5425.07 188.466   3
   4  18   4 5567.50 190.875   1
 -18  -4  -4 5357.84 191.468   1
   0  18   6 7803.31 269.108   1
   6  18   0 7934.02 271.107   1
 -18   0  -6 7928.02 271.307   1
  -6   0 -18 7803.99 271.165   3
   0   6 -18 7764.21 273.043   3
 -18   6   0 7796.87 268.918   1
  -6  -2 -18 701.231 30.8925   3
 -18  -6  -2 629.918 30.6252   1
  -2 -18   6 656.194 34.0482   3
 -18  -2  -6 671.872 30.9394   1
   2  18   6 645.967 29.1221   1
   6  18   2 637.209 30.6197   1
   2   6 -18 634.484 32.4807   3
 -18   6   2 643.633 27.3401   1
  18   2  -6 649.365 28.6990   3
  -2   6 -18 728.163 34.1619   3
  -6   2 -18 670.028 30.7366   3
  -2  18   6 687.709 27.6524   1
 -18  -6  -4 26.4453 13.6802   1
   6  18   4 13.7846 12.7144   1
 -18  -4  -6 19.4408 12.0864   1
  -4  18   6 49.4033 8.41466   1
   4  18   6 13.2019 12.1166   1
  -4 -18   6 50.1825 15.3474   3
  -4   6 -18 27.0869 15.0230   3
  18   4  -6 14.2392 10.5379   3
  -6 -18   4 32.9442 13.9147   3
  18  -4   6 32.4019 6.52167   3
  -6  18   4 23.8526 7.71149   1
  -6   4 -18 48.2966 12.7501   3
 -18  -6  -6 1874.36 71.3593   1
   6  18   6 1817.66 70.1473   1
  -6 -18   6 1833.38 72.3203   3
  18  -6   6 1916.55 67.2488   3
  -6  18   6 1885.98 66.4765   1
  18   6  -6 1856.39 68.6069   3
 -18   8   0 8840.42 306.493   1
   8  18   0 8972.07 309.297   1
   0 -18   8 8693.36 311.185   3
  -8   0 -18 9310.28 308.822   3
   0   8 -18 8957.40 311.285   3
  -8  -2 -18 14775.4 497.380   3
   2   8 -18 14561.8 500.190   3
 -18  -2  -8 14221.8 498.427   1
  -8 -18   2 14451.8 498.631   3
   8   2 -18 15090.8 500.634   3
   8  18   2 14773.7 498.215   1
  -2 -18   8 13965.8 499.787   3
 -18   8   2 14387.3 494.610   1
  18   2  -8 14493.1 496.966   3
  -8   2 -18 14741.7 497.807   3
   8  18  -2 14863.0 498.475   1
 -18  -4  -8 4527.88 160.656   1
 -18   8   4 4464.74 155.458   1
  -4 -18   8 4616.47 162.056   3
  18   4  -8 4433.16 158.548   3
 -18  -8  -4 4503.64 160.110   1
   8  18   4 4554.56 159.972   1
   4 -18   8 4513.39 162.361   3
  18  -4   8 4442.02 154.852   3
  -8 -18   4 4594.40 161.012   3
  -8  -4 -18 4808.23 159.395   3
   8   4 -18 4592.98 162.530   3
  18   6  -8 138.518 13.8835   3
 -18  -8  -6 157.558 16.7052   1
  -8  18   6 142.503 8.39895   1
  18   6  -8 136.590 14.4438   1
 -18  -6  -8 142.080 16.9426   1
   8   6 -18 131.066 18.9260   3
  18   8  -6 109.437 13.7504   1
  -6 -18   8 106.103 17.6242   3
  18  -6   8 138.493 10.3305   3
  -8 -18   6 126.269 17.6258   3
   8   8 -18 505.339 26.5479   3
 -18  -8  -8 489.619 24.9782   1
  -8 -18   8 480.506 26.4247   3
  18   8  -8 451.509 22.6673   1
  18  -8   8 477.421 20.2272   3
 -10 -18   0 950.103 40.3582   3
   0 -10 -18 992.187 37.3350   1
  10  18   0 913.327 41.4438   1
 -10   0 -18 934.835 39.0229   3
  -2 -10 -18 3855.35 134.384   1
 -18  -2 -10 3755.73 137.483   1
  10  18  -2 4046.80 137.733   1
  18   2 -10 3763.90 136.137   3
 -10 -18   2 3608.12 136.438   3
 -10  -2 -18 4000.70 135.337   3
  10  18   2 3657.50 136.790   1
 -18  10   2 3835.39 132.659   1
  -2 -18  10 3728.56 139.068   3
  10   2 -18 3701.36 138.716   3
   2 -10 -18 3926.34 132.850   1
 -18  10   4 2078.14 71.8234   1
  10  18  -4 2048.61 77.6170   1
  18  10  -4 2087.57 77.6475   1
 -18  -4 -10 1983.52 77.8554   1
  -4 -18  10 2023.10 79.7907   3
  18   4 -10 2044.21 75.3669   1
  18   4 -10 2025.36 76.4427   3
  -4 -10 -18 1964.17 75.4570   1
  10  18   4 2007.91 77.9325   1
   4 -18  10 1952.35 79.4971   3
 -10 -18   4 1953.01 77.3562   3
 -10  -4 -18 2111.13 75.5406   3
  10   4 -18 2091.39 80.1209   3
   4 -10 -18 2124.58 72.1591   1
  -6 -10 -18 2435.42 89.9589   1
 -18  -6 -10 2299.91 91.1799   1
  -6 -18  10 2486.53 93.4332   3
   6 -18  10 2561.04 93.7984   3
  18   6 -10 2504.90 89.8726   1
  18   6 -10 2535.66 90.6455   3
  18  -6  10 2514.11 87.0247   3
  18  10  -6 2509.59 91.1730   1
 -10  -6 -18 2572.68 89.3195   3
 -10 -18   6 2440.65 91.9708   3
  10   6 -18 2422.27 93.6337   3
   6  10 -18 2508.67 94.2567   3
 -10  18   6 2394.57 84.3920   1
  18  10  -8 1994.44 74.3567   1
   8 -18  10 1990.08 77.2396   3
  18  -8  10 1941.81 71.1880   3
   8  10 -18 1954.23 77.5254   3
  18   8 -10 1923.46 73.5150   1
  18 -10   8 1949.27 72.2041   3
  18   8 -10 1948.69 73.7670   3
  -8 -18  10 1895.22 76.3574   3
  -8 -10 -18 1991.25 74.1396   1
 -10 -18   8 1985.41 75.9345   3
  10   8 -18 1935.97 76.6457   3
 -10 -10 -18 12.1663 10.9694   1
  18 -10  10 12.4921 9.25467   3
  10  10 -18 4.53544 16.6116   3
  10 -18  10-15.5253 15.7505   3
 -10 -18  10 19.9459 13.5535   3
  18  10 -10 1.68055 10.4833   1
   0 -12 -18 52.4229 7.82430   1
  12  18   0 84.5711 14.0069   1
 -12 -18   0 77.1495 12.8386   3
 -18  12   2 6344.60 221.455   1
 -12 -18   2 6168.99 225.158   3
  12   2 -18 6384.92 228.481   3
   2 -12 -18 6443.56 221.586   1
  18   2 -12 6488.51 223.357   1
   2 -18  12 6589.23 228.926   3
  12  18   2 6608.47 227.025   1
  18   2 -12 6306.21 226.154   3
  -2 -18  12 6305.11 228.341   3
  -2 -12 -18 6671.27 223.584   1
  12  18  -2 6631.14 227.045   1
 -12  -2 -18 6692.71 223.560   3
 -12 -18  -2 6472.49 224.789   3
  -4 -18  12 194.362 20.8531   3
   4 -18  12 236.955 20.5476   3
  12   4 -18 219.803 18.7510   3
  12  -4 -18 209.965 10.2126   1
  18   4 -12 236.730 15.4398   1
 -12  -4 -18 213.940 14.0021   3
  18  12  -4 190.861 16.7206   1
  -4 -12 -18 230.819 15.1585   1
 -12 -18   4 202.331 16.9474   3
 -18  12   4 210.113 10.1741   1
 -18  -4 -12 208.332 20.2851   1
  18   4 -12 210.815 17.8530   3
  -6 -18  12 1833.83 75.5166   3
  18  12  -6 1985.96 73.4105   1
 -12 -18   6 1877.48 73.3737   3
   6 -18  12 1827.58 76.1774   3
  12   6 -18 1850.76 75.6097   3
  -6 -12 -18 1967.50 71.7417   1
 -12  -6 -18 1916.48 69.6183   3
  18   6 -12 1870.34 72.9414   3
  18   6 -12 1951.59 71.3907   1
 -12  -8 -18 22719.2 779.264   1
  18 -12   8 23192.6 777.497   3
  18   8 -12 22611.7 777.550   1
  -8 -12 -18 21854.2 777.504   1
  18  -8  12 23161.3 775.585   3
  18  12  -8 22651.3 778.822   1
  12  18  -8 22999.3 779.665   1
  18   8 -12 22717.0 778.591   3
 -12  -8 -18 23476.4 775.445   3
 -12 -18   8 22220.2 779.201   3
  12   8 -18 22482.6 780.702   3
   8 -18  12 23338.8 781.243   3
  -8 -18  12 23189.9 781.088   3
 -12 -10 -18 395.236 23.8936   1
  10 -18  12 352.334 23.9204   3
 -18 -12 -10 334.411 23.4334   1
  12 -18  10 379.235 24.6696   3
 -18 -10 -12 351.822 22.4896   1
  18  12 -10 370.020 22.0954   1
  18 -12  10 333.535 20.3335   3
  18 -10  12 371.637 19.3939   3
  18  10 -12 371.159 21.5185   1
  12  10 -18 304.992 24.5927   3
 -10 -12 -18 343.175 20.8148   1
  12 -18  12 27094.5 938.958   3
 -12 -12 -18 27111.1 937.033   1
  18  12 -12 28253.4 937.327   1
  18 -12  12 27562.3 935.530   3
  14  18   0 603.375 30.8530   1
  14   0 -18 589.340 25.1931   1
 -14 -18   0 633.373 28.1197   3
  18   2 -14 24.5040 9.27102   1
  14   2 -18 13.2694 13.5430   3
  14  -2 -18 25.9079 6.64400   1
  18  14  -2 32.9034 12.9795   1
 -14 -18  -2 36.4967 10.2162   3
  18   2 -14 49.0673 13.6127   3
  -2 -14 -18 75.3236 9.38962   1
   2 -18  14 47.4386 15.4132   3
 -14 -18   2 53.2902 11.7746   3
  14  18   2 20.6611 12.2826   1
  -2 -18  14 16.6712 14.9600   3
  18   4 -14 1164.94 44.5851   1
 -18  14   4 1088.38 39.5993   1
   4 -18  14 1140.29 49.8723   3
 -14 -18  -4 1154.99 44.4256   3
  18  14  -4 1075.42 46.9652   1
 -14 -18   4 1146.77 46.5231   3
  -4 -18  14 1054.05 49.5765   3
  -4 -14 -18 1191.28 44.9710   1
  18   4 -14 1165.95 48.2294   3
  14   4 -18 1162.57 49.4188   3
 -14 -18  -6 845.972 34.5762   3
   6 -18  14 813.009 41.2920   3
 -14  -6 -18 851.377 32.6959   3
  -6 -14 -18 868.598 36.3652   1
  18   6 -14 876.591 36.2229   1
  14   6 -18 780.804 40.1043   3
  14  18  -6 791.675 38.1856   1
  18   6 -14 802.093 38.3897   3
  -6 -18  14 803.290 41.2254   3
  18  14  -6 896.432 39.3088   1
 -18  -8 -14 553.310 29.7162   1
 -14  -8 -18 529.453 23.2339   3
 -14  -8 -18 558.371 29.3171   1
  18  14  -8 578.631 29.8993   1
  14  18  -8 548.411 29.3128   1
  18   8 -14 550.038 29.4249   3
  18 -14   8 507.488 27.7384   3
  18   8 -14 613.055 28.0212   1
  14   8 -18 565.428 31.7496   3
  -8 -14 -18 590.400 28.1046   1
   8 -18  14 606.761 32.2572   3
  14  18 -10 1889.77 74.7564   1
 -14 -10 -18 1936.60 74.4666   1
 -10 -14 -18 2029.30 73.4730   1
  18 -14  10 1919.88 72.7337   3
  18  10 -14 1947.29 72.8999   1
  18  14 -10 1879.67 73.6546   1
  14 -18  10 1940.97 75.2584   3
  10 -18  14 1862.87 75.9440   3
  14  10 -18 1910.82 75.5386   3
 -14 -10 -18 1768.23 67.7952   3
  18  12 -14 331.458 22.4109   1
 -12 -14 -18 309.831 20.8166   1
  18 -12  14 311.894 19.6177   3
 -18  12  14 343.458 17.2588   2
  18 -14  12 316.335 20.5756   3
  14 -18  12 387.780 23.9471   3
  18  14 -12 345.379 22.6970   1
 -14 -12 -18 357.857 16.9905   3
  12 -18  14 365.313 24.8644   3
 -14  14  18 306.745 15.1568   2
 -18  14  14 293.285 16.0556   2
  18 -14  14 270.455 19.0175   3
  18   0 -16 778.240 30.7157   1
   0 -18  16 846.503 39.9592   3
  16   0 -18 725.121 30.4173   1
 -16 -18   0 763.619 32.8436   3
  18   2 -16 3169.09 116.306   3
  18  16  -2 3117.43 115.865   1
  16  -2 -18 3081.65 108.681   1
 -16 -18  -2 3051.27 111.237   3
   2 -18  16 3187.92 118.018   3
  16   2 -18 3156.42 116.890   3
  16   2 -18 3277.76 111.410   1
  18   2 -16 3102.86 111.175   1
  18   4 -16 3367.52 96.0645   3
  16  18  -4 3323.89 96.1000   1
   4 -18  16 3630.90 99.7252   3
  16   4 -18 3421.87 90.8594   1
 -16 -18  -4 3374.67 89.0812   3
  18   4 -16 3443.20 90.8977   1
  16   4 -18 3419.93 97.0502   3
  18  16  -4 3264.04 95.3604   1
  18   6 -16 628.991 28.0203   1
   6 -16  18 610.892 33.7965   3
  16   6 -18 573.005 31.3596   3
  16  18  -6 603.878 31.6248   1
  18   6 -16 549.435 30.8354   3
  18  16  -6 560.703 31.0168   1
 -16 -18  -6 520.895 24.4799   3
  16   6 -18 640.680 28.1354   1
   6 -18  16 590.836 33.1672   3
  18   8 -16 117.504 16.8941   3
   8 -16  18 163.257 19.5279   3
  18   8 -16 152.298 14.9758   1
  16   8 -18 126.279 17.9206   3
 -16 -18  -8 122.812 10.0638   3
  18  16  -8 114.429 14.2865   1
  16  10 -18 142.081 18.8956   3
 -16  10  18 143.829 11.5801   2
 -18  10  16 129.463 11.1394   2
 -10  18  16 103.907 11.0846   4
 -10 -16 -18 125.833 14.1594   1
  16 -18  10 100.948 15.7729   3
  18  10 -16 97.1382 16.9410   3
  18 -16  10 119.954 14.2783   3
  18  10 -16 117.740 14.6410   1
  18  12 -16 1056.42 44.5382   1
 -16  12  18 1022.91 37.7852   2
 -18  12  16 972.773 37.8435   2
  16 -18  12 1019.80 45.6193   3
  18 -16  12 949.917 43.6165   3
  18 -16  14 1996.91 78.7804   3
 -18  14  16 2015.13 72.3514   2
 -14  18  16 2026.01 71.9302   2
 -18  16  14 2035.45 72.3636   2
 -16  14  18 2072.58 72.2784   2
  18 -14  16 2004.29 78.1271   3
 -14  16  18 2033.89 71.9820   2
 -18  16  16 11646.3 391.930   2
 -16  16  18 11460.0 391.704   2
 -16  18  16 11459.2 391.768   2
  18   0 -18 1690.72 69.6359   3
  18   0 -18 1697.89 61.8996   1
  -2  18  18 2219.50 78.0056   4
  18   2 -18 2122.56 86.2767   3
  18   2 -18 2273.82 80.8612   1
  18   4 -18 228.607 21.0745   3
 -18   4  18 203.742 12.9821   2
  18   4 -18 200.617 14.9542   1
 -18   6  18 193.097 12.9382   2
  18   6 -18 193.249 15.2583   1
  18   6 -18 207.491 20.5648   3
 -18   8  18 9105.84 306.014   2
  18   8 -18 9312.54 311.928   1
  -8  18  18 8915.01 305.796   4
  18   8 -18 8370.97 314.284   3
 -18  10  18 2763.40 98.1159   2
  18 -18  10 2802.25 105.702   3
  18  10 -18 2927.43 104.849   1
  12  18  18 23942.7 812.332   4
 -12  18  18 24024.8 812.667   2
 -18  12  18 24119.6 813.166   2
 -14  18  18 393.092 18.1190   2
 -18  14  18 390.686 19.3043   2
  14  18  18 364.923 16.6964   4
 -18  18  14 372.852 18.9491   2
 -18  18  16 1588.44 56.4693   2
 -18  16  18 1553.68 56.4764   2
 -16  18  18 1490.00 56.1599   2
 -18  18  18 13289.5 451.837   2
 -19  -1   1 4.09771 10.7553   1
 -19   1   1-10.4195 10.3114   1
 -19  -1  -1-1.90269 11.2531   1
   1   1 -19-11.6554 14.6292   3
 -19   1  -1 5.95559 11.6376   1
  19   1  -1 5.12977 6.51718   3
  -1  -1 -19-10.3257 15.5188   3
  -1   1 -19 24.0466 13.8174   3
  -3   1 -19 273.299 20.4426   3
   1   3 -19 302.973 21.5569   3
 -19  -1  -3 295.570 19.7361   1
 -19   3  -1 323.402 18.3679   1
   1  19   3 303.480 18.1247   1
  -3  -1 -19 327.576 21.4111   3
 -19  -3  -1 343.995 20.3113   1
  19   1  -3 301.905 15.6789   3
 -19   1  -3 296.662 18.7600   1
  -1  19   3 320.574 17.9283   1
   3   1 -19 320.548 24.4572   3
  -1   3 -19 345.353 22.4653   3
 -19   3   1 282.333 16.9860   1
   3  19   1 302.734 18.8571   1
  -3  19   3-8.73543 9.54414   1
   3   3 -19-0.93734 14.8464   3
  -3   3 -19 2.57352 14.1100   3
 -19   3  -3 4.45589 11.4588   1
 -19  -3  -3-2.10548 11.6224   1
  19   3  -3 1.74357 7.84466   3
   3  19   3-8.24294 11.0397   1
  -5  -1 -19 4523.20 155.385   3
  -5   1 -19 4317.78 155.251   3
   1   5 -19 4385.64 156.945   3
 -19   5  -1 4308.89 152.982   1
 -19   1  -5 4211.69 154.312   1
   5  19  -1 4429.34 154.872   1
  -1   5 -19 4415.43 156.747   3
   5  19   1 4433.17 154.740   1
 -19  -1  -5 4404.77 154.963   1
   5   1 -19 4388.53 157.314   3
   1  19   5 4446.16 153.354   1
  -1  19   5 4383.00 152.590   1
 -19   5   1 4301.40 152.306   1
  -3   5 -19 98.7453 16.9068   3
  -5   3 -19 111.980 14.2324   3
  19   3  -5 105.268 11.5095   3
 -19  -5  -3 103.941 15.4559   1
   3   5 -19 132.566 16.7757   3
  19  -3   5 97.7010 6.70005   3
 -19  -3  -5 82.4953 14.2937   1
  -5  -3 -19 117.186 14.0878   3
 -19   5   3 105.664 10.4137   1
   3  19   5 89.9979 12.5718   1
  -3  19   5 102.057 10.7883   1
   5  19   3 77.6063 13.7928   1
  -3 -19   5 80.1812 17.5035   3
  19   5  -5 2.31846 9.24169   3
  -5 -19   5 35.3508 16.2339   3
 -19  -5  -5 7.03633 10.7828   1
  -5   5 -19 36.7258 14.3055   3
   5  19   5 5.57560 11.7905   1
  -5  19   5 8.43461 7.90127   1
  -7  -1 -19 8818.78 307.098   3
  -7   1 -19 9034.69 307.427   3
   7  19  -1 9030.37 307.549   1
 -19   7  -1 8550.03 305.139   1
  -1  19   7 8951.65 304.747   1
   7  19   1 8712.55 307.198   1
 -19   7   1 9023.61 304.461   1
   1   7 -19 8813.97 309.577   3
 -19  -1  -7 8825.46 307.509   1
  -1 -19   7 8761.44 309.570   3
   1  19   7 9113.82 305.485   1
  -1   7 -19 9034.40 309.520   3
  -3   7 -19 1630.46 62.3205   3
   3   7 -19 1586.15 63.2326   3
   7  19  -3 1543.40 59.7971   1
  -7 -19   3 1512.58 60.9793   3
 -19  -3  -7 1455.78 59.8765   1
  -7   3 -19 1563.33 59.9384   3
  -3  19   7 1507.86 56.1149   1
  -7  -3 -19 1608.70 59.6931   3
   7  19   3 1582.66 60.0938   1
  -3 -19   7 1517.81 62.1177   3
 -19   7   3 1508.90 55.7922   1
  19   3  -7 1482.52 57.6767   3
 -19  -7  -5 2642.40 94.8042   1
   7  19   5 2574.70 94.1039   1
  -5 -19   7 2561.38 95.8268   3
  19   5  -7 2496.20 91.9052   3
  19  -5   7 2530.29 89.0368   3
  -7 -19   5 2515.32 95.5173   3
  -7  19   5 2573.55 89.4969   1
  -5  19   7 2549.64 89.6130   1
 -19  -5  -7 2541.73 94.6225   1
   7   7 -19 9.65988 17.1874   3
  19  -7   7 11.2242 7.84265   3
  -7 -19   7-6.87846 15.2176   3
 -19  -7  -7 1.74456 13.1934   1
  19   7  -7-5.20218 11.9866   1
  19   7  -7 10.0748 10.4755   3
   9   1 -19 466.779 28.7169   3
 -19   9   1 467.606 20.2300   1
 -19  -1  -9 444.998 25.5344   1
   9  19  -1 421.449 23.9358   1
  -9 -19   1 452.801 25.5687   3
   9  19   1 421.114 24.8446   1
  -9   1 -19 392.147 22.7217   3
  -1 -19   9 446.860 27.5786   3
   1   9 -19 403.829 26.0445   3
  -9  -1 -19 445.100 23.2110   3
  -3 -19   9 5080.89 188.835   3
   9  19  -3 5449.95 187.376   1
  19   3  -9 5276.56 185.538   3
   3  -9 -19 5547.59 182.741   1
   3   9 -19 5255.26 189.165   3
   3 -19   9 5045.88 189.022   3
  -9 -19   3 5089.51 187.036   3
 -19   9   3 5249.56 182.228   1
  -9  -3 -19 5525.17 185.770   3
   9  19   3 5440.17 187.164   1
   9   3 -19 5289.44 189.309   3
 -19  -3  -9 5052.26 186.991   1
   9   5 -19 3839.09 143.557   3
   9  19  -5 4039.85 142.389   1
 -19  -5  -9 3917.47 142.428   1
  19   5  -9 4095.70 140.566   3
   9  19   5 3964.54 141.846   1
  -5 -19   9 3650.47 142.782   3
   5  -9 -19 3843.96 136.163   1
  -9 -19   5 3997.33 142.601   3
   5 -19   9 4057.97 144.862   3
  -9  19   5 3985.23 136.248   1
  19   5  -9 4035.63 140.276   1
  -9  -5 -19 4123.90 140.570   3
 -19  -9  -7 16502.6 545.979   1
  -9 -19   7 16366.2 546.522   3
  -7  -9 -19 16676.3 544.708   1
  19   7  -9 17257.0 544.278   3
  19  -9   7 17021.6 542.800   3
   9  -7 -19 14786.6 538.002   1
 -19  -7  -9 16700.1 546.331   1
   7  -9 -19 15637.3 538.148   1
  -7 -19   9 16431.0 547.245   3
   9   7 -19 16168.0 547.872   3
   7 -19   9 17012.9 548.256   3
  19   9  -7 16996.8 545.317   1
  19  -7   9 16581.9 541.337   3
  19   7  -9 16986.8 544.651   1
   7   9 -19 16461.3 548.154   3
  -9 -19   9 24.2150 13.3400   3
  19  -9   9 6.41486 8.27352   3
   9   9 -19 2.30739 17.1428   3
   9 -19   9 12.4618 13.2088   3
  -9  -9 -19-6.01679 12.2837   1
  19   9  -9 10.7813 11.1537   1
  11  19  -1 1711.26 66.5330   1
   1 -11 -19 1679.70 61.6512   1
  11  19   1 1736.67 66.8727   1
 -11 -19  -1 1692.28 65.0333   3
  -1 -19  11 1612.67 68.3324   3
 -19  11   1 1744.87 61.6856   1
 -11  -1 -19 1683.43 63.6253   3
  -1 -11 -19 1715.79 62.6283   1
  11   1 -19 1579.90 68.0531   3
 -11 -19   1 1686.74 65.3217   3
   3 -11 -19 2624.72 88.5305   1
  11  19   3 2521.27 94.2302   1
  -3 -19  11 2310.72 95.4125   3
 -11 -19   3 2354.40 93.1525   3
  11   3 -19 2625.50 96.6557   3
   3 -19  11 2522.59 96.5529   3
 -19  -3 -11 2523.62 94.5893   1
  11  19  -3 2681.84 94.6141   1
  -3 -11 -19 2563.43 91.3414   1
 -19  11   3 2485.35 88.1857   1
 -11  -3 -19 2501.60 91.3318   3
  19   3 -11 2450.06 92.9475   3
  -5 -19  11 32.5360 16.2976   3
   5 -19  11 1.15582 14.9248   3
  19   5 -11 21.0064 12.2088   3
 -11 -19   5 10.0486 12.8196   3
  -5 -11 -19 2.83364 9.86645   1
  19   5 -11 2.06118 9.99969   1
  19  11  -5 24.9019 14.0049   1
  11  19  -5-0.95728 14.0683   1
 -11  -5 -19 16.7526 10.2012   3
 -19  -5 -11 6.82468 12.7295   1
  11   5 -19 2.23406 16.2028   3
 -11  19   5 13.4724 4.40158   1
  -7 -19  11 3025.63 117.015   3
   7 -19  11 3108.94 117.902   3
 -11 -19   7 3199.31 116.030   3
  19   7 -11 3234.81 114.680   3
  -7 -11 -19 3153.03 113.931   1
  19   7 -11 3109.67 113.561   1
  19  11  -7 3062.53 114.706   1
  11   7 -19 3136.30 117.666   3
 -11  -7 -19 3253.79 112.593   3
  19  11  -9 33.0246 11.0992   1
   9 -19  11 50.2626 17.1556   3
  -9 -19  11 40.0817 15.7170   3
  -9 -11 -19 34.9150 11.8808   1
  19   9 -11 54.6652 12.7151   1
  11   9 -19 16.7069 13.3071   3
  11 -19   9 5.79218 15.6363   3
 -11 -19   9 28.8388 13.8013   3
  19  -9  11 22.6088 8.13385   3
  19 -11   9 26.3609 9.90679   3
   9  11 -19 33.7474 17.0433   3
 -11  -9 -19 41.6042 13.7509   1
 -11 -11 -19 18.2888 10.9270   1
  19  11 -11 20.7181 11.0177   1
  19 -11  11 11.6646 9.51468   3
  11 -19  11 26.7912 13.0359   3
  11  11 -19 9.93971 14.2305   3
  13   1 -19 409.633 26.7055   3
  13  19  -1 423.014 25.3474   1
  19   1 -13 427.748 25.2729   3
   1 -13 -19 397.049 18.3908   1
  13  19   1 422.225 25.0649   1
 -13 -19  -1 408.336 22.4358   3
 -13 -19   1 368.717 22.4503   3
  -1 -13 -19 441.438 19.7732   1
 -13 -19  -3 6513.08 228.789   3
  -3 -19  13 6318.87 233.116   3
  19   3 -13 6647.76 227.959   1
  -3 -13 -19 6696.42 228.105   1
 -19  -3 -13 6795.64 232.431   1
  13  19  -3 6558.51 231.565   1
   3 -19  13 6715.89 233.999   3
  13   3 -19 6700.83 233.323   3
 -13 -19   3 6304.29 229.751   3
 -19  13   3 6362.47 224.614   1
  13  -3 -19 6779.14 224.798   1
  19   3 -13 6699.68 231.014   3
  13   5 -19 261.196 22.2315   3
  19   5 -13 282.023 19.8171   3
 -13  -5 -19 318.494 16.0405   3
  19  13  -5 274.989 19.5730   1
  19   5 -13 299.322 17.4983   1
   5 -19  13 275.401 23.2847   3
 -13  19   5 234.713 10.0305   1
 -13 -19  -5 293.823 17.4275   3
 -13 -19   5 291.974 19.5663   3
  -5 -19  13 342.606 22.7012   3
  -5 -13 -19 295.034 17.2658   1
 -13 -19   7 4368.09 158.979   3
  19   7 -13 4408.03 158.687   3
  19   7 -13 4610.62 157.450   1
  -7 -19  13 4402.91 161.053   3
  -7 -13 -19 4487.40 157.292   1
 -13  -7 -19 4323.07 154.440   3
   7 -19  13 4516.42 161.739   3
  13   7 -19 4385.82 161.043   3
  19  13  -7 4449.70 159.164   1
  -9 -13 -19 7679.29 268.753   1
  13 -19   9 7458.25 271.414   3
 -13  -9 -19 7540.39 270.024   1
  19   9 -13 7673.75 269.557   3
  19   9 -13 7895.73 268.937   1
  13   9 -19 7650.06 272.095   3
  19  13  -9 7634.21 269.866   1
  19 -13   9 7856.31 268.429   3
  13  19  -9 7796.72 270.920   1
 -13  -9 -19 7860.91 265.497   3
   9 -19  13 7654.17 272.289   3
  19  11 -13 4112.46 150.084   1
  19 -11  13 4159.53 147.963   3
 -11 -13 -19 4007.29 149.883   1
  11 -19  13 4275.69 153.330   3
  13 -19  11 4355.69 153.158   3
  19  13 -11 4272.42 151.022   1
 -13 -11 -19 4281.46 146.457   3
  19 -13  11 4137.11 148.854   3
 -19  11  13 4177.07 143.920   2
  13  11 -19 3944.76 152.363   3
 -19  13  13 5.16068 10.1072   2
  19 -13  13 1.76901 9.20129   3
  19  13 -13-7.60005 11.4538   1
 -13  19  13-4.50702 8.30591   4
  15   1 -19 1194.99 43.6039   1
 -15 -19   1 1143.29 45.9545   3
  15  -1 -19 1113.25 42.0577   1
  15  19  -1 1054.49 47.9925   1
  15   1 -19 1117.10 50.5342   3
  15  19   1 1111.23 48.4630   1
  19   1 -15 1100.41 48.6780   3
 -15 -19  -1 1098.27 44.9383   3
   1 -19  15 1166.81 51.8562   3
  19  15  -3 28.6747 12.7148   1
 -15 -19   3 45.8418 11.4080   3
 -15 -19  -3 41.5247 9.96414   3
   3 -19  15 37.5455 17.9539   3
 -19  15   3 51.3528 5.49197   1
  19   3 -15 47.2656 13.5635   3
  15   3 -19 45.7307 14.2552   3
  19   3 -15 66.9151 10.5820   1
  15  -3 -19 54.2320 5.79867   1
  -5 -15 -19 108.980 12.0454   1
  19   5 -15 131.332 16.0349   3
  15   5 -19 86.7576 17.8000   3
  19   5 -15 101.775 12.3046   1
  19  15  -5 111.283 16.6419   1
 -15 -19  -5 102.871 11.5194   3
  15   7 -19 42.5098 16.8878   3
  19  15  -7 38.1841 14.5322   1
  19   7 -15 37.8387 14.4273   3
 -15 -19  -7 44.2339 9.71842   3
  -7 -15 -19 63.9051 11.9498   1
  19   7 -15 53.2200 11.3284   1
  19 -15   9 66.0950 12.4339   3
  -9 -15 -19 76.3947 12.8540   1
 -15 -19  -9 61.8023 9.23643   3
  15 -19   9 112.754 16.7352   3
  19  15  -9 64.9144 14.1483   1
  -9  19  15 72.6235 9.49596   4
 -19   9  15 78.9007 10.2943   2
  19   9 -15 44.1018 11.7774   1
  15   9 -19 88.7322 16.4839   3
  19   9 -15 39.0775 14.3572   3
 -11  19  15 873.436 33.8046   4
  19 -15  11 877.817 39.3244   3
  19  11 -15 820.863 39.2718   1
 -15  11  19 913.179 34.0310   2
 -19  11  15 925.951 34.4026   2
 -15  13  19 726.241 28.7323   2
  19 -13  15 724.664 33.1960   3
 -19  15  13 740.217 29.2884   2
 -19  13  15 711.095 29.2882   2
 -13  19  15 705.359 28.4924   2
  19 -15  13 674.144 33.4182   3
 -13  15  19 752.052 28.4424   2
 -15  15  19 14.4240 9.65448   2
 -19  15  15 4.22643 10.4602   2
 -15  19  15-0.66114 9.71474   2
  19   1 -17 4623.35 159.675   1
  -1  19  17 4426.20 157.137   4
  19   1 -17 4741.53 166.232   3
  17  -1 -19 4617.63 158.247   1
  17   1 -19 4667.41 159.549   1
  17   1 -19 4671.01 166.567   3
 -17 -19  -1 4559.42 160.579   3
  17   3 -19 4124.57 155.764   3
  19   3 -17 4174.48 155.316   3
  17   3 -19 4491.89 150.751   1
  -3  19  17 4171.04 147.089   4
  -3  17  19 4345.84 147.120   4
 -17 -19  -3 4214.53 149.579   3
  19   3 -17 4359.39 150.644   1
  17   5 -19 1069.20 43.7324   1
 -19   5  17 1105.27 40.0244   2
  19   5 -17 1086.84 43.7751   1
  19   5 -17 924.230 46.3926   3
  17   5 -19 1023.93 48.4707   3
 -17   5  19 1092.78 40.0314   2
  -7  19  17 135.436 11.7517   4
  19   7 -17 186.453 19.4603   3
  17   7 -19 160.322 14.7525   1
  19   7 -17 165.844 15.2440   1
  17   7 -19 148.719 18.8464   3
 -19   7  17 175.657 12.8073   2
 -17   7  19 191.406 13.0634   2
 -17   9  19 5781.03 200.404   2
 -19   9  17 5983.21 200.611   2
   9  19  17 5871.29 199.925   4
  19   9 -17 5668.99 208.712   3
  19   9 -17 5776.23 206.263   1
  -9  19  17 5808.87 200.295   4
  17   9 -19 5967.33 206.658   1
  19 -17   9 5804.77 207.618   3
  11  19  17 2599.25 88.8040   4
  19  11 -17 2345.09 95.3750   1
 -17  11  19 2566.04 89.5017   2
  19 -17  11 2540.11 96.5323   3
  17  11 -19 2603.83 96.4768   1
 -19  11  17 2518.66 89.5650   2
 -17  13  19 944.913 37.8516   2
 -13  17  19 1050.57 37.5793   2
  13  19  17 990.231 36.7735   4
 -19  13  17 982.274 38.1926   2
 -13  19  17 1002.58 37.5042   2
 -19  15  17 6.56038 10.6495   2
 -15  17  19 9.85968 9.65580   2
  17  19  15 12.7578 7.58441   4
 -19  17  15 13.9917 10.5750   2
 -17  19  15 10.7315 10.6723   2
 -15  19  17 17.0634 10.0333   2
  15  19  17 8.32966 7.31355   4
 -17  15  19 5.67726 10.5349   2
 -17  17  19 11.0335 10.8120   2
 -19  17  17 1.89954 11.4353   2
 -17  19  17-1.84447 10.7750   2
  17  19  17 9.69366 6.98516   4
   1  19  19 15.3362 8.90183   4
  -1  19  19 0.60868 8.75269   4
  19  19  -3-3.53891 8.73639   4
  19   3 -19 9.57621 8.17046   1
  -3  19  19 9.92516 9.21704   4
   3  19  19-1.77467 8.97742   4
 -19   5  19-4.34782 9.81082   2
   5  19  19 25.5039 9.04597   4
  19  19  -5-0.61842 9.01884   4
  19   5 -19 0.79180 9.23183   1
  19   7 -19 13.5406 9.99008   1
  -7  19  19 0.96332 10.1890   4
   7  19  19 14.5155 8.42838   4
 -19   7  19 4.76797 10.1561   2
  19   9 -19-7.11685 10.1474   1
 -19   9  19 10.7634 10.4673   2
   9  19  19-7.47314 8.48160   4
 -11  19  19 1.48301 8.41463   2
 -19  11  19-9.31684 10.6107   2
  11  19  19 6.25770 8.29458   4
 -19  13  19 1.48196 10.5965   2
 -13  19  19 11.6467 9.25711   2
  13  19  19 3.93036 7.92124   4
 -19  19  15 2.30631 11.2898   2
  15  19  19 3.57121 7.35873   4
 -15  19  19-6.31558 10.0299   2
 -19  15  19 4.20881 10.9458   2
 -19  19  17 12.6361 11.6804   2
 -19  17  19-10.2640 11.9610   2
 -17  19  19-6.05672 11.0667   2
 -19  19  19 18.6973 11.7275   2
 -20   0   0 56311.4 1862.00   1
   0   0 -20 57725.3 1865.29   3
  20   0   0 54059.9 1857.85   3
   0   2 -20 402.646 25.1046   3
 -20   2   0 436.637 21.2863   1
 -20   0  -2 377.490 21.7355   1
   2   0 -20 417.150 27.1896   3
   0  20   2 409.702 21.6727   1
  -2   0 -20 367.238 24.4345   3
 -20  -2   0 420.536 22.2798   1
  -2  -2 -20 499.442 27.7080   3
   2  20   2 450.688 24.6106   1
 -20   2   2 506.610 23.3427   1
 -20  -2  -2 486.980 25.4025   1
  -2   2 -20 472.405 28.0751   3
   2   2 -20 497.678 28.4538   3
  20   2  -2 486.405 20.1359   3
 -20   2  -2 493.543 24.2520   1
   0  20   4 10925.6 380.425   1
 -20   4   0 10843.1 380.121   1
   4  20   0 11159.8 381.900   1
   0   4 -20 11151.9 384.393   3
  -4   0 -20 11437.8 383.427   3
   4   0 -20 11245.3 384.839   3
 -20   0  -4 11299.6 381.961   1
  20   2  -4 1268.50 48.3905   3
 -20   4  -2 1264.98 50.3675   1
  -2   4 -20 1308.50 53.8218   3
 -20  -4  -2 1321.41 52.2336   1
 -20   2  -4 1361.40 51.6714   1
   4   2 -20 1308.24 55.2360   3
  -2  20   4 1315.30 49.8538   1
  -4   2 -20 1389.17 53.7102   3
  -4  -2 -20 1334.44 53.1266   3
   2  20   4 1313.32 50.9575   1
 -20   4   2 1263.68 49.2034   1
   2   4 -20 1278.51 54.7109   3
 -20  -2  -4 1267.88 51.6531   1
   4  20   2 1317.75 51.5247   1
 -20   4  -4 4387.23 154.973   1
  -4  20   4 4326.98 152.670   1
   4  20   4 4261.30 154.805   1
 -20  -4  -4 4440.10 156.032   1
  -4   4 -20 4567.50 157.502   3
  20   4  -4 4446.83 152.007   3
   4   4 -20 4307.86 158.093   3
 -20   6   0 15708.9 536.013   1
  -6   0 -20 15881.7 538.862   3
   0  20   6 15735.5 536.284   1
   0   6 -20 15801.8 540.694   3
   6  20   0 15974.5 538.529   1
 -20   0  -6 15400.1 538.251   1
  20   2  -6 45.6279 10.9547   3
  -6   2 -20 42.0322 12.2780   3
   2  20   6 26.1515 10.9917   1
  -2  20   6 42.3964 9.28351   1
 -20   6   2 22.2267 8.69735   1
 -20   2  -6 28.6478 12.0117   1
 -20   6  -2 14.3323 10.4704   1
   6  20  -2 38.1413 13.8315   1
 -20  -2  -6 40.8337 12.8464   1
   2   6 -20 22.9038 16.9968   3
  -6  -2 -20 37.5336 12.0113   3
  -2 -20   6 15.3975 13.6013   3
   6  20   2 15.4309 11.8974   1
  -2   6 -20 14.8219 15.8916   3
  20   4  -6 1683.87 60.5329   3
   6  20   4 1725.38 63.2163   1
  -6  -4 -20 1828.78 63.9880   3
  -4 -20   6 1669.10 65.9286   3
 -20  -6  -4 1494.22 62.9324   1
  20  -4   6 1531.67 56.6886   3
  -6 -20   4 1564.43 64.8116   3
   4   6 -20 1590.62 65.5797   3
  -6  20   4 1617.29 59.1430   1
  -6   4 -20 1708.05 64.3285   3
 -20  -4  -6 1659.70 63.8573   1
  -4  20   6 1663.27 59.4189   1
  -4   6 -20 1690.87 65.1728   3
   4  20   6 1621.32 62.0408   1
  -6  20   6 3673.82 130.272   1
  -6 -20   6 3888.60 137.136   3
 -20  -6  -6 3781.13 135.499   1
  20  -6   6 3679.56 130.173   3
   6  20   6 3771.53 134.316   1
  20   6  -6 3889.43 131.982   3
 -20   0  -8 2669.39 97.9236   1
   8  20   0 2735.58 97.7468   1
   0 -20   8 2615.54 99.9983   3
  -8   0 -20 2761.07 97.2175   3
   0   8 -20 2505.17 99.3675   3
 -20   8   0 2563.75 94.1547   1
 -20  -2  -8 567.451 29.4759   1
  -2 -20   8 578.042 32.2902   3
  -8 -20   2 534.830 28.7753   3
  -8   2 -20 529.441 27.3970   3
  20   2  -8 502.583 26.4165   3
 -20   8   2 582.983 24.0348   1
   8  20   2 582.140 29.0678   1
   8  20  -2 591.192 28.8453   1
   2   8 -20 557.675 31.9946   3
  -8  -2 -20 580.077 27.5762   3
  -4 -20   8 154.340 19.7130   3
 -20  -4  -8 133.337 15.1189   1
  20   4  -8 155.721 14.0662   3
  -8  -4 -20 199.300 15.7915   3
   8   4 -20 129.464 18.2379   3
   8  20   4 139.938 16.5952   1
   4 -20   8 136.499 17.3941   3
  -8 -20   4 151.054 16.2639   3
   8  20  -4 148.472 17.9356   1
  -8  20   4 146.772 10.0629   1
  -8  -6 -20 5071.93 172.247   3
 -20  -8  -6 4786.52 172.803   1
  20  -6   8 4751.08 167.477   3
  -6 -20   8 4969.27 174.822   3
  20   6  -8 4943.10 170.770   3
  -8  20   6 4833.57 167.120   1
  -8 -20   6 4838.26 174.155   3
   8   6 -20 4955.41 175.343   3
 -20  -6  -8 4944.12 173.354   1
  -8 -20   8 614.172 31.6728   3
 -20  -8  -8 529.613 29.4877   1
   8   8 -20 512.816 30.2436   3
   8  -8 -20 547.374 20.5040   1
  20   8  -8 596.356 28.2039   1
  20  -8   8 604.152 24.5378   3
   0 -10 -20 1547.78 56.0541   1
  10  20   0 1513.06 59.6936   1
 -20  10   0 1467.89 55.6807   1
 -10   0 -20 1506.57 58.0928   3
 -10 -20   0 1489.56 59.4362   3
   0 -20  10 1422.95 61.3706   3
  10   2 -20 17.0964 13.9545   3
  10  20  -2 30.7924 14.6735   1
 -20  10   2 33.1153 7.21544   1
 -10 -20   2 33.5519 12.8435   3
  10  20   2 13.7568 14.3510   1
   2 -10 -20 28.4776 7.16001   1
  -2 -10 -20 5.58145 8.21939   1
 -20  -2 -10 5.78322 14.2025   1
 -10  -2 -20 30.3206 11.5733   3
  20   2 -10 24.7728 12.0298   3
  -2 -20  10 36.8648 16.7734   3
 -10 -20   4 362.518 23.4440   3
  -4 -10 -20 326.313 19.6463   1
   4 -20  10 374.541 26.1531   3
  10  20  -4 399.200 24.2061   1
  10   4 -20 338.226 25.9935   3
 -10  20   4 343.714 15.8315   1
 -20  -4 -10 395.709 24.2512   1
   4 -10 -20 366.338 16.1727   1
  20   4 -10 360.339 21.4011   3
  10  20   4 364.366 22.2770   1
  -4 -20  10 342.542 24.7782   3
 -10  -4 -20 380.985 21.0271   3
  -6 -20  10 463.107 27.7619   3
   6 -20  10 431.053 27.4289   3
  20   6 -10 406.118 22.0288   1
   6 -10 -20 388.189 15.7746   1
  20   6 -10 422.695 22.5549   3
 -10  20   6 398.554 15.9144   1
 -10 -20   6 444.362 25.8607   3
  10   6 -20 357.164 26.9091   3
 -10  -6 -20 413.098 21.9113   3
  -6 -10 -20 441.617 22.6222   1
  20  10  -6 381.752 23.5419   1
 -20  -6 -10 376.049 23.0016   1
  10  20  -6 431.129 25.9530   1
  20  10  -8 390.357 23.0225   1
 -10  -8 -20 349.187 20.1861   3
  -8 -20  10 359.673 25.4001   3
  20  -8  10 349.818 17.2397   3
  20 -10   8 352.102 18.6629   3
   8  10 -20 394.747 27.0973   3
  20   8 -10 357.312 20.8793   1
 -20  -8 -10 348.891 23.3041   1
 -20 -10  -8 333.535 21.7643   1
  -8 -10 -20 317.620 21.2654   1
  10   8 -20 357.033 24.7420   3
   8 -20  10 388.924 26.8764   3
  20   8 -10 332.562 20.7712   3
 -10 -20   8 333.446 22.6479   3
  20  10 -10 400.440 22.5434   1
  10 -20  10 373.831 26.0443   3
 -10 -10 -20 388.378 23.3395   1
 -10 -20  10 404.457 25.9315   3
  20 -10  10 358.267 19.1198   3
  10  10 -20 317.171 25.5108   3
 -12 -20   0 205.379 16.8978   3
   0 -12 -20 195.341 12.1543   1
  12  20   0 190.979 16.9891   1
  -2 -20  12 3758.61 141.941   3
  12   2 -20 3839.95 141.937   3
 -12 -20  -2 3970.41 138.265   3
  20   2 -12 3955.33 139.142   3
   2 -12 -20 4022.75 134.471   1
  12  20  -2 3900.70 140.162   1
  12  20   2 3759.23 139.632   1
 -12 -20   2 3822.29 138.871   3
   2 -20  12 3760.28 142.264   3
 -20  12   2 3715.20 133.900   1
 -12  -2 -20 3845.30 136.549   3
 -20  -2 -12 3901.01 140.745   1
  -2 -12 -20 3909.02 136.224   1
  -4 -12 -20 105.835 11.9488   1
 -12  -4 -20 110.837 11.5836   3
  20   4 -12 97.9046 14.4719   3
  12   4 -20 105.536 17.9466   3
 -20  -4 -12 85.5622 16.4627   1
  20   4 -12 93.7047 11.5626   1
  -4 -20  12 62.2655 18.0058   3
   4 -20  12 120.682 19.6660   3
  12  20  -4 117.488 16.1400   1
 -12 -20   4 114.473 14.5035   3
  12  -4 -20 99.8152 7.13238   1
  -6 -20  12 5331.75 198.930   3
  20   6 -12 5594.64 194.879   1
   6 -20  12 5629.91 199.502   3
 -20  -6 -12 5277.17 197.410   1
  12   6 -20 5672.52 199.576   3
  -6 -12 -20 5610.30 195.018   1
  20   6 -12 5680.28 196.231   3
  20  12  -6 5688.90 197.152   1
 -12  -6 -20 5528.71 193.346   3
 -12 -20   6 5528.57 197.220   3
 -12  -8 -20 942.175 36.4172   3
  -8 -20  12 786.580 40.9491   3
  20   8 -12 820.430 38.6117   3
  20   8 -12 871.329 38.1430   1
  20 -12   8 880.954 37.2411   3
  -8 -12 -20 897.868 38.5950   1
 -12  -8 -20 914.755 40.6924   1
  20  12  -8 873.773 39.9059   1
   8 -20  12 875.408 42.6850   3
  12   8 -20 843.636 41.6338   3
 -12 -20   8 890.483 40.7819   3
  12  10 -20 127.205 19.4236   3
  20 -10  12 115.291 10.9671   3
  20  12 -10 98.0413 15.6536   1
  20 -12  10 107.044 12.1310   3
  12 -20  10 115.972 17.8916   3
 -10 -12 -20 121.951 14.9811   1
 -12 -10 -20 87.4943 11.4899   3
  20  10 -12 129.647 14.8979   1
 -12 -10 -20 99.8730 14.8937   1
  20 -12  12 9580.43 338.116   3
 -20  12  12 9939.25 334.014   2
  20  12 -12 9735.41 340.756   1
  14  20   0 11381.7 384.370   1
 -14 -20   0 10871.7 381.361   3
  14  -2 -20 692.385 26.6250   1
  -2 -14 -20 686.670 28.9350   1
 -14 -20   2 647.861 31.4126   3
  14   2 -20 684.439 36.3259   3
  20   2 -14 652.582 32.9129   3
 -20  14   2 665.038 26.3805   1
 -14 -20  -2 690.771 30.9276   3
  14  20  -2 651.509 32.7508   1
  14  20   2 625.146 32.4930   1
 -14  20   4 793.352 29.4486   1
 -14 -20   4 930.171 37.8836   3
  20   4 -14 917.012 38.9304   3
  -4 -14 -20 845.335 34.8365   1
  14  -4 -20 756.696 29.0692   1
  14   4 -20 869.407 40.9392   3
  20   4 -14 887.309 35.1504   1
 -14 -20  -4 923.098 35.8449   3
 -14  -6 -20 2492.45 90.2006   3
 -14 -20  -6 2439.00 92.0246   3
  14   6 -20 2426.46 97.1186   3
  20  14  -6 2609.43 95.9962   1
  20   6 -14 2653.89 93.3567   1
  20   6 -14 2573.02 95.6264   3
  -6 -14 -20 2524.94 93.1177   1
 -14 -20   6 2557.42 95.2506   3
  20   8 -14 2173.61 79.3386   1
  20  14  -8 2026.07 80.4880   1
  20   8 -14 2114.71 80.7515   3
  -8 -14 -20 2100.63 79.1019   1
  -8  20  14 2117.79 73.4384   4
  14   8 -20 2030.19 83.0116   3
 -14  -8 -20 1994.66 75.1042   3
  20 -14   8 2113.36 79.0857   3
  20  10 -14 2287.48 85.3061   1
  20 -14  10 2242.46 84.2834   3
 -10  20  14 2186.30 78.7615   4
 -20  10  14 2268.48 79.0946   2
 -10 -14 -20 2277.94 85.3396   1
 -14  10  20 2243.40 78.7804   2
  20  12 -14 1631.11 67.4082   1
 -14  20  12 1716.77 60.5060   4
 -14  12  20 1736.50 60.7576   2
 -12  20  14 1755.41 60.7238   4
  20 -14  12 1576.64 65.5273   3
 -20  12  14 1648.22 61.1030   2
 -20  14  14 1766.85 65.0726   2
 -14  14  20 1840.36 64.5974   2
  14  20  14 1814.71 63.9829   4
  16   0 -20 220.013 13.0087   1
 -16 -20   0 249.528 16.7201   3
   0  20  16 207.026 13.5003   4
  16   0 -20 265.861 22.4502   3
  20   0 -16 218.859 19.7565   3
 -16 -20   2 1065.03 44.9713   3
  16   2 -20 1073.58 42.7024   1
  16   2 -20 1095.80 49.8972   3
 -16 -20  -2 1072.00 43.5942   3
  16  -2 -20 1037.73 39.8474   1
 -20   2  16 1078.07 40.5262   2
  20   2 -16 1106.26 48.0717   3
   2  20  16 1121.63 40.2522   4
  -2  20  16 1093.10 40.2522   4
  -2  16  20 1127.63 40.2196   4
  20   4 -16 3762.34 137.140   3
   4  20  16 3733.40 128.767   4
  16   4 -20 3628.77 138.415   3
 -16 -20  -4 3653.38 132.035   3
  16   4 -20 3831.23 132.913   1
  20   4 -16 3760.88 132.906   1
  20   6 -16 286.753 18.1820   1
  -6  20  16 274.021 14.6434   4
   6  20  16 280.264 14.5639   4
  20   6 -16 255.637 20.8439   3
 -16   6  20 259.353 15.1835   2
  16  20  -6 272.425 14.8483   4
   8  20  16 1003.72 36.5999   4
  20 -16   8 900.419 42.2842   3
 -20   8  16 976.277 37.3467   2
  -8  20  16 978.073 37.1330   4
 -16   8  20 981.651 37.0887   2
  20   8 -16 938.327 44.0927   3
  -8 -16 -20 1014.39 42.4046   1
  20   8 -16 985.974 42.2656   1
 -20  10  16 43.0912 10.6934   2
 -16  10  20 59.8055 10.1526   2
  10  20  16 46.6571 8.76516   4
  20 -16  10 42.2157 10.9090   3
 -10  20  16 60.1336 9.79756   4
  20  10 -16 30.7807 10.7032   1
 -12  20  16 27.6548 9.16863   2
 -16  12  20 26.2580 10.4089   2
  12  20  16 23.2375 8.42509   4
 -20  12  16 45.4536 11.4129   2
  16  20  12 26.1756 7.76515   4
 -12  16  20 20.1569 8.90108   2
 -16  14  20 893.972 34.3353   2
 -14  16  20 856.814 33.8298   2
  14  20  16 869.605 33.1103   4
  16  20  14 892.651 33.0207   4
 -14  20  16 859.452 33.8118   2
 -20  14  16 913.174 34.6391   2
 -20  16  14 868.092 34.7263   2
  16  20  16 4282.96 149.077   4
 -16  16  20 4399.22 150.115   2
 -16  20  16 4266.45 150.013   2
 -20  16  16 4444.80 150.438   2
  20   0 -18 2643.48 101.913   3
   0  18  20 2734.44 92.4710   4
   0  20  18 2557.32 92.3291   4
  20   2 -18 125.450 18.5455   3
   2  20  18 116.954 11.4291   4
  18  20  -2 102.959 10.4746   4
  -2  20  18 115.807 11.5857   4
  -2  18  20 111.454 10.8373   4
   2  18  20 122.782 11.2287   4
   4  20  18 465.639 19.9638   4
  -4  18  20 475.366 20.3385   4
  18  20  -4 451.768 20.0684   4
  20  18  -4 436.773 19.7210   4
  20   4 -18 476.442 22.8477   1
   4  18  20 434.662 19.7162   4
  18   4 -20 416.496 22.4174   1
   6  18  20 880.993 33.0630   4
  18   6 -20 901.174 37.9621   1
  20   6 -18 869.759 37.7404   1
 -18   6  20 843.571 33.7074   2
  18  20  -6 867.245 33.6527   4
   6  20  18 879.383 33.1748   4
 -20   6  18 856.303 33.8189   2
  -8  20  18 2264.13 79.6896   4
 -20   8  18 2180.72 79.8924   2
  18   8 -20 2185.30 85.0807   1
 -18   8  20 2282.60 79.8705   2
   8  18  20 2316.71 79.1523   4
   8  20  18 2268.25 79.2660   4
  20   8 -18 2187.96 85.0605   1
 -20  10  18 2564.12 90.7445   2
 -10  18  20 2576.43 89.8155   2
 -18  10  20 2653.39 90.8351   2
 -10  20  18 2543.78 89.8011   2
  10  20  18 2601.32 89.9934   4
  18  20  10 2507.32 89.5406   4
  10  18  20 2613.79 89.8818   4
  12  18  20 1470.11 52.6961   4
 -12  20  18 1446.65 53.0475   2
 -20  12  18 1460.83 53.9615   2
 -18  12  20 1464.83 53.8769   2
 -12  18  20 1501.91 53.1931   2
  18  20  12 1467.66 52.5090   4
  12  20  18 1471.56 52.8429   4
 -18  14  20 1910.11 67.5922   2
  14  18  20 1879.72 66.2166   4
 -14  20  18 1869.73 67.0720   2
  18  20  14 1879.29 66.1029   4
 -20  14  18 1888.55 67.7705   2
  14  20  18 1854.99 66.3720   4
 -20  18  14 1851.48 67.8388   2
 -14  18  20 1876.28 67.0869   2
 -20  16  18 57.8956 12.2222   2
 -20  18  16 52.2802 12.2539   2
  18  20  16 67.1325 8.39660   4
 -16  18  20 36.9873 10.7831   2
 -16  20  18 62.1754 11.4435   2
  16  20  18 53.6649 8.31150   4
 -18  20  16 52.9700 12.0739   2
 -18  16  20 57.7370 12.1735   2
 -18  18  20 2301.27 81.0159   2
 -20  18  18 2285.71 81.1733   2
 -18  20  18 2220.98 80.8034   2
  20  20   0 16692.0 567.555   4
   0  20  20 16812.7 567.853   4
   2  20  20 29.2520 10.0939   4
  20  20   2 31.6501 8.91682   4
  -2  20  20 28.4848 10.4916   4
  20  20  -2 21.3713 9.12896   4
   4  20  20 3467.22 119.204   4
  20  20  -4 3415.09 119.102   4
  -4  20  20 3432.13 119.361   4
  20  20   4 3426.32 118.676   4
 -20   6  20 4390.91 156.046   2
   6  20  20 4515.85 155.591   4
  20  20  -6 4594.19 155.869   4
  20  20   6 4551.89 155.078   4
 -20   8  20 1627.33 58.8312   2
   8  20  20 1630.04 58.0827   4
  20  20   8 1595.74 57.3426   4
 -10  20  20 322.651 15.2023   2
 -20  10  20 287.334 17.5227   2
  20  20  10 329.342 14.7660   4
  10  20  20 312.829 15.9717   4
  12  20  20 287.642 14.7161   4
 -20  12  20 256.682 16.7401   2
 -12  20  20 279.391 14.8997   2
 -20  14  20 545.774 24.8633   2
  14  20  20 590.744 23.0542   4
 -14  20  20 545.242 24.0139   2
 -20  20  14 525.225 24.9966   2
 -20  20  16 67.4292 12.3428   2
 -20  16  20 45.8939 12.3146   2
  16  20  20 49.8364 8.72353   4
 -16  20  20 44.4148 11.4964   2
 -20  20  18 153.610 14.7032   2
 -20  18  20 152.225 14.4516   2
 -18  20  20 165.854 14.8324   2
 -21   1  -1-0.67762 9.85588   1
  21   1  -1 3.51505 5.37142   3
 -21  -1  -1-7.76251 10.6590   1
  -1  -1 -21 6.87295 13.3579   3
  21  -1   1 6.85935 4.51741   3
  -1   1 -21 4.94708 15.1839   3
   1  -1 -21-1.02849 17.1084   3
   1   1 -21 3.06715 14.9558   3
 -21   1   1-0.62721 10.3290   1
   1  21   1 13.8146 11.2452   1
   1   3 -21 6493.79 232.275   3
  -3  -1 -21 6937.64 231.754   3
  -3   1 -21 6845.02 231.803   3
 -21  -3  -1 6418.08 229.090   1
 -21   1  -3 6576.68 229.220   1
 -21   3  -1 6663.36 228.445   1
  -1   3 -21 6756.49 232.210   3
   3  21   1 6783.53 229.595   1
 -21   3   1 6350.53 227.712   1
  21   1  -3 6495.69 225.808   3
 -21  -1  -3 6391.65 229.239   1
  -1  21   3 6627.76 228.216   1
   3   1 -21 6628.33 232.737   3
   1  21   3 6595.03 228.653   1
 -21  -3  -3-2.37563 12.1996   1
   3   3 -21-12.8659 16.6454   3
  -3  21   3 11.7862 8.46555   1
   3  21   3 2.15920 10.4371   1
 -21   3  -3 6.44580 9.80802   1
  -3   3 -21 7.90300 14.5540   3
  21   3  -3 4.46597 7.17802   3
  -3  -3 -21-24.8265 14.2655   3
  -5  -1 -21 375.451 22.4448   3
   1   5 -21 355.574 24.6543   3
   1  21   5 411.956 21.2653   1
  -5   1 -21 432.647 23.8077   3
  -1  21   5 375.101 19.7144   1
   5  21   1 366.920 22.3859   1
  21   1  -5 407.941 19.3705   3
 -21  -1  -5 389.097 22.3493   1
   5   1 -21 423.547 27.0319   3
   5  21  -1 407.316 23.2188   1
 -21   5   1 360.466 19.5648   1
 -21   1  -5 407.853 23.1322   1
 -21   5  -1 349.152 19.7657   1
  -1   5 -21 347.097 25.5514   3
 -21   5  -3 195.938 14.9859   1
   5  21   3 167.182 16.3492   1
   5   3 -21 218.489 20.6043   3
  -5  -3 -21 161.841 16.4088   3
  -3   5 -21 155.054 18.9461   3
  21   3  -5 144.378 12.1427   3
 -21   3  -5 157.184 15.1768   1
  -5   3 -21 198.349 18.1216   3
 -21  -3  -5 156.306 15.6453   1
 -21  -5  -3 159.511 15.5452   1
  -5  21   3 171.415 12.1813   1
   3   5 -21 174.399 20.4220   3
  -3  21   5 170.138 12.3402   1
   3  21   5 165.774 15.0548   1
  -3 -21   5 161.202 20.0153   3
  -5   5 -21 23.9070 14.7820   3
  21   5  -5 10.2694 8.29580   3
  -5 -21   5-15.8238 13.9924   3
   5   5 -21 11.3287 17.2736   3
  21  -5   5 5.64793 5.67455   3
 -21  -5  -5 24.5761 13.2778   1
  -5  21   5 15.9350 8.06563   1
   5  21   5 5.47361 10.7474   1
 -21   7  -1 368.630 19.3641   1
   1 -21   7 362.081 26.4607   3
  -1  21   7 381.843 19.2660   1
   7  21   1 375.479 21.7495   1
   1   7 -21 351.238 25.8195   3
 -21  -1  -7 400.532 22.2988   1
   1  21   7 368.384 19.7889   1
  -1   7 -21 354.403 25.8093   3
 -21   1  -7 328.912 22.4340   1
   7  21  -1 326.124 22.3396   1
 -21   7   1 352.535 18.3632   1
  -1 -21   7 328.097 24.3638   3
  -7  -1 -21 397.908 22.0890   3
  -7   1 -21 354.463 21.7363   3
  21   1  -7 376.935 19.6612   3
  -3 -21   7 528.561 31.2822   3
 -21   7  -3 570.068 26.5839   1
  -7  -3 -21 665.652 28.7740   3
  -7 -21   3 479.664 28.6405   3
  -3  21   7 550.246 23.8002   1
   7  21  -3 532.023 28.8548   1
  -3   7 -21 573.483 30.1771   3
 -21  -3  -7 542.940 28.0510   1
  -7   3 -21 540.177 27.8379   3
  21   3  -7 556.591 25.2878   3
 -21   7   3 541.235 23.5841   1
   7  21   3 563.124 28.2529   1
   3   7 -21 513.012 30.2515   3
  21   5  -7 19079.2 638.622   3
   7  21   5 19320.6 641.204   1
 -21  -5  -7 18827.4 641.759   1
  -5 -21   7 17790.6 642.894   3
  -5  21   7 19192.9 636.866   1
 -21  -7  -5 19149.7 641.720   1
  21  -5   7 18174.2 634.903   3
  -7 -21   5 18332.8 642.700   3
  -7  21   5 18992.5 636.692   1
  -7  -5 -21 19532.9 641.352   3
  21  -7   7-3.76736 6.47603   3
 -21  -7  -7-6.76222 13.1650   1
  -7 -21   7-8.85408 13.0477   3
 -21   9   1 1148.35 45.4690   1
  -1 -21   9 1135.13 52.1682   3
   9   1 -21 1129.40 51.9548   3
  -9  -1 -21 1193.17 48.7076   3
 -21   9  -1 1204.14 46.5401   1
  -9 -21   1 1218.88 50.6427   3
   9  21  -1 1257.62 50.5390   1
   1   9 -21 1182.57 52.5088   3
  21   1  -9 1232.19 48.3171   3
   9  21   1 1257.61 50.4625   1
  -9   1 -21 1165.21 48.7489   3
 -21   1  -9 1230.84 50.6099   1
 -21  -1  -9 1244.91 50.6482   1
  -3 -21   9 4841.83 177.442   3
   3  -9 -21 5049.17 170.570   1
   9  21   3 5093.15 175.393   1
  -9  -3 -21 4967.45 173.956   3
   9   3 -21 4879.08 177.512   3
  -9 -21   3 4797.31 175.544   3
 -21   9   3 4870.70 170.010   1
   3   9 -21 5029.02 178.195   3
   9  21  -3 4937.51 175.599   1
  21   3  -9 4818.61 173.146   3
 -21  -3  -9 4874.32 175.455   1
 -21  -5  -9 1444.93 58.1203   1
  21   5  -9 1440.32 56.0461   3
  -5 -21   9 1480.72 60.7787   3
  -9  21   5 1400.26 51.8132   1
   5  -9 -21 1431.43 51.9422   1
   5 -21   9 1469.37 61.5159   3
   9  21  -5 1475.36 59.1266   1
  -9 -21   5 1465.49 59.0238   3
  -9  -5 -21 1463.68 56.6177   3
   9   5 -21 1424.82 61.3013   3
   7 -21   9 7175.21 247.859   3
  21   7  -9 7108.01 242.742   3
  -7 -21   9 6861.69 246.495   3
   7   9 -21 6901.78 247.719   3
 -21  -7  -9 6911.90 245.302   1
  21  -7   9 7163.85 239.472   3
  -7  -9 -21 6972.53 243.911   1
  -9 -21   7 6677.05 245.826   3
   7  -9 -21 6762.48 237.251   1
 -21  -9  -7 7007.90 245.404   1
  21  -9   7 7201.54 241.124   3
  -9  -7 -21 7538.89 244.063   3
   9   7 -21 7102.41 247.728   3
  -9 -21   9 19.9484 15.0073   3
  21  -9   9 4.98267 7.09464   3
  -9  -9 -21-1.89960 10.5334   1
   9 -21   9-10.2031 12.5314   3
   9   9 -21 14.2341 16.7041   3
  21   9  -9 5.49615 10.6303   1
 -11 -21   1 322.509 21.1691   3
 -21  11  -1 337.021 17.7062   1
  11  21  -1 343.873 21.4924   1
  21   1 -11 298.333 20.4778   3
  -1 -21  11 309.944 23.0865   3
 -11 -21  -1 312.525 20.9265   3
 -11  -1 -21 314.958 18.9067   3
   1 -11 -21 335.289 16.5012   1
 -21  -1 -11 306.048 22.7412   1
  -1 -11 -21 310.109 16.9303   1
  11   1 -21 315.059 24.5839   3
 -21  11   1 312.539 16.3732   1
  11  21   1 301.909 21.9105   1
  11  21   3 22.1662 11.5581   1
   3 -21  11 28.1733 17.6696   3
  -3 -21  11 12.5149 13.1169   3
 -21  -3 -11 24.4440 14.5520   1
 -11  -3 -21 5.88664 9.75626   3
  -3 -11 -21 28.4777 8.93519   1
  21   3 -11 17.8550 11.7844   3
   3 -11 -21 23.4556 6.26506   1
  11  21  -3 29.0256 14.6756   1
 -11 -21   3 7.85550 11.9053   3
  11   3 -21 37.1526 14.8762   3
 -21  11   3 34.6438 6.53674   1
  11   5 -21 2257.92 89.0793   3
  11  21  -5 2387.94 87.4493   1
  21   5 -11 2468.32 85.5761   3
 -11  -5 -21 2352.18 83.8051   3
  -5 -21  11 2258.70 88.7365   3
 -11  21   5 2185.91 78.8576   1
   5 -21  11 2293.36 89.1582   3
   5 -11 -21 2141.26 78.7911   1
 -11 -21   5 2396.21 87.2834   3
  -5 -11 -21 2426.15 84.5703   1
 -21  -5 -11 2399.73 87.7062   1
 -11  -7 -21 7255.01 249.286   3
  -7 -11 -21 7114.58 250.452   1
  21 -11   7 7277.57 248.925   3
  21   7 -11 7419.46 250.567   1
  11  21  -7 7239.73 252.882   1
  11   7 -21 7057.47 254.563   3
  21   7 -11 7077.04 250.332   3
 -11 -21   7 7196.04 252.779   3
  21  11  -7 7178.24 251.702   1
  -7 -21  11 6873.33 253.777   3
  21  -9  11 48.2409 8.01657   3
 -11  -9 -21 61.1743 10.6682   3
  21 -11   9 49.4928 9.20865   3
  -9 -21  11 62.9904 15.4213   3
  21  11  -9 44.1492 13.0061   1
 -11  -9 -21 42.3020 11.3849   1
  21   9 -11 29.8784 11.3640   1
  -9 -11 -21 39.0400 11.7042   1
  11   9 -21 62.8129 15.7332   3
 -11 -21   9 53.1275 14.2240   3
  21 -11  11 9.10448 7.47524   3
 -11 -11 -21 3.13358 11.6734   1
  21  11 -11 14.3577 12.6419   1
   1 -13 -21 688.191 28.9629   1
  21   1 -13 786.912 35.3237   3
  13  21   1 718.170 34.8634   1
  13   1 -21 768.600 37.5380   3
 -13 -21  -1 703.180 33.0696   3
 -21  13   1 722.192 28.9067   1
 -13 -21   1 717.017 33.6399   3
  -1 -13 -21 706.072 30.0708   1
  13  21  -1 716.916 34.9515   1
  21   3 -13 129.992 16.0455   3
  13   3 -21 127.716 18.6952   3
 -13 -21   3 121.447 14.9496   3
  -3 -13 -21 128.648 11.6644   1
  13  21  -3 101.218 16.8437   1
 -21  13   3 142.176 8.50216   1
  13  -3 -21 123.925 8.60411   1
 -13 -21  -3 130.044 14.0002   3
  21   5 -13 21058.8 611.248   1
 -13  -5 -21 20915.9 609.507   3
  -5 -13 -21 21061.2 611.326   1
 -13 -21   5 20531.0 613.745   3
  21   5 -13 20969.8 613.492   3
 -13 -21  -5 20712.3 611.531   3
  13   5 -21 20987.5 617.243   3
  -7  21  13 2740.84 93.1228   4
 -13 -21   7 2630.60 100.726   3
  21   7 -13 2564.64 99.3259   3
  13  21  -7 2634.07 93.4109   4
  21  13  -7 2569.45 99.9492   1
  -7 -13 -21 2806.06 98.9285   1
  21 -13   7 2672.66 97.9543   3
 -13  -7 -21 2740.43 96.3317   3
  21   7 -13 2562.72 98.1712   1
  -9 -13 -21 5909.20 214.944   1
  21 -13   9 6027.57 213.830   3
  21   9 -13 6159.09 215.269   1
 -13  -9 -21 5919.46 211.904   3
  21  13  -9 5947.22 216.187   1
  -9  21  13 6338.79 209.014   4
  21  11 -13 5901.09 210.635   1
 -11  21  13 5923.67 203.505   4
  21 -13  11 5764.25 208.246   3
 -13  21  11 6106.56 203.452   4
 -13  11  21 5964.44 203.531   2
  11  21  13 6034.45 203.359   4
 -21  11  13 5764.36 203.846   2
 -13  21  13-2.42863 9.23002   4
 -13  13  21 4.60145 8.58716   2
 -21  13  13-2.09624 10.7519   2
  13  21  13 14.9978 8.49444   4
 -21  15   1 3235.19 122.189   1
  15  -1 -21 3537.27 122.512   1
 -15 -21   1 3522.15 126.804   3
  21   1 -15 3575.99 129.454   3
   1  21  15 3558.49 121.442   4
 -15 -21  -1 3519.52 126.195   3
  -1  21  15 3594.11 121.394   4
  15   1 -21 3485.33 123.701   1
 -21   1  15 3561.86 121.547   2
 -15 -21   3 1080.28 48.4554   3
   3  21  15 1160.27 43.1364   4
 -21   3  15 1215.26 43.4347   2
  -3 -15 -21 1151.34 46.3169   1
 -15 -21  -3 1183.26 47.4587   3
  21   3 -15 1265.28 51.4138   3
   5  21  15 407.983 18.3596   4
  21   5 -15 406.505 22.0464   1
 -15 -21   5 405.101 24.1004   3
  -5  21  15 399.263 18.5075   4
  15  21  -5 418.003 18.8487   4
 -15 -21  -5 397.828 21.3364   3
  21   5 -15 390.618 25.1053   3
  -5 -15 -21 424.191 21.9445   1
   7  21  15 1654.88 57.9442   4
  15  21  -7 1574.15 58.2348   4
  -7 -15 -21 1548.09 62.7984   1
  -7  21  15 1668.92 58.1982   4
  21   7 -15 1627.89 65.6893   3
  21   7 -15 1578.83 63.1123   1
  21 -15   9 164.387 14.9463   3
  21   9 -15 192.217 18.6010   3
  -9 -15 -21 187.570 15.6224   1
  21   9 -15 166.968 15.7104   1
 -15   9  21 194.330 12.6199   2
   9  21  15 188.672 12.1476   4
  -9  21  15 180.806 12.6424   4
 -21   9  15 212.003 13.4868   2
 -11  15  21 580.865 24.3814   2
 -15  11  21 594.190 25.4048   2
  15  21  11 648.245 24.6065   4
  11  21  15 602.029 24.6932   4
 -11  21  15 635.793 25.5162   4
 -15  21  11 613.666 24.6529   4
 -21  11  15 622.249 25.8883   2
 -21  15  13 3192.18 110.399   2
 -15  13  21 3156.94 109.937   2
  13  21  15 3182.07 109.458   4
 -13  15  21 3117.95 109.656   2
  15  21  13 3158.72 109.332   4
 -21  13  15 3125.49 110.298   2
 -21  15  15 7.22824 11.1750   2
 -15  15  21 2.05409 9.59904   2
 -15  21  15 10.4071 9.96339   2
  15  21  15 17.7299 8.43040   4
   1  17  21 1249.57 45.3411   4
  17  21  -1 1248.01 45.3181   4
   1  21  17 1201.94 45.3368   4
  17  21   1 1238.90 45.2437   4
  -1  21  17 1223.18 45.5338   4
  -1  17  21 1268.91 45.4403   4
  21   1 -17 1187.30 53.4797   3
   3  21  17 14.9174 9.52880   4
  17  21  -3 30.2120 9.46172   4
  17  21   3 26.1244 8.91666   4
  21   3 -17 35.0004 14.0951   3
   3  17  21 27.6676 9.42113   4
   5  17  21 1819.59 61.8595   4
  21   5 -17 1587.81 65.7609   1
  17  21  -5 1728.29 62.1659   4
   5  21  17 1757.97 61.9079   4
  17   5 -21 1783.98 66.3861   1
  21   5 -17 1672.91 70.2089   3
  17  21   5 1695.55 61.5279   4
  21  17  -5 1733.71 61.7743   4
  17   7 -21 283.616 18.6333   1
  17  21  -7 279.098 15.6625   4
  -7  21  17 272.865 15.9303   4
   7  17  21 267.594 14.5933   4
  17  21   7 264.089 14.2392   4
   7  21  17 306.264 15.1830   4
 -21   7  17 298.374 15.9142   2
  21   7 -17 277.650 18.7023   1
 -21   9  17 1395.17 51.2344   2
  21   9 -17 1314.43 56.4115   1
 -17   9  21 1363.13 51.0362   2
   9  21  17 1404.94 50.5292   4
   9  17  21 1417.65 50.1690   4
  -9  21  17 1450.22 50.9856   4
  17   9 -21 1376.77 56.7150   1
  17  21   9 1355.12 50.0576   4
 -11  17  21 3206.13 111.361   2
 -21  11  17 3221.42 112.253   2
 -17  11  21 3106.47 111.976   2
  11  17  21 3316.04 111.211   4
  11  21  17 3233.65 111.527   4
  17  21  11 3189.53 111.157   4
 -11  21  17 3194.52 111.399   2
 -13  21  17 51.2579 9.83624   2
 -21  13  17 47.6022 11.6836   2
  13  17  21 54.6553 8.04125   4
 -13  17  21 57.2334 10.0016   2
  13  21  17 39.0073 9.27971   4
  17  21  13 40.0099 8.42290   4
 -21  17  13 42.2175 12.0015   2
 -15  21  17 2628.89 93.2380   2
  17  21  15 2583.25 92.3661   4
 -17  21  15 2631.62 93.5115   2
 -21  17  15 2632.44 93.8397   2
 -15  17  21 2708.06 93.2662   2
 -21  15  17 2688.62 93.9489   2
  15  21  17 2690.49 92.5616   4
 -17  15  21 2657.82 93.4891   2
 -21  17  17-0.40599 12.0275   2
  17  21  17 3.75993 8.23891   4
 -17  17  21 19.3941 11.4421   2
 -17  21  17 2.67851 11.0993   2
  19  21   1 2136.77 75.3883   4
   1  21  19 2142.63 75.7320   4
  21  19   1 2162.93 75.1572   4
  19  21  -1 2146.99 75.4431   4
   1  19  21 2152.87 75.7259   4
  -1  21  19 2150.66 75.8021   4
  -1  19  21 2044.43 75.5884   4
  21  19  -1 2155.22 75.1949   4
   3  21  19 731.793 28.8352   4
  -3  21  19 705.259 28.8721   4
  19  21  -3 705.534 28.6101   4
  21  19   3 747.126 27.7360   4
   3  19  21 696.189 28.6780   4
  -3  19  21 686.342 29.0486   4
  19  21   3 737.602 28.2075   4
  21  19  -3 715.329 28.3537   4
  19  21   5 36.3559 8.80673   4
 -21   5  19 62.4377 11.5850   2
  21  19  -5 42.9259 9.84232   4
   5  21  19 47.4734 10.2963   4
   5  19  21 46.6254 9.93349   4
  19  21  -5 52.0507 10.9040   4
  -7  21  19 11157.3 380.355   4
  21  19   7 10984.2 379.450   4
   7  21  19 11391.0 380.140   4
   7  19  21 11345.8 380.079   4
 -21   7  19 11189.4 380.643   2
  21  19  -7 11117.9 380.272   4
  19  21   7 11259.7 379.783   4
  19  21  -7 11041.5 380.451   4
 -21   9  19 635.183 27.8848   2
  -9  21  19 660.767 25.8542   2
  -9  19  21 650.598 25.7024   2
   9  21  19 698.644 26.7501   4
  19  21   9 651.327 26.0494   4
 -19   9  21 649.990 27.8444   2
   9  19  21 668.476 26.5568   4
 -21  11  19 412.068 20.1705   2
 -11  19  21 400.430 18.0640   2
 -19  11  21 402.703 19.9956   2
  11  19  21 376.530 18.0022   4
  11  21  19 373.359 18.3023   4
 -11  21  19 383.996 17.9835   2
  19  21  11 405.991 17.4195   4
  13  19  21 11469.6 391.129   4
 -21  13  19 11367.7 392.265   2
 -13  21  19 11737.7 391.605   2
 -13  19  21 11435.6 391.555   2
 -19  13  21 11547.7 392.123   2
  19  21  13 11547.8 390.992   4
  13  21  19 11607.9 391.295   4
 -21  19  13 11362.4 392.251   2
 -19  21  15 99.0407 13.2657   2
 -15  21  19 110.689 11.6296   2
  15  19  21 113.538 9.83245   4
  15  21  19 121.516 10.4168   4
 -21  15  19 107.262 14.0343   2
  19  21  15 101.139 9.65175   4
 -15  19  21 129.382 12.2223   2
 -19  15  21 128.453 13.2238   2
 -21  19  15 94.2268 13.8808   2
 -19  21  17 535.835 25.1896   2
  17  21  19 552.100 22.4972   4
 -17  19  21 506.044 24.5850   2
 -21  17  19 569.707 25.5530   2
 -21  19  17 591.312 25.6012   2
 -17  21  19 533.835 24.6887   2
 -19  17  21 542.019 25.0865   2
 -21  19  19-16.0002 13.3224   2
 -19  19  21-2.91149 12.3532   2
 -19  21  19-4.98952 12.0838   2
  21  21   1 0.93970 8.79095   4
  21  21  -1-2.56777 9.22004   4
  -1  21  21-2.81505 10.4377   4
   1  21  21 9.37053 10.6204   4
   3  21  21-3.42157 10.4482   4
  21  21   3 13.5841 8.73885   4
  21  21  -3 14.8450 9.44671   4
  -3  21  21 12.7906 10.9946   4
  -5  21 -21 0.56467 7.88831   4
   5  21  21-4.06293 10.6255   4
  21  21  -5 7.93618 10.2234   4
   7  21  21 5.69236 9.92550   4
  21  21   7-4.27975 7.98245   4
  21  21  -7-3.63347 10.9238   4
  21  21  -9 3.79257 11.3027   4
   9  21  21 5.62234 9.78152   4
 -21   9  21 11.5209 11.5616   2
  21  21   9 5.33184 7.92441   4
 -21  11  21-1.21739 12.1264   2
 -11  21  21 8.78994 8.86594   2
  21  21  11 14.3933 7.55566   4
  11  21  21 15.6200 9.98778   4
 -21  13  21-9.10825 12.6071   2
  13  21  21 12.4214 9.47111   4
 -13  21  21 1.37388 9.31082   2
 -15  21  21 10.4045 10.5530   2
 -21  21  15-7.26071 12.8035   2
 -21  15  21 0.84567 12.6582   2
  15  21  21 14.8063 8.52448   4
 -21  17  21 18.5822 12.8102   2
 -21  21  17 3.90139 12.4621   2
 -17  21  21 9.56101 12.2115   2
  17  21  21-3.24522 7.67713   4
 -19  21  21 4.23752 12.8505   2
 -21  19  21 12.3217 13.1471   2
 -21  21  19 7.95162 13.0192   2
 -21  21  21 2.67162 13.9925   2
   0   0 -22 15437.3 466.164   3
 -22   0   0 14758.3 461.820   1
   2   0 -22 598.352 32.7641   3
 -22   0  -2 589.724 27.8720   1
 -22   2   0 583.460 26.7772   1
  -2   0 -22 609.739 31.2131   3
   0  22   2 546.626 26.8054   1
  22   0  -2 566.844 23.3581   3
   0   2 -22 561.701 32.0177   3
   2  22   0 594.208 28.6487   1
   0  -2 -22 532.062 30.7533   3
  -2  22   2 4621.58 152.253   1
 -22   2  -2 4797.83 153.338   1
  -2   2 -22 4703.31 156.776   3
   2   2 -22 4913.34 158.040   3
  -2  -2 -22 4830.19 156.659   3
  22   2  -2 4504.88 148.137   3
   2  22   2 4725.87 153.712   1
 -22  -2  -2 4670.06 153.721   1
   4  22   0 5462.31 196.347   1
   4   0 -22 5738.57 200.230   3
   0   4 -22 5665.19 199.559   3
  22   0  -4 5524.91 193.125   3
 -22   0  -4 5408.56 196.192   1
  -4   0 -22 5869.67 198.646   3
   0  22   4 5636.99 194.996   1
 -22   4   0 5595.89 194.730   1
   4   2 -22 1167.98 53.0540   3
  -4  -2 -22 1227.58 50.7268   3
   4  22   2 1179.79 48.7710   1
  -2   4 -22 1248.53 52.2354   3
  22   2  -4 1189.64 45.1321   3
  -2  22   4 1219.17 47.0006   1
 -22   2  -4 1247.87 49.2301   1
 -22  -4  -2 1133.95 48.6487   1
   2  22   4 1249.57 48.7252   1
 -22  -2  -4 1242.06 49.2185   1
 -22   4   2 1194.60 46.5751   1
   2   4 -22 1193.73 51.8138   3
  -4   2 -22 1217.42 51.1152   3
 -22   4  -2 1218.49 48.0640   1
  -4   4 -22 3011.21 110.278   3
 -22   4  -4 3029.50 107.462   1
  22  -4   4 2797.84 101.505   3
 -22  -4  -4 2932.04 108.355   1
  22   4  -4 3009.77 103.551   3
  -4  -4 -22 3230.94 110.218   3
  -4 -22   4 2949.50 110.665   3
   4  22   4 3085.79 107.875   1
  -4  22   4 3062.41 105.271   1
 -22   6   0 102.469 11.5537   1
   0   6 -22 113.162 19.9349   3
   0 -22   6 79.4988 19.5416   3
  -6   0 -22 75.6592 13.0065   3
   0  22   6 115.529 11.4422   1
   6   0 -22 76.7342 17.2009   3
   6  22   0 113.920 15.1958   1
 -22   0  -6 104.416 13.8727   1
  -6  -2 -22 493.038 27.3620   3
 -22  -2  -6 552.363 28.3293   1
 -22   2  -6 541.059 27.3631   1
   2   6 -22 572.824 32.3862   3
   6   2 -22 517.973 31.6956   3
  -2  22   6 533.909 24.3153   1
   6  22  -2 562.311 28.2132   1
   2  22   6 503.544 25.5182   1
  -2   6 -22 568.420 31.1607   3
 -22   6   2 514.248 23.6592   1
 -22   6  -2 527.603 25.4775   1
  22   2  -6 539.080 24.2905   3
   6  22   2 502.369 27.6209   1
  -2 -22   6 542.209 31.6358   3
  -6   2 -22 601.686 28.7195   3
   4  22   6 826.550 36.2721   1
  22   4  -6 866.422 33.9165   3
 -22  -4  -6 755.514 36.8837   1
  -4  22   6 824.565 33.1807   1
 -22   4  -6 771.621 36.4837   1
   4   6 -22 859.395 41.1604   3
  -4   6 -22 824.266 39.8794   3
 -22  -6  -4 809.635 37.6114   1
  -6  22   4 831.113 33.2530   1
  -6   4 -22 859.645 38.3677   3
  -6  -4 -22 880.271 37.7739   3
  -6 -22   4 805.853 39.3323   3
  -4 -22   6 853.551 40.3399   3
   6  22   4 807.847 36.8264   1
 -22   6  -4 850.686 36.3405   1
  -6  22   6 1770.04 63.2793   1
  -6 -22   6 1767.83 70.4458   3
  22  -6   6 1708.66 62.0151   3
 -22  -6  -6 1790.57 68.8262   1
   0   8 -22 396.064 26.6962   3
   8  22   0 348.769 22.7285   1
 -22   8   0 352.900 18.4890   1
 -22   0  -8 324.755 22.2425   1
  -8   0 -22 382.555 21.5245   3
   0 -22   8 339.995 25.8153   3
 -22   8   2 508.688 22.7016   1
   2   8 -22 544.574 31.6726   3
   8  22  -2 540.231 27.6676   1
 -22   8  -2 526.790 24.7242   1
  -8   2 -22 528.603 26.9590   3
  -8 -22   2 504.665 28.4768   3
 -22  -2  -8 523.032 27.6368   1
   8  22   2 499.947 27.5486   1
  -2 -22   8 483.578 29.5328   3
  -8  -2 -22 518.676 26.3963   3
  22   2  -8 465.850 24.3641   3
 -22   2  -8 502.309 27.7734   1
   4   8 -22 1750.50 71.6399   3
  -4 -22   8 1768.06 70.9584   3
 -22  -4  -8 1735.97 68.5464   1
   8  22   4 1760.95 68.0039   1
  -8  -4 -22 1774.23 67.3847   3
   4 -22   8 1698.92 71.0027   3
   8  22  -4 1766.11 68.3958   1
  22   4  -8 1713.98 65.1945   3
  -8  22   4 1733.22 62.8152   1
  -8 -22   4 1616.07 68.7896   3
  -8 -22   6 748.368 37.4895   3
   8   6 -22 717.842 39.5144   3
 -22  -6  -8 817.729 36.7800   1
  -8  -6 -22 865.882 35.6272   3
  -8  22   6 754.595 29.2199   1
   6 -22   8 818.287 39.3938   3
  22  -8   6 729.107 30.3340   3
  22   6  -8 739.991 32.5713   3
 -22  -8  -6 762.865 35.4836   1
  -6 -22   8 680.073 36.5298   3
  -8 -22   8 3985.46 139.584   3
   8   8 -22 4127.93 141.761   3
  22  -8   8 4115.51 132.309   3
 -22   0 -10 254.610 20.2580   1
  10  22   0 224.306 18.1559   1
   0 -22  10 229.267 21.4631   3
  10   0 -22 224.857 23.6439   3
   0 -10 -22 233.991 13.8484   1
 -22  10   0 203.738 13.6030   1
 -10   0 -22 192.370 15.9426   3
 -10 -22   0 208.389 18.6024   3
  10  22   2 128.459 16.2413   1
 -22  10   2 127.072 9.96772   1
  -2 -22  10 145.559 19.9953   3
  -2 -10 -22 113.031 11.6471   1
   2 -10 -22 151.733 10.4363   1
 -22  10  -2 148.505 13.0880   1
 -10 -22   2 127.881 16.4942   3
 -22  -2 -10 146.143 14.9395   1
  22   2 -10 145.840 14.5784   3
 -10  -2 -22 122.601 14.2110   3
  10  22  -2 132.434 16.3607   1
  10   2 -22 110.656 16.4839   3
  -4 -10 -22 57.1297 10.8983   1
   4  10 -22 58.7863 18.5951   3
  22   4 -10 41.6748 12.0451   3
 -10  -4 -22 47.6353 11.6798   3
  10   4 -22 32.4724 16.5038   3
 -10  22   4 64.8846 6.84156   1
 -22  -4 -10 56.0521 15.0533   1
   4 -10 -22 59.3085 7.14463   1
 -10 -22   4 49.7410 14.3179   3
  10  22   4 64.3481 13.2518   1
  -4 -22  10 39.6440 15.7497   3
  10  22  -4 79.3957 14.6003   1
  10  22  -6 728.664 34.6521   1
  22 -10   6 608.263 28.0166   3
 -10 -22   6 666.722 33.8068   3
   6 -10 -22 647.842 24.3927   1
  -6 -10 -22 683.164 31.0316   1
 -10  22   6 620.397 24.3840   1
  -6 -22  10 664.884 35.2009   3
 -10  -6 -22 661.174 30.7654   3
  22   6 -10 711.026 30.9530   3
  10   6 -22 658.251 36.1304   3
  22 -10   8 1387.38 51.0723   3
 -10 -22   8 1221.52 55.6866   3
 -22   8  10 1335.56 48.5274   2
  22  -8  10 1295.73 49.0787   3
  -8 -10 -22 1340.03 54.1327   1
 -10  -8 -22 1403.76 53.6936   3
  22  10 -10 453.244 25.8453   1
  22 -10  10 449.874 21.2073   3
 -10 -10 -22 463.306 25.8282   1
  22   0 -12 2288.28 85.2280   3
 -12 -22   0 2202.94 84.9017   3
 -22  12   0 2220.36 80.8728   1
   0 -12 -22 2231.88 81.0244   1
  12   0 -22 2170.81 88.1451   3
  12  22   0 2338.88 86.9006   1
  22   2 -12 338.430 21.8285   3
  -2 -12 -22 327.280 18.4909   1
  12  22  -2 374.113 24.6018   1
   2 -12 -22 362.975 16.9501   1
 -22  12   2 355.369 16.5334   1
 -12  -2 -22 344.689 20.0208   3
 -12 -22   2 374.150 22.9457   3
 -12 -22  -2 363.015 22.1189   3
  12  22   2 362.782 22.9986   1
  12   2 -22 373.974 26.9119   3
 -12  22   4 5469.86 193.395   1
 -12 -22  -4 5854.68 199.461   3
  22   4 -12 5850.98 199.704   3
 -12  -4 -22 5864.71 197.819   3
 -12 -22   4 5729.66 200.866   3
  -4 -12 -22 5510.93 197.618   1
  22   6 -12 221.308 17.3531   3
  -6 -12 -22 205.659 16.0024   1
 -12  -6 -22 190.661 14.7670   3
  -6  22  12 188.047 12.3846   4
  12  22  -6 176.948 12.4885   4
 -12 -22   6 184.879 17.4091   3
 -22   6  12 197.822 13.2352   2
  -8  22  12 1981.91 70.3489   4
  22   8 -12 1845.90 75.6921   3
  -8 -12 -22 1913.32 75.9802   1
 -12 -22   8 1996.81 78.9096   3
  12  22  -8 2040.26 70.8980   4
  22 -12   8 1954.67 74.2127   3
  22   8 -12 2117.58 76.8688   1
   8  22  12 2012.94 70.3614   4
 -10  22  12 673.558 27.2166   4
 -12  22  10 700.315 26.9901   4
  10  22  12 685.732 27.0458   4
  22  10 -12 653.190 33.1392   1
  12  22  10 691.271 27.0113   4
  12  22  12 2734.73 93.2825   4
 -12  22  12 2602.49 93.3281   4
 -12  12  22 2682.57 93.3526   2
   0  22  14 404.125 18.6192   4
 -14 -22   0 409.841 23.1968   3
  22   0 -14 345.204 24.1943   3
 -22  14   0 431.373 19.2590   1
 -22   0  14 399.044 18.6850   2
  14  22   0 392.373 18.0944   4
   0 -14 -22 391.072 18.7920   1
  -2 -14 -22 2165.71 79.3382   1
 -22   2  14 2177.86 76.4049   2
 -14 -22   2 2125.98 82.3285   3
  14  22  -2 2227.73 76.4268   4
   2  22  14 2125.75 76.3613   4
  22   2 -14 2061.13 83.0420   3
 -14 -22  -2 2207.50 81.9547   3
 -14 -22   4 133.698 16.0102   3
  14  22  -4 124.831 11.3760   4
  -4 -14 -22 136.670 12.1456   1
   4  22  14 143.258 11.7839   4
  -4  22  14 113.694 10.8156   4
  22   4 -14 136.932 15.9670   3
 -22   4  14 116.870 11.1476   2
  -6  22  14 3785.47 126.318   4
 -22   6  14 3558.87 126.372   2
 -14 -22  -6 3605.47 130.919   3
  14  22   6 3697.89 126.011   4
  22   6 -14 3621.18 133.280   3
  14  22  -6 3602.00 126.385   4
 -14 -22   6 3668.63 134.054   3
   6  22  14 3667.50 126.177   4
  -6 -14 -22 3528.31 131.146   1
  14  22   8 2192.80 77.3210   4
   8  22  14 2172.76 77.4812   4
  22   8 -14 2269.16 83.7907   1
  22 -14   8 2115.63 82.3934   3
  22   8 -14 2138.23 84.4144   3
  -8 -14 -22 2188.79 83.5216   1
  14  22  -8 2188.11 78.0341   4
  -8  22  14 2293.15 77.7491   4
 -14  22  10 673.099 26.0483   4
  14  22  10 654.620 26.0151   4
  22  10 -14 615.867 32.0484   1
 -10  22  14 652.556 26.4925   4
  10  22  14 648.803 26.2317   4
 -12  22  14 49.8253 10.2676   4
  14  22  12 30.8638 8.77561   4
 -14  22  12 34.2105 9.59006   4
 -14  12  22 45.9142 10.0189   2
 -22  14  12 34.0165 11.7104   2
  12  22  14 30.7094 9.39026   4
 -12  14  22 41.6789 9.14752   2
 -22  12  14 51.1687 11.5042   2
 -22  14  14 5794.06 201.446   2
 -14  14  22 5838.00 200.963   2
  14  22  14 5933.46 200.664   4
   0  22  16 16.5085 9.81696   4
  22   0 -16 7.42709 11.8147   3
  16  22   0 21.5113 9.47950   4
 -16 -22   0-0.88817 9.70804   3
  16  22   2 51.2317 9.42315   4
 -22   2  16 56.2933 10.3892   2
 -16 -22   2 67.9536 12.4087   3
  16  22  -2 43.8798 9.40825   4
   2  22  16 48.1689 9.78689   4
  22   2 -16 47.3723 14.1061   3
  16  22  -4 349.706 17.9975   4
  16   4 -22 392.083 20.4187   1
  16  22   4 373.079 17.4458   4
   4  22  16 382.209 17.9419   4
 -22   4  16 359.812 18.4574   2
  22   4 -16 378.599 24.1311   3
   4  16  22 397.241 17.4471   4
  22   6 -16 1983.69 77.4133   1
  16  22   6 2066.62 72.3455   4
  16  22  -6 2004.53 72.8892   4
  -6  22  16 2123.56 72.8384   4
   6  22  16 2079.84 72.6148   4
  -6 -16 -22 1909.39 76.9514   1
  22   6 -16 1992.54 80.4643   3
   6  16  22 2076.67 72.2476   4
  -8  22  16 93.5439 10.8341   4
  22   8 -16 70.7181 14.3402   3
  16  22   8 85.8590 9.32587   4
  22   8 -16 63.4780 12.5741   1
   8  22  16 81.5370 10.5954   4
 -16  22   8 67.6998 9.07412   4
   8  16  22 81.4406 9.13849   4
  16  22  -8 71.4930 11.2666   4
  10  22  16 436.179 19.1071   4
 -16  22  10 425.757 18.7805   4
 -10  22  16 406.858 19.8076   4
  16  22  10 408.324 18.6060   4
 -16  10  22 427.217 19.9536   2
 -10  16  22 426.471 18.5354   2
 -10  22  16 406.792 18.5906   2
 -22  10  16 393.796 20.2193   2
  10  16  22 442.656 18.4231   4
 -22  12  16 3963.05 137.380   2
  12  22  16 4000.31 136.606   4
 -22  16  12 3994.68 137.397   2
 -16  12  22 3975.64 137.009   2
 -12  22  16 3928.11 136.552   2
  16  22  12 3887.85 136.295   4
  12  16  22 3969.61 135.960   4
 -12  16  22 3926.63 136.500   2
 -22  16  14 2531.18 90.8584   2
  16  22  14 2573.32 89.6712   4
 -14  22  16 2496.87 90.1973   2
 -14  16  22 2553.21 90.2413   2
  14  22  16 2569.66 89.7931   4
 -22  14  16 2619.68 91.0337   2
 -16  14  22 2618.92 90.5629   2
 -22  16  16 434.793 21.9401   2
 -16  16  22 426.512 20.6649   2
 -16  22  16 423.392 20.7848   2
  16  22  16 463.245 19.5984   4
   0  22  18 3500.13 122.571   4
  18  22   0 3569.24 122.373   4
  22  18   0 3473.03 121.836   4
   0  18  22 3593.85 122.473   4
   2  18  22 101.761 11.3525   4
  -2  22 -18 119.113 10.4302   4
  22  18  -2 118.186 10.1195   4
  18  22  -2 134.705 11.5003   4
  -2  22  18 105.939 11.7858   4
  18  22   2 114.723 10.7963   4
   2  22  18 110.324 11.8660   4
  -4  22 -18 2395.30 84.0558   4
   4  18  22 2452.35 84.5989   4
  22  18  -4 2402.35 84.3831   4
   4  22  18 2432.05 84.7066   4
  18  22   4 2364.43 84.3119   4
  18  22  -4 2389.14 84.7921   4
 -18  22   6 5.98786 6.97859   4
  -6  22  18 19.6327 10.7687   4
  18  22   6 25.5695 8.80405   4
  22  18  -6 25.0017 9.46589   4
  18  22  -6 4.15710 10.7933   4
   6  22  18 21.0662 10.1979   4
   6  18  22 13.9088 9.24701   4
 -22   8  18 179.765 13.8629   2
   8  18  22 139.314 11.5533   4
   8  22  18 151.365 12.2405   4
  18  22  -8 141.931 13.4922   4
  -8  22  18 174.840 13.3463   4
  18  22   8 190.130 11.8159   4
 -10  22  18 14.1941 8.13672   2
  18  22  10 20.5054 8.28681   4
 -10  18  22 18.2233 8.60963   2
 -18  10  22 20.8305 10.8976   2
  10  18  22 27.1551 8.74008   4
  10  22  18 28.2293 9.87098   4
 -18  12  22 99.2057 12.3836   2
  12  18  22 75.7975 9.19356   4
 -12  22  18 91.0175 10.3461   2
  18  22  12 97.4747 9.83034   4
 -22  12  18 92.9405 13.3547   2
 -12  18  22 66.3461 9.68235   2
  12  22  18 99.2811 10.7530   4
  18  22  14 632.483 25.5763   4
 -22  18  14 658.807 28.0424   2
  14  18  22 660.191 25.3035   4
 -18  14  22 641.219 27.5731   2
 -14  18  22 608.319 26.6002   2
  14  22  18 631.785 25.8883   4
 -22  14  18 628.105 27.9454   2
 -14  22  18 666.776 26.6086   2
 -18  22  16 342.348 19.5406   2
 -22  18  16 408.854 20.5803   2
 -18  16  22 373.760 19.7758   2
 -16  18  22 356.236 19.0866   2
 -22  16  18 392.074 20.5092   2
  16  22  18 383.832 17.7830   4
 -16  22  18 376.001 19.1939   2
  18  22  16 389.376 17.4524   4
  18  22  18 1121.24 41.6624   4
 -18  22  18 1149.48 43.5001   2
 -22  18  18 1129.18 44.2203   2
 -18  18  22 1138.44 43.5165   2
  22  20   0 416.602 19.1482   4
   0  20  22 427.496 20.5531   4
   0  22  20 446.309 20.4317   4
  20  22   0 427.316 19.6142   4
  20  22  -2 23.3609 9.95082   4
   2  20  22 35.9069 10.9308   4
  22  20   2 21.5027 8.31709   4
  20  22   2 8.53308 9.17138   4
  -2  20  22 11.9284 10.5022   4
  -2  22  20 14.5509 11.0276   4
   2  22  20 13.2009 10.7607   4
  22  20  -2 23.0004 9.08322   4
  20  22   4 578.945 24.1438   4
  22  20   4 599.182 23.6482   4
  22  20  -4 575.854 24.6449   4
  20  22  -4 580.580 25.1041   4
  -4  22 -20 588.599 23.9099   4
   4  20  22 597.367 25.0898   4
   4  22  20 597.415 25.3202   4
  20  22  -6 4.31942 11.0335   4
  22  20   6 21.8175 7.82184   4
  20  22   6 12.3811 8.71643   4
   6  20  22 11.0306 10.1427   4
   6  22  20 9.85631 10.0969   4
  22  20  -6 5.58185 10.1484   4
  20  22  -8 761.899 32.3067   4
  22  20  -8 792.021 32.1771   4
  22  20   8 800.501 30.3314   4
   8  20  22 798.780 31.6039   4
 -22   8  20 794.760 32.8031   2
   8  22  20 852.687 31.9069   4
  20  22   8 815.708 30.8958   4
 -10  22  20 33.4299 8.38986   2
 -20  10  22 23.5446 12.1769   2
  10  22  20 45.9393 10.1855   4
 -10  20  22 29.2859 8.09540   2
  20  22 -10 32.5630 12.1693   4
  10  20  22 45.5371 10.0753   4
  20  22  10 38.7588 8.84383   4
 -22  10  20 28.3621 12.1972   2
  12  22  20 216.096 13.9446   4
  20  22  12 212.634 12.5609   4
 -12  20  22 234.148 13.7924   2
 -22  12  20 253.751 16.8446   2
  12  20  22 218.228 13.5235   4
 -12  22  20 240.367 13.8688   2
 -20  12  22 232.659 16.1844   2
 -22  14  20 33.0652 12.9491   2
  20  22  14 29.0852 8.25282   4
 -22  20  14 32.0878 12.7543   2
 -20  14  22 41.4756 12.2856   2
 -20  22  14 33.8493 12.8711   2
 -14  22  20 24.7137 10.1176   2
 -14  20  22 18.5009 10.3186   2
  14  20  22 42.3142 8.99358   4
  14  22  20 35.3424 9.58481   4
 -16  22  20 66.6885 11.8931   2
  16  22  20 54.5545 9.55227   4
 -20  16  22 59.0380 13.0828   2
  20  22  16 68.3298 8.88580   4
 -22  16  20 45.2195 14.0120   2
  16  20  22 71.8377 9.13386   4
 -22  20  16 50.2297 13.9403   2
 -20  22  16 56.9333 13.2293   2
 -16  20  22 61.7089 11.7277   2
 -20  18  22 75.2644 14.0107   2
 -18  20  22 76.9566 12.8028   2
 -22  18  20 71.6757 14.4751   2
 -18  22  20 97.4629 13.2735   2
 -22  20  18 84.7132 13.9537   2
 -20  22  18 53.9313 12.9974   2
  18  22  20 71.0389 8.96297   4
 -22  20  20 94.0553 15.2640   2
 -20  22  20 128.578 15.4011   2
 -20  20  22 92.2920 14.2372   2
   0  22  22 1542.82 56.3318   4
  22  22   0 1531.33 55.8046   4
  22  22   2 810.852 31.4774   4
  -2  22  22 826.242 32.8432   4
  22  22  -2 782.193 31.7862   4
   2  22  22 819.081 32.3974   4
   4  22  22 1.08989 10.8851   4
  22  22  -4 22.6853 10.8438   4
  -4  22 -22 13.8442 8.69742   4
  22  22   4 10.2891 9.07818   4
  22  22   6 56.0564 8.93030   4
   6  22  22 40.1151 11.5208   4
  22  22  -6 40.4219 11.6987   4
   8  22  22 2029.36 71.0002   4
  22  22   8 1954.94 70.0273   4
  22  22  -8 1969.98 71.3605   4
  22  22 -10 275.438 16.9679   4
  10  22  22 263.539 15.4996   4
  22  22  10 266.818 13.7011   4
 -10  22  22 245.672 13.8615   2
  12  22  22 146.988 12.3149   4
 -22  12  22 164.249 15.7298   2
 -12  22  22 175.110 12.0611   2
 -22  14  22 28.5859 13.9397   2
 -22  22  14 43.8968 14.5140   2
 -14  22  22 61.3625 10.8356   2
  14  22  22 54.4128 10.4036   4
 -22  16  22 376.449 20.6452   2
  16  22  22 330.985 16.7234   4
 -16  22  22 360.899 18.8771   2
 -22  22  16 353.356 20.9398   2
 -18  22  22 63.6071 13.3495   2
 -22  22  18 58.7629 14.8918   2
 -22  18  22 75.4603 14.7083   2
 -20  22  22 1027.58 40.6287   2
 -22  22  20 1024.98 40.7480   2
 -22  20  22 1019.02 40.9873   2
 -22  22  22 1732.98 64.0424   2
   1  23   1 13.9997 10.3179   1
 -23   1  -1 38.5766 11.5810   1
  -1   1 -23 29.3691 14.1194   3
   1   1 -23-22.1193 16.7854   3
  -1  -1 -23 3.36527 12.5358   3
  -1  23   1 12.3942 9.87316   1
 -23  -1  -1 12.6812 11.5639   1
  23  -1  -1 0.60040 5.65220   3
   1  -1 -23 2.32757 15.3815   3
  -3  -1 -23 1398.65 57.3404   3
   3   1 -23 1422.46 59.0831   3
 -23   1  -3 1429.59 54.8683   1
 -23  -1  -3 1343.15 54.5413   1
  -1  -3 -23 1437.23 58.4639   3
   3  23   1 1492.82 55.5695   1
  -1  23   3 1335.60 53.0792   1
  -3   1 -23 1293.09 56.7799   3
   3  -1 -23 1439.49 59.4732   3
   1   3 -23 1338.01 58.5082   3
 -23   3  -1 1340.64 53.4509   1
  -1   3 -23 1442.80 58.2570   3
   1  23   3 1379.80 53.9122   1
 -23   3   1 1341.22 52.8655   1
  23   1  -3 1327.09 49.9095   3
   3  23  -1 1351.90 54.8366   1
   3   3 -23 20.8357 14.1906   3
 -23  -3  -3 13.2213 12.1502   1
  -3   3 -23 13.4426 14.2460   3
  -3  -3 -23-29.2175 14.0209   3
  -3  23   3 9.71817 8.82975   1
 -23   3  -3 11.8957 10.5725   1
   3  23   3-1.61979 9.69498   1
 -23   1  -5 810.688 36.2295   1
   1   5 -23 846.961 41.0992   3
   5  23  -1 753.299 36.8245   1
   5  -1 -23 834.419 41.5143   3
  -5  -1 -23 844.229 37.9054   3
   1  23   5 798.974 34.8815   1
 -23   5  -1 833.961 34.7907   1
   5  23   1 823.627 36.8124   1
  -1   5 -23 815.345 39.7381   3
   5   1 -23 873.403 40.8848   3
  -5   1 -23 816.950 37.7731   3
  -1  23   5 825.935 34.3759   1
 -23  -1  -5 790.917 36.8844   1
 -23   5   1 761.454 33.8083   1
  23   1  -5 814.349 32.9821   3
 -23  -3  -5 9505.72 330.000   1
   3  23   5 9788.71 328.740   1
  -5  23   3 9360.58 326.368   1
 -23   5  -3 9428.13 328.208   1
  -5 -23   3 8993.38 331.130   3
   5   3 -23 9693.50 333.156   3
  -3 -23   5 9148.68 332.044   3
  -3  23   5 9562.12 326.652   1
  23   3  -5 9400.39 325.321   3
 -23   3  -5 9653.06 329.413   1
   5  23  -3 9959.43 330.349   1
   5  23   3 9359.51 329.120   1
   3   5 -23 9597.94 332.920   3
  -5  -3 -23 9622.57 330.849   3
  -5   3 -23 9633.90 331.292   3
  -3   5 -23 9726.27 332.179   3
  -5  23   5 4.29402 7.48528   1
  -5 -23   5-15.4806 15.8204   3
  23  -5   5 10.3009 4.13627   3
  -5  -5 -23 14.7256 11.5785   3
 -23   5  -5-0.86494 10.3329   1
   5   5 -23-11.5734 17.3497   3
 -23  -5  -5 27.2593 13.3994   1
  -5   5 -23 12.3243 12.1119   3
   5  23   5-6.11782 10.9459   1
  23   1  -7 4414.40 155.684   3
  -1 -23   7 4271.53 161.353   3
   7  -1 -23 4429.04 161.896   3
 -23   7   1 4486.63 155.160   1
 -23   7  -1 4333.14 155.700   1
   7  23  -1 4524.20 159.193   1
  -7  -1 -23 4420.40 158.793   3
   1   7 -23 4479.30 161.843   3
   7  23   1 4444.36 158.658   1
 -23  -1  -7 4340.82 158.575   1
   1 -23   7 4337.89 161.502   3
  -1  23   7 4527.97 155.523   1
  -1   7 -23 4394.00 161.266   3
  -7   1 -23 4489.83 159.152   3
 -23   1  -7 4452.26 158.686   1
   7  23  -3 449.634 26.5681   1
  -7 -23   3 443.217 27.9650   3
  -7  23   3 437.243 21.0765   1
  -7   3 -23 472.581 25.8461   3
 -23   3  -7 483.384 26.2519   1
 -23   7  -3 449.177 23.5650   1
 -23  -3  -7 455.442 25.9281   1
  23   3  -7 444.988 22.5172   3
  -7  -3 -23 492.878 25.6927   3
   7  23   3 478.674 25.3928   1
   3   7 -23 500.475 29.2008   3
  -3  23   7 477.928 21.7805   1
  -3 -23   7 457.497 29.1434   3
   7  23   5 2453.84 91.7518   1
 -23  -5  -7 2479.30 92.5810   1
  -7  23   5 2399.01 86.9327   1
 -23   7  -5 2487.57 91.1246   1
  23  -7   5 2269.12 86.2258   3
 -23   5  -7 2509.08 91.9120   1
   5   7 -23 2676.20 96.4431   3
  -5 -23   7 2451.13 94.7812   3
  -7  -5 -23 2618.85 92.7244   3
  23   5  -7 2489.28 88.5442   3
  -7 -23   5 2506.54 94.4921   3
  -7 -23   7 23.6117 14.6218   3
  23  -7   7 5.88235 5.09763   3
  -7  -7 -23 35.4206 12.5279   3
  23   1  -9 1329.74 52.7796   3
 -23   9   1 1330.71 50.5891   1
 -23   1  -9 1417.34 56.1518   1
  -9 -23   1 1256.10 55.3979   3
 -23   9  -1 1337.85 51.5801   1
  -9   1 -23 1350.99 54.5006   3
  -9  -1 -23 1271.88 53.8308   3
   9  23   1 1326.47 55.5306   1
   9  23  -1 1390.75 55.3940   1
 -23  -1  -9 1347.09 55.4837   1
  -9 -23   3 34.9753 13.3092   3
   9  23   3 3.08685 12.0320   1
  23   3  -9-9.10340 9.34338   3
 -23   3  -9-8.50253 12.2868   1
   3   9 -23 50.8793 17.3544   3
  -9  23   3 21.6215 6.70380   1
   9   3 -23-2.69134 13.6859   3
  -9  -3 -23 8.33939 11.4069   3
   9  23  -3 20.8534 12.0284   1
   3  -9 -23 34.6398 7.77204   1
 -23   9  -3 11.3890 9.88572   1
  -9  -5 -23 5968.49 200.456   3
   9  23  -5 6048.65 202.503   1
   5  -9 -23 5829.76 195.124   1
  23   5  -9 5689.76 198.438   3
  -9  23   5 5358.99 194.778   1
  -9 -23   5 5467.16 202.169   3
  23  -9   7 359.022 17.8252   3
  -9 -23   7 371.411 26.1707   3
 -23   7   9 367.926 17.4346   2
   7  23  -9 373.950 17.6889   4
  -9  -7 -23 397.119 22.6523   3
  -7  -9 -23 369.102 22.1671   1
  -9  -9 -23 3.11664 12.0553   1
  -9  23   9-5.90137 8.57979   4
 -23   9   9 0.32005 9.98827   2
   9  23   9 4.36613 8.65521   4
  -9  -9 -23 7.70754 11.4323   3
  23   1 -11 1891.16 74.7288   3
 -11 -23   1 1972.20 76.4249   3
 -11  -1 -23 1933.31 74.2906   3
  11  23   1 1969.01 77.0817   1
 -23  11  -1 1982.09 72.3076   1
   1  23  11 1967.21 69.2454   4
 -23  11   1 1908.35 70.9500   1
  11  23  -1 1942.11 77.1232   1
 -11 -23  -1 1940.59 75.8894   3
   1 -11 -23 1999.44 71.5487   1
  -1 -11 -23 1983.70 72.4914   1
 -23   3  11 4553.18 157.322   2
  -3 -11 -23 4556.24 161.556   1
   3 -11 -23 4543.34 158.576   1
  11  23   3 4606.90 165.170   1
   3  23  11 4618.99 157.297   4
  23   3 -11 4661.96 163.037   3
  -3  23  11 4547.87 157.348   4
 -11  23   3 4451.15 158.329   1
 -11  -3 -23 4646.77 162.643   3
 -11 -23  -3 4498.97 163.917   3
  11  23  -3 4688.24 157.490   4
 -23  11  -3 4584.78 161.509   1
 -11 -23   3 4557.06 165.046   3
   5  23 -11 1047.09 38.9233   4
  -5  23  11 1047.43 38.8209   4
  11  23  -5 1040.27 39.0210   4
   5  23  11 1073.05 38.9107   4
 -23   5  11 1079.75 39.0999   2
 -11 -23   5 985.099 46.2092   3
  23   5 -11 1059.44 43.9795   3
 -11  -5 -23 994.204 43.3551   3
  -5 -11 -23 999.757 43.3258   1
  11  23   5 1009.36 38.6420   4
  11  23   7 37.5135 9.06890   4
  11  23  -7 27.3805 10.1556   4
  23   7 -11 15.0571 11.1243   3
   7  23 -11 27.0618 10.6175   4
  23 -11   7 33.2666 8.30467   3
   7  23  11 38.5171 9.01880   4
 -11 -23   7 36.9180 13.1363   3
 -23   7  11 31.5568 9.84599   2
 -11  -7 -23 22.0240 11.1502   3
  -7  23  11 37.4934 9.28283   4
  -7 -11 -23 51.8254 11.2847   1
 -11  -9 -23 1745.82 68.3094   3
 -23   9  11 1712.54 63.8553   2
   9  23 -11 1731.50 63.9857   4
   9  23  11 1819.60 63.5906   4
  11  23   9 1831.61 63.5580   4
 -11  23   9 1823.75 63.3867   4
  -9  23  11 1791.52 63.5205   4
  11  23  11 1.79289 8.60288   4
 -11  23  11-4.80471 9.18647   4
  23   1 -13 1081.24 45.2693   3
 -23  13  -1 949.846 40.1416   1
   1  23  13 1020.57 38.1770   4
  -1 -13 -23 989.208 40.4703   1
  13  23  -1 1037.67 38.3253   4
  13  23   1 1074.85 38.4136   4
   1  23 -13 1008.19 38.0337   4
 -23   1  13 1020.38 38.2318   2
 -13 -23   1 975.181 44.2250   3
 -13 -23  -1 989.566 43.9965   3
 -13 -23  -3 3473.70 128.778   3
 -13 -23   3 3363.83 129.605   3
  23   3 -13 3470.05 129.313   3
  -3 -13 -23 3561.39 126.776   1
   3  23 -13 3594.47 122.912   4
  -3  23  13 3449.86 122.782   4
 -23   3  13 3585.77 122.903   2
   3  23  13 3669.14 122.934   4
  13  23   3 3563.04 122.769   4
  13  23  -3 3536.56 122.861   4
 -13 -23   5 1731.91 71.0298   3
  13  23   5 1806.42 63.6850   4
 -13 -23  -5 1737.64 69.3152   3
  -5 -13 -23 1664.04 67.9346   1
   5  23  13 1853.10 63.9952   4
 -23   5  13 1802.39 64.1974   2
  23   5 -13 1732.98 70.0276   3
  -5  23  13 1819.72 63.8337   4
  13  23  -5 1784.55 63.9774   4
   7  23  13 286.599 15.4494   4
  13  23  -7 298.898 16.1532   4
  -7 -13 -23 279.234 18.9854   1
 -13  23   7 295.471 14.4871   4
  -7  23  13 297.475 15.6181   4
  23   7 -13 303.594 20.5830   3
 -23   7  13 307.385 16.0075   2
  13  23   7 312.887 15.3489   4
 -13  23   9 274.297 14.4030   4
  13  23   9 290.989 14.7493   4
   9  23  13 275.114 14.9824   4
  13  23  -9 262.661 16.1285   4
  -9  23  13 257.042 14.9644   4
 -11  23  13 16.9460 9.88984   4
  11  23  13 4.64964 9.30359   4
 -13  23  11-0.30688 9.22325   4
  13  23  11 10.2718 8.60409   4
 -23  13  13-9.45874 11.0589   2
  13  23  13-6.85454 8.98898   4
 -13  23  13-2.61082 9.75346   4
  -1  23 -15 23.4443 9.26436   4
  15  23  -1 21.3456 9.70208   4
  23   1 -15 21.3207 12.6266   3
   1  23  15 30.5293 9.92873   4
  -1  23  15 6.99331 9.37068   4
 -15 -23   1 21.0215 11.2424   3
 -15 -23  -1 42.6835 11.8367   3
  23  -1 -15 36.8030 13.3555   3
   1  23 -15 36.5037 9.46649   4
 -23   1  15 13.2426 9.91739   2
  15  23   1 29.2380 9.93632   4
  15  23  -3 1171.70 43.2728   4
 -15 -23   3 1073.36 48.8212   3
  15  23   3 1187.50 43.0550   4
   3  23  15 1178.49 43.2478   4
 -23   3  15 1158.83 43.3506   2
  23   3 -15 1131.69 50.2734   3
  15  23   5 44.8054 9.42474   4
   5  23  15 35.0745 9.97480   4
 -15 -23   5 38.9856 12.3601   3
  23   5 -15 24.5295 13.1110   3
  -5  23  15 51.4192 9.84787   4
  15  23  -5 34.9301 10.4065   4
 -23   5  15 25.7255 10.3371   2
  15  23   7-2.73038 9.05655   4
  23   7 -15 21.1404 12.4636   3
  -7 -15 -23 30.6194 10.8273   1
   7  23  15 6.37561 9.53864   4
  -7  23  15-0.32744 10.0727   4
 -15  23   7 15.4924 8.13091   4
  15  23  -7 13.1446 11.0239   4
  -9  23  15 672.392 26.7399   4
  15  23   9 647.027 25.7930   4
 -15  23   9 612.596 25.3914   4
   9  23  15 637.689 26.2045   4
  15  23  -9 618.137 26.9462   4
  11  23  15 3170.45 111.368   4
 -11  15  23 3165.05 111.101   2
 -23  11  15 3226.42 112.057   2
  15  23  11 3218.77 111.170   4
 -15  23  11 3228.51 111.310   4
 -11  23  15 3211.83 111.596   4
  13  23  15 2499.95 86.5742   4
 -15  13  23 2455.84 86.9560   2
 -13  15  23 2459.06 86.6792   2
 -23  15  13 2411.46 87.4899   2
  15  23  13 2544.18 86.5293   4
 -23  13  15 2375.48 87.3860   2
  15  23  15 5.41581 9.20144   4
 -15  15  23 13.2856 10.6047   2
 -23  15  15-2.84827 12.2889   2
 -15  23  15 7.99210 10.4841   2
  23  17  -1 5251.28 179.110   4
  17  23   1 5217.57 179.651   4
  -1  23 -17 5283.19 179.493   4
  -1  23  17 5182.18 179.759   4
   1  23  17 5204.41 179.736   4
  17  23  -1 5236.93 179.754   4
   3  23  17 226.553 14.3201   4
 -23   3  17 248.587 15.2328   2
  17  23  -3 225.988 14.3185   4
  23  17  -3 246.133 13.2292   4
  17  23   3 232.034 13.9209   4
  -3  23 -17 230.586 13.2714   4
 -17  23   5 2042.32 70.8717   4
  17  23   5 2015.59 71.5764   4
  -5  23 -17 1986.66 70.9643   4
  17  23  -5 1981.68 71.9474   4
   5  23  17 2029.98 71.8976   4
  23  17  -5 2051.39 71.4955   4
   7  17  23 456.158 20.3791   4
  17  23   7 457.836 20.5353   4
   7  23  17 470.225 21.2414   4
  -7  23  17 496.404 21.6680   4
 -17  23   7 482.293 20.0240   4
  17  23  -7 471.755 21.9287   4
   9  23  17 1921.99 66.9162   4
  -9  23  17 1825.36 65.9937   2
  17  23  -9 1863.22 67.3568   4
 -23   9  17 1855.95 67.4836   2
   9  17  23 1866.08 66.2749   4
  17  23   9 1853.55 66.4358   4
  -9  23  17 1914.42 67.1866   4
 -11  23  17 921.613 35.8230   2
 -11  17  23 934.970 35.7973   2
  11  23  17 961.741 36.3663   4
  17  23 -11 942.008 37.2846   4
  17  23  11 925.658 35.8247   4
 -23  11  17 1029.13 37.8010   2
 -13  23  17 258.302 14.9546   2
 -17  13  23 258.512 16.1835   2
 -23  13  17 266.913 17.2060   2
 -13  17  23 246.955 14.7071   2
  17  23  13 237.272 14.2060   4
 -23  17  13 248.084 17.1221   2
  13  23  17 243.168 14.3440   4
 -15  23  17 36.8978 10.8816   2
 -23  17  15 30.8901 13.0339   2
  17  23  15 27.3899 9.30897   4
 -17  15  23 34.3196 11.7859   2
 -23  15  17 37.5628 13.4882   2
  15  23  17 33.9534 9.30230   4
 -15  17  23 27.0959 10.5640   2
 -17  23  15 37.4079 11.5181   2
  17  23  17 1.89425 9.27595   4
 -17  17  23-5.90101 11.9353   2
 -17  23  17 5.14057 11.7048   2
 -23  17  17-2.16836 13.4698   2
   1  23  19 192.570 13.6714   4
  23  19  -1 165.496 11.8681   4
  -1  23  19 170.808 13.9565   4
  23  19   1 179.951 11.8084   4
  -1  23 -19 154.686 12.1838   4
  19  23   1 181.510 12.9032   4
  19  23  -1 180.304 13.2655   4
  23  19   3 784.233 30.3625   4
  19  23   3 837.959 31.3254   4
  -3  23  19 779.534 31.9591   4
   3  23  19 782.883 31.7466   4
  -3  23 -19 780.890 30.7751   4
   3  19  23 809.544 31.5653   4
  19  23  -3 817.104 31.7800   4
  23  19  -3 793.638 31.1028   4
  19  23  -5 598.676 27.0316   4
   5  19  23 621.790 26.7465   4
  23  19   5 651.628 25.3335   4
  23  19  -5 672.626 26.8268   4
  19  23   5 653.036 26.3890   4
   5  23  19 671.762 27.3022   4
  -5  23 -19 680.845 25.7500   4
  23  19  -7 5687.44 195.231   4
 -23   7  19 5561.13 195.573   2
  19  23  -7 5676.65 195.460   4
  -7  23  19 5632.14 195.453   4
   7  23  19 5722.99 195.151   4
  19  23   7 5740.73 194.803   4
   7  19  23 5734.38 194.990   4
  19  23   9 1445.76 52.2129   4
 -23   9  19 1478.57 53.6673   2
   9  19  23 1412.80 52.3052   4
  19  23  -9 1438.22 53.4514   4
   9  23  19 1437.25 52.6636   4
  11  23  19 343.153 17.1347   4
 -23  11  19 310.523 18.7494   2
  11  19  23 332.498 16.5914   4
  19  23 -11 355.856 19.1519   4
 -11  23  19 330.685 16.1442   2
  19  23  11 329.141 16.3894   4
 -11  19  23 332.418 16.1630   2
 -23  13  19 1920.76 67.9238   2
 -23  19  13 1842.64 67.9706   2
 -19  13  23 1860.84 67.6563   2
  13  19  23 1835.35 66.0196   4
 -13  23  19 1834.79 66.6275   2
  13  23  19 1893.16 66.6069   4
  19  23  13 1872.01 66.2411   4
 -13  19  23 1845.67 66.6022   2
 -15  23  19 637.539 27.3297   2
  19  23  15 665.289 26.0122   4
 -19  15  23 632.170 27.9594   2
 -15  19  23 642.439 27.3039   2
  15  23  19 639.807 26.4625   4
 -23  15  19 637.675 29.0854   2
 -19  23  15 633.908 28.0562   2
 -23  19  15 685.846 29.1082   2
 -19  23  17 5103.58 179.036   2
 -17  23  19 5115.35 178.833   2
  19  23  17 5108.02 177.685   4
  17  23  19 5100.67 177.785   4
 -23  17  19 5316.85 179.543   2
 -19  17  23 5218.83 179.078   2
 -17  19  23 5282.08 178.959   2
 -23  19  17 5301.15 179.519   2
 -19  23  19 14.8295 12.7658   2
 -19  19  23 11.8863 12.8075   2
  19  23  19 9.02491 8.46835   4
 -23  19  19-19.1688 13.9542   2
  23  21   1 141.941 11.4466   4
  21  23  -1 155.744 12.7185   4
   1  21  23 132.381 13.2841   4
   1  23  21 138.169 13.6180   4
  21  23   1 139.241 12.2495   4
  23  21  -1 154.563 11.9515   4
  -1  23  21 146.072 13.6801   4
  23  21  -3 1275.97 47.8602   4
   3  23  21 1277.71 48.5308   4
  -3  23 -21 1259.94 47.5423   4
  21  23  -3 1363.30 48.4354   4
  -3  23  21 1277.00 48.6124   4
   3  21  23 1278.18 48.3988   4
  21  23   3 1298.70 47.8374   4
  23  21   3 1367.48 47.5141   4
  23  21   5 327.275 15.5960   4
  -5  21 -23 348.574 15.8446   4
  -5  23 -21 311.724 15.5126   4
   5  23  21 326.319 17.8425   4
  23  21  -5 332.874 17.3618   4
   5  21  23 326.707 17.7483   4
  21  23  -5 305.560 17.6341   4
  21  23   5 342.068 16.5704   4
   7  21  23 788.269 30.3063   4
  23  21  -7 750.277 30.5821   4
   7  23  21 741.442 30.3782   4
  21  23  -7 721.076 30.6466   4
  23  21   7 731.205 28.6195   4
  21  23   7 737.390 29.2660   4
   9  23  21 986.982 37.9696   4
  21  23  -9 1001.67 38.8225   4
 -23   9  21 994.686 39.3671   2
   9  21  23 991.599 37.8570   4
  21  23   9 954.540 36.9461   4
  23  21  -9 1007.10 38.7701   4
  11  21  23 2164.08 75.9597   4
  21  23 -11 2137.14 77.3186   4
 -11  21  23 2094.73 75.5857   2
  11  23  21 2189.10 76.2179   4
  21  23  11 2103.56 75.4561   4
 -23  11  21 2181.84 77.4242   2
 -11  23  21 2151.21 75.6490   2
 -21  13  23 762.301 31.1089   2
 -13  21  23 738.036 29.0685   2
  13  21  23 730.764 28.7164   4
  21  23 -13 733.729 31.1760   4
  13  23  21 723.917 28.9942   4
  21  23  13 713.020 28.2160   4
 -23  21  13 717.588 31.5015   2
 -13  23  21 689.378 29.0856   2
 -23  13  21 699.931 31.1801   2
 -23  21  15 2414.71 84.4899   2
 -21  23  15 2341.17 84.1907   2
  21  23  15 2318.45 82.1346   4
 -21  15  23 2275.00 84.0089   2
 -23  15  21 2283.84 84.2808   2
 -15  21  23 2355.67 83.1472   2
  15  21  23 2387.81 82.3934   4
  15  23  21 2349.23 82.6835   4
 -15  23  21 2352.26 83.1558   2
  17  23  21 12.0732 9.13043   4
 -17  21  23 31.7867 12.6265   2
 -23  21  17 3.64118 13.9373   2
 -21  23  17 24.8316 13.6276   2
 -21  17  23 16.8364 13.2117   2
 -17  23  21 10.4877 12.3055   2
 -23  17  21 7.73930 13.5324   2
 -19  23  21 1026.05 40.3633   2
 -19  21  23 1061.54 40.2832   2
 -21  23  19 975.494 40.7635   2
 -23  19  21 1051.55 41.4112   2
 -21  19  23 992.770 40.8043   2
 -23  21  19 1017.74 41.0674   2
 -21  23  21 4.46429 13.7645   2
 -23  21  21 20.4041 14.2883   2
 -21  21  23 8.94593 12.6222   2
  23  23   1 13.0217 9.83306   4
  23  23  -1-0.71937 10.4513   4
  -1  23  23-1.97345 11.9389   4
   1  23  23-1.17133 12.0462   4
  23  23   3 11.2287 9.88722   4
  23  23  -3 10.6919 10.4563   4
   3  23  23 9.65520 11.9802   4
  -3  23 -23 17.6152 9.74324   4
  23  23   5 9.31200 9.36753   4
   5  23  23 1.91124 11.3246   4
  23  23  -5-3.78475 10.9949   4
  -5  23 -23 27.3766 8.92228   4
  23  23  -7 1.97981 12.2548   4
   7  23  23 11.3109 11.6317   4
  23  23   7 10.2481 8.61421   4
  23  23   9 8.69473 8.45954   4
  23  23  -9 23.9802 13.0486   4
   9  23  23-0.37027 11.2718   4
  23  23  11 9.42969 8.55054   4
  23  23 -11 12.5616 13.2164   4
 -11  23  23 16.2797 8.98307   2
  11  23  23 3.25184 10.2017   4
 -13  23  23 5.24347 9.18167   2
  23  23 -13 1.34761 13.3339   4
  13  23  23 3.14244 10.1746   4
 -23  23  13-9.64448 14.6194   2
 -15  23  23 3.76857 10.6620   2
 -23  23  15 22.6873 15.5728   2
 -23  15  23 20.2902 14.5038   2
  15  23  23 18.3650 9.94454   4
 -23  23  17 8.78697 14.8346   2
 -17  23  23 12.4673 11.8984   2
  17  23  23 9.40294 8.89178   4
 -23  17  23-9.76013 14.6567   2
 -19  23  23 22.9087 12.6964   2
 -23  19  23 7.44693 13.5802   2
 -23  23  19-8.38667 13.9388   2
 -23  23  21-15.2414 14.8224   2
 -21  23  23 0.44295 13.2401   2
 -23  21  23 5.55616 14.7659   2
 -23  23  23 0.45553 14.2163   2
   0   0 -24 99869.5 3369.66   3
   0  24   0 99421.4 3365.80   1
  -2   0 -24 793.515 37.9586   3
   0   2 -24 861.543 40.1264   3
   2  24   0 848.930 35.6051   1
 -24   0  -2 748.588 34.2303   1
   0  -2 -24 789.555 38.6786   3
   0  24   2 792.710 33.8511   1
  24  -2   0 698.695 27.8625   3
   2   0 -24 943.884 40.9320   3
 -24   2   0 771.521 33.4116   1
  24   0  -2 729.137 28.5105   3
 -24  -2  -2 749.486 35.6969   1
   2   2 -24 833.666 40.5741   3
 -24   2  -2 813.309 35.7228   1
   2  -2 -24 881.093 41.1822   3
  -2  24   2 779.654 34.1330   1
   2  24   2 797.304 35.5997   1
  -2   2 -24 802.110 39.5524   3
  -2  -2 -24 768.083 38.6591   3
   4  24   0 10204.2 337.508   1
 -24   0  -4 9825.68 336.853   1
  24   0  -4 9355.21 332.346   3
   4   0 -24 9698.87 340.756   3
   0   4 -24 9552.88 339.978   3
 -24   4   0 9743.14 334.878   1
  -4   0 -24 9860.80 339.089   3
   0  24   4 9944.38 335.333   1
  -4  24   2 13009.9 442.847   1
  -4  -2 -24 13067.8 447.157   3
  -2   4 -24 12951.2 448.045   3
 -24   4  -2 12408.5 443.567   1
  -2  -4 -24 13592.6 448.321   3
   2   4 -24 13111.1 448.975   3
   4  -2 -24 13367.0 449.493   3
 -24  -2  -4 12611.1 445.102   1
  -2  24   4 12844.1 442.850   1
  24   2  -4 12786.1 440.123   3
 -24   2  -4 13046.8 444.846   1
   2  24   4 13281.1 444.370   1
  -4   2 -24 13211.4 447.646   3
   4  24  -2 12513.5 445.352   1
   4  24   2 13250.0 445.226   1
   4   2 -24 12702.3 448.841   3
  -4   4 -24 8394.04 290.264   3
  -4  24   4 8151.69 284.517   1
   4  24   4 8112.94 286.960   1
 -24   4  -4 8249.92 286.999   1
  -4 -24   4 8372.55 290.689   3
 -24  -4  -4 8142.45 287.879   1
  -4  -4 -24 8630.42 289.963   3
   4   4 -24 8256.09 291.431   3
  24   0  -6 2307.64 81.4536   3
   6   0 -24 2153.84 88.1202   3
  -6   0 -24 2286.08 85.9195   3
 -24   6   0 2156.31 81.6963   1
   6  24   0 2139.37 84.3188   1
   0  24   6 2316.83 82.4125   1
 -24   0  -6 2223.48 84.5032   1
   0   6 -24 2175.66 87.9636   3
   2  24   6 546.067 26.6361   1
  -6 -24   2 526.737 31.0234   3
   6  24   2 540.402 28.8821   1
 -24   6  -2 559.719 26.7087   1
   6   2 -24 548.742 31.9045   3
  24   2  -6 550.449 24.5957   3
  -6  -2 -24 544.848 28.7119   3
  -2  24   6 551.871 25.2288   1
 -24   2  -6 545.535 28.3964   1
 -24  -2  -6 544.320 29.3549   1
  -2   6 -24 567.118 32.3389   3
   6  24  -2 554.205 28.8622   1
  -6   2 -24 621.548 30.2953   3
   6  -2 -24 567.481 31.9399   3
  -6  24   2 546.249 24.8892   1
   2   6 -24 506.643 31.4142   3
  -6 -24   4 1044.43 47.7458   3
  24  -6   4 990.779 38.5440   3
  -4  24   6 1070.60 41.4161   1
   6  24   4 1158.86 45.8635   1
 -24  -4  -6 1057.36 46.2520   1
  -6  24   4 1025.16 40.8425   1
   6   4 -24 1053.38 48.8005   3
 -24   6  -4 1074.06 44.1452   1
  -6  -4 -24 1076.26 46.1299   3
  -4   6 -24 1080.00 48.1443   3
  24   4  -6 1020.12 40.7053   3
   4  24   6 1092.69 44.5653   1
  -6   4 -24 1119.98 47.0760   3
 -24   4  -6 1074.10 45.1407   1
   4   6 -24 1031.24 48.6707   3
   6  24  -4 1097.16 46.6487   1
   6  24   6 9623.75 327.737   4
  -6  -6 -24 9819.27 335.478   3
  -6  24   6 9555.77 329.606   1
   6  24  -6 9718.17 327.843   4
 -24   6  -6 9434.71 333.794   1
  24   0  -8 769.308 33.7595   3
 -24   8   0 787.642 32.7244   1
   8  24   0 797.510 37.2316   1
  -8 -24   0 750.727 37.1491   3
 -24   0  -8 769.978 36.1166   1
  -8   0 -24 747.570 35.9381   3
   0   8 -24 777.714 39.9132   3
 -24   2  -8 1684.29 68.1690   1
  -8  -2 -24 1768.24 67.9902   3
   8  24  -2 1766.14 68.7635   1
   8  24  -2 1670.87 61.1713   4
 -24   8  -2 1756.94 65.4282   1
  -8   2 -24 1714.49 68.0914   3
  -8 -24   2 1783.40 69.7665   3
  24   2  -8 1733.60 65.1256   3
   8  24   2 1659.11 67.6572   1
  -4  24   8 17.6386 8.74254   4
  -8 -24   4 18.4340 14.9369   3
   8  24   4 13.5111 9.34286   4
  -8  -4 -24 43.9054 12.5927   3
   8  24  -4 33.8098 12.7546   1
   4  24   8 6.09937 8.64744   4
 -24   8  -4 11.8307 10.2985   1
  -8  24   4 7.06657 5.98353   1
   8  24   4 31.2211 11.9200   1
  24   4  -8 6.88339 9.01286   3
 -24   4  -8 11.5878 13.2771   1
 -24   6  -8 4.20197 10.8378   1
   6  24  -8 11.9799 9.25774   4
  -8  -6 -24 8.17757 11.4795   3
 -24   8  -6 2.84990 10.4852   1
   6  24   8 19.2173 9.09282   4
   8  24   6 5.31357 8.89106   4
  -6  24   8 0.57131 8.53957   4
 -24   6   8 11.9318 9.73086   2
  -8  24   8 803.560 31.0458   4
   8  24   8 815.279 31.3180   4
 -24   8   8 794.631 31.6275   2
  -8  -8 -24 818.531 37.6481   3
   8  24  -8 814.112 31.8071   4
  24   0 -10 3694.69 133.672   3
 -24  10   0 3549.25 130.882   1
  10  24   0 3870.75 128.550   4
   0 -10 -24 3732.06 131.558   1
 -10   0 -24 3687.51 134.403   3
 -10 -24   0 3542.87 135.513   3
   2 -10 -24 961.321 38.8086   1
   2  24  10 1014.57 37.4069   4
  10  24   2 970.163 44.4068   1
 -10  -2 -24 964.028 42.6621   3
 -10 -24   2 967.812 44.4785   3
  -2 -10 -24 936.119 40.5087   1
   2  24 -10 993.011 37.1798   4
 -24   2  10 999.381 37.1837   2
  24   2 -10 1016.19 42.1991   3
  10  24   2 992.661 37.3330   4
  -2  24  10 1024.77 37.4667   4
 -10 -24  -2 926.305 43.4755   3
  10  24  -2 1048.08 37.7056   4
 -24  10   2 974.030 38.4296   1
 -24  10  -2 989.857 40.6848   1
  -4  24  10 46.7150 9.25915   4
  24   4 -10 65.6756 11.2378   3
  10  24   4 60.3379 9.65885   4
  10  24   4 58.4195 15.2450   1
 -24  10  -4 52.0350 11.1690   1
  10  24  -4 61.4981 9.77124   4
   4  24 -10 47.6610 9.70109   4
  -4 -10 -24 38.2016 10.5430   1
 -10 -24   4 53.5006 13.3082   3
   4  24  10 68.5613 9.96328   4
 -10  -4 -24 50.2694 11.9990   3
 -24   4  10 61.3265 9.81748   2
  10  24   6 2814.78 99.7194   4
   6  24  10 2960.75 99.8480   4
  -6  24  10 2848.05 99.7056   4
  -6 -10 -24 2670.32 104.951   1
  24   6 -10 2756.65 104.172   3
 -10  -6 -24 2906.94 105.887   3
   6  24 -10 2935.04 100.027   4
 -24   6  10 2870.44 100.002   2
 -10  -8 -24 39.1240 11.3772   3
 -10  24   8 24.7805 8.55926   4
  10  24   8 24.3868 9.55427   4
  -8  24  10 20.1054 9.53787   4
   8  24 -10 17.3007 10.0018   4
   8  24  10 26.4635 9.50695   4
 -24   8  10 20.6546 9.81166   2
  10  24  10 172.530 12.5729   4
 -24  10  10 162.110 12.9539   2
 -10  24  10 178.869 12.1130   4
  24   0 -12 10409.4 374.285   3
  12  24   0 11155.5 368.199   4
 -24   0  12 10659.7 367.958   2
 -12 -24   0 10546.6 375.202   3
   0  24 -12 10901.1 367.887   4
  24   2 -12 422.455 23.8657   3
 -12 -24   2 343.318 23.8704   3
 -24  12  -2 426.590 21.0223   1
  12  24   2 442.649 18.9321   4
  12  24  -2 406.391 19.0722   4
   2  24 -12 400.794 18.6436   4
  -2 -12 -24 375.980 20.3172   1
 -24   2  12 389.120 18.9420   2
   2  24  12 424.538 18.9685   4
 -12 -24  -2 388.787 24.1799   3
   4  24 -12 756.483 30.5820   4
  12  24   4 811.695 30.5414   4
  -4  24  12 819.294 30.6663   4
 -12 -24   4 697.532 37.1940   3
 -12  -4 -24 744.520 34.5201   3
  -4 -12 -24 802.116 34.4292   1
 -12 -24  -4 768.191 36.3842   3
   4  24  12 827.304 30.9073   4
  12  24  -4 798.165 30.7978   4
 -24  12  -4 724.934 33.9824   1
 -24   4  12 766.757 30.7390   2
  24   4 -12 718.984 35.3242   3
  -6  24  12 14.9981 9.53638   4
  12  24   6 20.6693 9.30336   4
  24   6 -12 17.4166 11.3204   3
  12  24  -6 10.9830 9.96918   4
  -6 -12 -24 17.6858 9.78360   1
 -24   6  12 7.39476 10.1195   2
   6  24 -12 40.2537 10.6323   4
   6  24  12 21.3245 9.66207   4
 -12  24   6 13.2342 8.03895   4
   8  24 -12 581.219 25.7666   4
 -12  24   8 614.572 24.7640   4
   8  24  12 613.411 25.1498   4
  -8  24  12 617.924 25.2482   4
  12  24   8 632.780 25.1567   4
  12  24  -8 633.052 25.8436   4
 -24   8  12 601.746 25.6389   2
  12  24  10 707.542 27.3834   4
 -12  24  10 666.664 27.0083   4
 -10  24  12 684.090 27.4784   4
  10  24 -12 650.734 27.9794   4
  10  24  12 677.660 27.4003   4
 -12  24  12 471.847 21.3140   4
  12  24  12 491.759 21.2911   4
  14  24   0 1568.41 56.0785   4
  24   0 -14 1481.29 62.8748   3
   0  24  14 1542.31 56.0423   4
 -14 -24   0 1453.14 61.7887   3
   0  24 -14 1588.21 55.7117   4
  -2  24 -14 282.200 14.2017   4
 -14 -24   2 226.730 18.7524   3
  24   2 -14 247.139 19.5972   3
  14  24  -2 263.568 14.9621   4
   2  24 -14 266.206 14.9535   4
 -24   2  14 246.291 14.7942   2
   2  24  14 243.895 14.7955   4
  14  24   2 253.262 15.0803   4
 -24   4  14 89.0093 11.6858   2
  -4  24  14 103.029 11.8887   4
  24   4 -14 91.0959 14.7601   3
  14  24   4 97.9796 11.1104   4
   4  24  14 82.0342 10.9759   4
   4  24 -14 85.4358 11.3311   4
 -14 -24   4 78.0729 13.7884   3
  14  24  -4 99.2077 11.5948   4
  -4  24 -14 91.6610 9.34249   4
  14  24   6 2990.78 102.224   4
   6  24  14 2951.51 102.406   4
  24   6 -14 2684.53 108.531   3
   6  24 -14 2961.82 102.614   4
  14  24  -6 2910.54 102.579   4
 -14  24   6 2930.75 101.698   4
 -24   6  14 2914.18 102.679   2
  -6  24  14 2946.29 102.432   4
  14  24   8 11.6170 9.36563   4
  14  24  -8-4.29804 10.9608   4
 -14  24   8 0.29426 8.76257   4
  -8  24  14-0.66542 10.5074   4
   8  24  14 4.58117 10.0205   4
 -14  24  10 265.596 14.9140   4
  10  24  14 253.860 15.3747   4
 -10  24  14 266.066 15.6843   4
  14  24 -10 285.567 16.7088   4
  14  24  10 285.342 15.0960   4
  12  24  14 299.494 15.5737   4
 -14  24  12 274.141 15.7176   4
  14  24 -12 277.116 17.2023   4
  14  24  12 268.982 15.0416   4
 -12  24  14 267.550 15.9134   4
 -24  14  14 785.854 32.9739   2
  14  24  14 805.475 31.5244   4
  16  24   0 2730.10 92.6492   4
   0  24  16 2609.42 92.5853   4
   0  24 -16 2572.74 92.2420   4
   2  24 -16 1799.64 65.2055   4
  16  24   2 1834.26 65.1778   4
 -24   2  16 1697.54 65.5796   2
  16  24  -2 1870.35 65.4781   4
   2  24  16 1805.82 65.4029   4
  24  16  -2 1891.31 64.4656   4
  -2  24 -16 1827.25 64.8720   4
  16  24   4 1499.16 55.0383   4
  16  24  -4 1540.29 55.5100   4
 -16  24   4 1482.57 54.0728   4
 -24   4  16 1540.16 55.5816   2
   4  24  16 1580.64 55.4220   4
  -4  24 -16 1535.61 54.5135   4
  24  16  -4 1567.71 54.6466   4
   4  24 -16 1420.05 55.3200   4
  16  24   6 521.831 21.9665   4
   6  24  16 509.776 22.5209   4
  -6  24 -16 511.536 20.8841   4
  -6  24  16 466.969 22.5041   4
 -16  24   6 520.003 21.1010   4
  16  24  -6 484.953 22.9311   4
  16  24   8 90.7101 10.8689   4
 -16  24   8 80.1627 9.80522   4
   8  24  16 83.2386 11.0818   4
  16  24  -8 91.2474 12.6481   4
  -8  24  16 95.1051 11.4166   4
  16  24  10 3710.17 128.632   4
 -10  24  16 3645.02 128.404   2
  16  24 -10 3713.46 129.496   4
 -16  24  10 3726.12 128.641   4
  10  24  16 3802.37 128.998   4
 -10  24  16 3721.19 129.209   4
  16  24  12 237.815 13.7403   4
 -24  16  12 233.868 16.5540   2
 -12  24  16 216.546 13.8472   2
 -12  24  16 217.293 14.8310   4
  16  24 -12 203.707 16.1520   4
  12  24  16 226.436 14.2588   4
 -24  12  16 224.092 16.4219   2
  16  24  14 26.2584 9.93102   4
 -24  14  16 11.3541 12.4273   2
  14  24  16 5.39608 9.40817   4
 -24  16  14 28.7789 12.9141   2
 -14  24  16 8.26902 10.4354   2
 -16  16  24 303.269 17.6355   2
 -16  24  16 281.562 17.1528   2
  16  24  16 300.930 16.2464   4
 -24  16  16 336.927 19.0636   2
  18  24   0 3073.12 106.302   4
   0  24  18 3032.11 106.385   4
  24  18   0 3076.29 105.481   4
   0  24 -18 2972.22 106.030   4
  18  24   2 3508.72 122.713   4
  -2  24 -18 3623.83 122.526   4
   2  24  18 3496.83 122.998   4
  24  18  -2 3507.91 122.185   4
  18  24  -2 3649.20 123.063   4
  -2  24  18 3463.81 122.996   4
   2  24 -18 3526.71 122.856   4
  24  18   2 3506.40 121.909   4
   4  24  18 9330.46 315.001   4
  18  24   4 9277.43 314.718   4
  24  18  -4 9351.77 314.603   4
  18  24  -4 9129.97 315.002   4
  -4  24 -18 9111.10 314.358   4
  -6  24  18 549.113 23.7567   4
   6  24  18 495.603 22.9472   4
  18  24   6 507.664 22.4114   4
  18  24  -6 534.602 23.7531   4
 -18  24   6 521.672 21.3266   4
  24  18  -6 528.116 22.7242   4
  -6  24 -18 521.110 21.5172   4
   8  24  18 188.521 14.0964   4
  -8  24  18 200.946 14.9870   4
  18  24  -8 178.046 14.8351   4
  18  24   8 202.235 12.9725   4
  10  24  18 29.2467 10.5534   4
 -10  24  18 34.4253 12.0706   4
 -24  10  18 21.4027 12.6017   2
  18  24 -10 11.2796 12.1805   4
 -10  24  18 29.3353 8.71857   2
  18  24  10 19.2004 9.18856   4
 -24  18  12 31.7642 13.3189   2
 -12  24  18 24.0778 9.45325   2
  18  24 -12 31.7999 12.8215   4
 -24  12  18 26.3567 12.8712   2
  12  24  18 9.31866 10.2556   4
  18  24  12 27.8114 9.69682   4
 -24  18  14 1526.18 55.2227   2
 -24  14  18 1583.36 55.5891   2
 -14  18  24 1418.96 53.5790   2
  14  24  18 1418.83 53.4778   4
  18  24  14 1424.90 53.2338   4
 -14  24  18 1503.86 53.8009   2
  18  24  16 846.324 32.6968   4
 -18  24  16 851.626 34.2067   2
 -18  16  24 833.759 34.3559   2
 -16  18  24 862.033 33.7215   2
 -24  16  18 821.258 34.9881   2
 -16  24  18 836.293 33.6346   2
 -24  18  16 817.526 34.9148   2
  16  24  18 841.762 32.6165   4
 -18  18  24 2280.48 81.2439   2
  18  24  18 2186.28 79.7911   4
 -24  18  18 2370.65 81.9223   2
 -18  24  18 2276.62 81.2249   2
   0  24 -20 4440.76 156.625   4
  24  20   0 4584.36 156.292   4
  20  24   0 4502.14 156.726   4
   0  24  20 4640.22 157.089   4
  24  20   2 2183.07 76.0335   4
  20  24   2 2149.01 76.6514   4
  -2  24  20 2152.11 77.1692   4
  24  20  -2 2154.97 76.3350   4
  -2  24 -20 2159.49 76.4601   4
  20  24  -2 2177.56 76.9633   4
   2  24  20 2129.79 77.0767   4
  20  24  -4 481.165 23.5717   4
  24  20  -4 531.910 23.0178   4
  20  24   4 519.152 22.7787   4
  24  20   4 541.275 21.8103   4
   4  24  20 556.384 23.6201   4
  -4  24 -20 532.159 22.3069   4
  20  24   6 3729.01 129.821   4
  24  20  -6 3767.88 130.133   4
   6  24  20 3846.97 130.372   4
  -6  24 -20 3682.73 129.231   4
  20  24  -6 3741.79 130.466   4
   8  24  20 456.821 21.5718   4
  24  20  -8 468.468 21.8742   4
  20  24  -8 469.878 22.3701   4
  20  24   8 460.405 20.4696   4
 -24   8  20 458.715 23.2343   2
 -10  24  20 1359.74 49.6393   2
  10  24  20 1388.65 50.7232   4
  24  20 -10 1400.28 51.1759   4
  20  24 -10 1408.00 51.4336   4
  20  24  10 1325.02 49.8560   4
 -24  10  20 1349.98 51.8837   2
 -12  20  24 2038.56 73.9968   2
  20  24  12 2131.00 73.9726   4
 -24  12  20 2172.37 75.8638   2
 -12  24  20 2039.75 74.0935   2
  12  24  20 2091.83 74.4431   4
  20  24 -12 2102.39 75.7019   4
 -24  20  12 2082.90 75.7969   2
 -14  24  20 5376.76 188.677   2
  20  24 -14 5484.69 189.796   4
 -24  20  14 5521.97 189.886   2
 -14  20  24 5582.54 188.769   2
 -20  24  14 5416.60 189.564   2
  14  24  20 5473.37 188.538   4
  20  24  14 5409.74 188.167   4
 -24  14  20 5707.96 189.906   2
 -16  24  20 605.987 27.0120   2
 -24  16  20 657.920 29.5109   2
  16  24  20 687.684 26.6139   4
 -24  20  16 651.964 29.2779   2
 -16  20  24 611.640 27.1823   2
  20  24  16 643.790 26.0102   4
 -24  18  20 2006.09 69.0710   2
 -20  24  18 1876.20 68.1987   2
 -20  18  24 1953.01 68.4727   2
 -18  20  24 1834.82 67.9156   2
  18  24  20 1782.15 66.4465   4
 -24  20  18 1924.61 69.0440   2
  20  24  18 1800.93 66.2026   4
 -18  24  20 1902.04 67.9462   2
 -20  20  24 1107.13 42.6067   2
 -20  24  20 1085.76 42.2574   2
 -24  20  20 1019.38 42.7626   2
  24  22   0 420.182 19.7822   4
  22  24   0 433.028 20.2723   4
   0  24  22 441.240 21.3532   4
   0  24 -22 416.806 20.1667   4
  22  24  -2 964.549 37.0696   4
  24  22  -2 952.132 36.6234   4
  24  22   2 939.967 36.0645   4
   2  24  22 956.662 37.2795   4
  -2  24 -22 938.354 36.4388   4
  22  24   2 949.242 36.5720   4
  -2  24  22 927.555 37.6956   4
  22  24   4 1077.58 40.8175   4
  -4  22 -24 1082.03 40.3963   4
  24  22   4 1084.83 40.3240   4
   4  24  22 1130.05 41.7643   4
  -4  24 -22 1054.37 40.3004   4
  24  22  -4 1084.00 41.1308   4
  22  24  -4 1104.60 41.5625   4
   4  22  24 1068.73 41.4402   4
   6  22  24 257.079 16.0989   4
  22  24   6 248.142 14.6255   4
  24  22  -6 257.146 15.9198   4
   6  24  22 232.714 16.0998   4
  22  24  -6 263.706 16.5467   4
  24  22   6 257.156 13.5604   4
  24  22   8 8.67643 8.19585   4
  22  24   8 1.29053 9.10072   4
   8  24  22-2.26690 11.7874   4
  24  22  -8 3.18971 12.0441   4
   8  22  24-3.66064 11.2755   4
  22  24  -8-2.04813 12.3403   4
  10  24  22 732.206 29.8834   4
  22  24 -10 728.357 31.0007   4
  24  22 -10 683.544 30.7711   4
  10  22  24 732.202 29.5935   4
  22  24  10 720.989 28.5902   4
  12  22  24 41.5102 10.5503   4
  22  24 -12 57.5093 14.0038   4
  12  24  22 34.4528 10.8469   4
 -12  22  24 49.3635 9.73160   2
  22  24  12 44.0143 9.46314   4
  24  22 -12 65.9265 13.7267   4
 -24  12  22 33.8631 14.6890   2
 -24  22  12 41.0425 14.7483   2
 -12  24  22 50.7069 9.83763   2
  22  24 -14 70.4157 15.5846   4
 -14  22  24 81.5112 11.4057   2
  22  24  14 73.7801 9.49082   4
 -24  22  14 71.7586 15.3657   2
 -24  14  22 105.016 15.9092   2
  14  24  22 79.4155 11.5667   4
 -14  24  22 84.8645 11.0155   2
 -22  24  14 72.0197 15.0202   2
 -22  24  16 874.692 36.8088   2
 -24  16  22 927.981 37.4765   2
 -16  22  24 835.549 35.1404   2
 -16  24  22 879.900 35.4765   2
  22  24 -16 941.512 37.5205   4
  16  24  22 888.677 34.5828   4
 -24  22  16 947.852 37.3195   2
 -18  24  22 17.3268 12.3543   2
 -22  24  18 16.4398 14.2494   2
 -24  22  18 19.4225 15.3705   2
 -22  18  24 41.3438 14.2749   2
 -18  22  24 17.3948 12.9395   2
  18  24  22 29.3152 9.12367   4
 -24  18  22 8.04112 15.2711   2
 -22  20  24 806.758 33.2714   2
 -24  20  22 794.199 33.8668   2
 -20  24  22 722.204 32.2334   2
 -24  22  20 715.146 33.5540   2
 -20  22  24 782.358 32.2927   2
 -22  24  20 776.569 33.3343   2
 -22  22  24 830.707 34.4774   2
 -24  22  22 778.992 34.3016   2
 -22  24  22 811.525 34.1521   2
  24  24   0 532.726 23.0186   4
   0  24 -24 491.418 23.1302   4
  24  24   2 203.561 14.0133   4
  24  24  -2 252.190 15.3474   4
  -2  24 -24 229.560 14.6539   4
  24  24   4 4360.45 152.601   4
  24  24  -4 4541.30 153.466   4
   4  24  24 4444.84 153.508   4
  -4  24 -24 4384.37 152.537   4
  24  24   6 136.010 11.4745   4
   6  24  24 122.387 13.9143   4
  24  24  -6 132.838 14.3504   4
  24  24  -8 247.106 17.5518   4
  24  24   8 239.026 13.9165   4
   8  24  24 266.572 16.2778   4
  10  24  24 549.541 24.5447   4
  24  24 -10 544.162 25.9448   4
  24  24  10 541.044 22.6369   4
 -24  24  12 593.163 28.5141   2
  12  24  24 577.545 25.4959   4
  24  24 -12 606.430 27.7196   4
 -14  24  24 25.9416 10.4797   2
 -24  24  14 9.50789 14.9532   2
  24  24 -14 1.40806 15.2685   4
  14  24  24 3.85886 9.83384   4
  24  24 -16 5817.03 199.319   4
 -16  24  24 5687.09 197.988   2
 -24  24  16 5789.26 199.112   2
 -18  24  24 621.090 27.1090   2
  24  24 -18 652.770 30.5010   4
 -24  24  18 607.018 29.5353   2
 -24  20  24 154.994 16.5182   2
 -20  24  24 145.224 15.2600   2
 -24  24  20 149.514 17.3559   2
 -24  22  24 148.687 16.5930   2
 -24  24  22 121.873 16.2050   2
 -22  24  24 122.128 15.3611   2
  -1  25   1 4.09704 9.51087   1
  -1  -1 -25 25.4117 14.3705   3
   1  -1 -25 15.7954 14.2661   3
  25  -1  -1 6.58807 3.93566   3
  -1   1 -25 10.2778 14.0330   3
   1  25   1 8.00315 9.98580   1
   1   1 -25-13.2244 13.4822   3
 -25   1  -1-0.84297 9.67192   1
   1  25  -1 12.8122 11.3936   1
  25  -1  -3 1294.69 44.5879   3
  25   1  -3 1176.32 43.1337   3
 -25   3  -1 1296.93 48.7197   1
  -1  -3 -25 1350.33 54.4171   3
   1  -3 -25 1416.42 55.5853   3
 -25   1  -3 1318.61 50.1461   1
   3  25  -1 1324.38 50.3178   1
 -25  -1  -3 1344.12 50.1308   1
  -3  -1 -25 1362.57 53.4176   3
  -3   1 -25 1388.32 54.0534   3
   1  25   3 1370.47 49.5021   1
  -1  25   3 1293.88 48.3560   1
   3  -1 -25 1296.03 54.2367   3
   3   1 -25 1275.72 54.1787   3
   3  25   1 1329.32 50.1648   1
   1   3 -25 1358.66 54.6621   3
  -3  25   1 1274.45 48.1517   1
  -1   3 -25 1372.51 54.9443   3
   3   3 -25-13.7859 14.4223   3
  -3   3 -25 10.1475 15.0185   3
   3  25   3 2.73488 9.82740   1
  -3  -3 -25-6.13473 13.1211   3
   3  -3 -25-4.15215 16.8131   3
  -3  25   3 7.94169 7.96607   1
 -25   3  -3-2.63720 10.7893   1
  -5  -1 -25 3028.01 108.123   3
   5  25   1 2786.41 105.702   1
  -1  25   5 2955.61 103.684   1
  -1  -5 -25 2858.04 108.639   3
  25   1  -5 2800.35 101.029   3
 -25   5  -1 2828.53 103.700   1
   5  25  -1 3071.31 107.205   1
   5  25  -1 2794.88 99.3310   4
 -25  -1  -5 2792.30 105.860   1
   1  25   5 2892.21 104.198   1
  -5   1 -25 3118.11 108.750   3
  25  -1  -5 2777.93 101.728   3
 -25   1  -5 2747.43 105.333   1
   1  25   5 2821.91 99.3120   4
   1   5 -25 2820.61 109.586   3
  -1   5 -25 2754.71 108.997   3
  -1  25   5 2923.15 99.3967   4
   5  25  -3 1.06928 12.2128   1
  -3   5 -25-2.61345 13.9784   3
  25   3  -5 10.5069 6.30154   3
  -5   3 -25 44.0953 12.5642   3
  -5  -3 -25-4.70045 11.7329   3
  -3  -5 -25-13.7443 12.9283   3
  -5  25   3 16.7259 8.25189   1
   5  25  -3 13.3882 9.91532   4
  -3  25   5 5.44134 7.14363   1
   3  25  -5 10.1672 9.04535   4
   3  25   5 3.57042 10.0026   1
 -25   3  -5 26.9223 12.3243   1
   5  25   3 8.84573 10.5445   1
 -25   5  -3 17.9840 11.2417   1
  -3  25   5 17.7249 9.10777   4
   5  25   5 27.8272 8.85711   4
   5  25   5 17.4391 11.0665   1
  -5  -5 -25 8.31728 10.3803   3
  -5   5 -25 13.8829 12.4834   3
 -25   5  -5 11.4232 9.88022   1
  -5  25   5 4.26174 6.60631   1
  -5  25   5-4.51430 9.05539   4
   5  25  -5 10.7213 10.0566   4
  -7   1 -25 7432.68 253.140   3
  -1  25   7 7071.56 244.684   4
  25  -1  -7 7254.82 248.778   3
   7  25   1 7501.06 244.952   4
 -25   7  -1 6887.41 248.593   1
   1  25  -7 7059.87 244.673   4
   7  25  -1 7418.58 252.714   1
  -7 -25   1 6894.17 253.206   3
   7  25   1 7068.57 251.895   1
  25   1  -7 7004.28 247.879   3
  -7  -1 -25 7403.29 252.766   3
 -25   7   1 7147.36 248.023   1
  25   3  -7 6084.73 208.620   3
   7  25   3 6188.52 205.864   4
   7  25   3 5923.57 212.670   1
  -7  25   3 6028.30 208.555   1
 -25   7  -3 5974.70 210.604   1
 -25   3  -7 5965.76 212.803   1
  -7   3 -25 5937.00 213.743   3
  -3  25   7 5893.57 205.625   4
   3  25  -7 6025.79 205.765   4
  -7  -3 -25 5912.28 213.092   3
   5  25   7 566.912 22.7334   4
 -25   5  -7 515.232 27.8279   1
  -7  -5 -25 569.884 29.1449   3
   7  25   5 510.391 22.6824   4
   7  25  -5 525.360 22.8261   4
  -5  -7 -25 516.053 29.4721   3
   7  25   5 525.445 28.2706   1
  -7  25   5 556.878 22.1993   4
 -25   5   7 530.519 22.7406   2
   5  25  -7 542.951 22.6763   4
  -7  25   5 506.264 23.0424   1
  -5  25   7 529.703 22.5121   4
 -25   7  -5 533.992 26.9468   1
 -25   7   7 7.69651 9.98074   2
   7  25   7-0.61745 9.78377   4
  -7  25   7 7.93740 8.95001   4
  -7  -7 -25 18.2590 11.2845   3
 -25   7  -7-7.29920 11.3602   1
   7  25  -7 2.57292 10.1359   4
 -25   9   1 1701.62 63.9834   1
  25  -1  -9 1725.86 66.6037   3
   9  25   1 1758.87 61.8275   4
   1  -9 -25 1757.95 64.6533   1
  -1  25   9 1704.18 61.7167   4
  -1  25  -9 1753.31 61.4738   4
  -9  -1 -25 1717.09 68.3025   3
 -25  -1   9 1733.95 61.4153   2
   1  25  -9 1790.24 61.6196   4
  -9 -25  -1 1772.21 69.9010   3
 -25   1   9 1702.30 61.4986   2
  25   1  -9 1754.73 66.1742   3
  -9 -25   1 1727.79 70.0990   3
 -25   9  -1 1535.47 64.4197   1
   9  25  -1 1713.27 61.8121   4
  -9   1 -25 1690.80 68.3288   3
  -3  25   9 10.6704 9.51896   4
  25   3  -9 16.2521 9.61880   3
 -25   3   9 15.7520 9.38146   2
   9  25   3-5.29562 9.79021   4
 -25   9  -3 4.12421 9.21998   1
   3  25  -9 16.0417 9.70770   4
  -9  -3 -25 7.35901 11.2766   3
   9  25  -3-1.61226 10.0611   4
   3  25   9 14.1134 9.85653   4
   9  25   5 990.888 37.6199   4
  -5  25   9 1054.75 37.7615   4
 -25   9  -5 1023.92 42.7913   1
  -9  25   5 1021.60 37.1441   4
   5  25   9 928.735 37.5013   4
   5  25  -9 1039.08 37.9250   4
  -5  -9 -25 907.895 41.9706   1
 -25   5   9 985.454 37.5799   2
  -9  -5 -25 976.353 43.5105   3
 -25   7   9 20001.1 687.103   2
  -9  -7 -25 20045.0 693.681   3
  -7  -9 -25 20525.5 694.997   3
   7  25  -9 20313.4 687.118   4
  -9  25   7 20626.5 686.786   4
  -7  25   9 20115.8 686.859   4
 -25   9  -7 19816.5 693.487   1
 -25   9   7 20083.0 687.114   2
   7  25   9 20468.8 686.981   4
   9  25   7 20510.3 686.970   4
   9  25   9 2.23952 9.49648   4
  -9  -9 -25 15.0988 11.4115   3
   9  25  -9 11.7228 10.4599   4
  -9  25   9 7.06943 9.32217   4
 -25   9   9 2.43970 10.5450   2
  25   1 -11 2948.92 109.425   3
   1  25 -11 2978.18 103.685   4
 -25  -1  11 2969.66 103.733   2
 -25   1  11 2955.24 103.792   2
  11  25  -1 3013.71 104.067   4
  -1  25 -11 3013.56 103.593   4
  11  25   1 3061.03 104.031   4
  25  -1 -11 2975.34 109.994   3
 -11  -1 -25 2784.20 109.258   3
 -11 -25  -1 2896.18 111.435   3
 -11 -25   1 2972.63 112.007   3
 -25  11  -3 527.246 26.5582   1
  -3 -11 -25 555.083 26.7733   1
  -3  25 -11 584.430 23.2017   4
  11  25  -3 556.793 24.0236   4
  11  25   3 553.423 23.7815   4
 -25   3  11 564.420 23.8165   2
   3  25 -11 553.386 24.0038   4
 -11  -3 -25 559.848 28.4920   3
   3  25  11 569.262 23.9537   4
  25   3 -11 599.382 28.5141   3
 -11 -25  -3 504.794 29.4330   3
 -11  25   3 576.212 22.8325   4
  -3  25  11 570.516 23.8389   4
  11  25   5 252.153 14.7870   4
  -5  25  11 276.134 14.9519   4
 -25   5  11 246.911 15.0618   2
  11  25  -5 248.121 15.4555   4
   5  25 -11 280.447 15.1214   4
 -11  25   5 259.331 13.9282   4
  -5 -11 -25 230.541 17.3299   1
 -25  11  -5 285.422 18.1827   1
   5  25  11 258.461 15.0060   4
  11  25   7 4734.23 161.164   4
  11  25  -7 4470.25 161.271   4
   7  25 -11 4670.94 161.449   4
 -11  25   7 4746.98 160.866   4
 -25   7  11 4777.92 161.477   2
   7  25  11 4655.33 161.179   4
  -7  25  11 4708.25 161.176   4
  11  25   9 5.21430 10.1425   4
 -11  25   9-5.23854 9.20870   4
 -25   9  11-0.72287 10.7512   2
  -9  25  11 16.6931 9.88578   4
   9  25 -11 19.3665 10.7346   4
 -25  11   9 6.57343 11.0351   2
   9  25  11 20.6143 9.88492   4
 -11  25  11 8.13137 9.93422   4
 -25  11  11-1.88790 11.1328   2
  11  25  11 17.8261 10.5056   4
  25   1 -13 2452.03 96.0065   3
  13  25   1 2611.38 89.6873   4
  13  25  -1 2640.30 89.8326   4
   1  25 -13 2519.16 89.4034   4
  -1  25 -13 2547.77 89.2681   4
 -25   1  13 2542.07 89.6006   2
 -13 -25  -1 2465.05 96.3245   3
 -13 -25   1 2315.49 96.1466   3
  25  -1 -13 2565.10 96.7598   3
   1  25  13 2591.18 89.7538   4
  -3  25  13 4704.09 161.077   4
  -3  25 -13 4671.09 160.635   4
   3  25  13 4730.36 161.109   4
 -13  25   3 4555.85 160.322   4
 -25   3  13 4754.07 161.159   2
   3  25 -13 4642.51 161.042   4
  13  25  -3 4749.10 161.254   4
  13  25   3 4643.62 161.013   4
 -13  25   5 457.315 19.2720   4
   5  25  13 449.537 20.7467   4
  13  25   5 435.361 20.2928   4
  -5  25  13 453.406 20.5924   4
   5  25 -13 452.570 21.0516   4
  -5  25 -13 455.363 19.2659   4
 -25   5  13 436.876 21.0017   2
  13  25  -5 441.594 20.5581   4
  13  25   7 53.7206 10.6213   4
  -7  25 -13 43.7323 7.90646   4
 -13  25   7 37.7093 9.08052   4
  -7  25  13 30.3869 10.3691   4
  13  25  -7 42.7071 11.6439   4
   7  25 -13 48.2619 11.5406   4
   7  25  13 41.9857 10.2138   4
 -25   7  13 53.5728 11.4459   2
   9  25  13 10389.3 350.865   4
  13  25  -9 10119.4 351.102   4
 -25   9  13 10219.4 351.167   2
 -13  25   9 10540.9 350.595   4
  13  25   9 10280.2 350.717   4
  -9  25  13 10127.4 350.788   4
   9  25 -13 10438.7 351.203   4
 -13  25  11 8908.50 301.315   4
  11  25 -13 8423.27 301.727   4
  13  25  11 8937.04 301.326   4
  11  25  13 8913.18 301.403   4
 -11  25  13 8967.59 301.457   4
  13  25  13 20.8017 10.4138   4
 -13  25  13 5.25435 10.3962   4
  -1  25 -15 107.608 11.1750   4
 -15  25   1 137.375 9.50928   4
  15  25   1 125.109 12.3563   4
  15  25  -1 127.205 12.6930   4
   1  25  15 143.584 12.4059   4
   1  25 -15 122.887 12.0157   4
  -3  25 -15 249.042 13.8072   4
  15  25   3 248.700 14.9406   4
  15  25  -3 255.842 15.5558   4
 -25   3  15 258.535 15.6548   2
   3  25 -15 242.797 15.2619   4
   3  25  15 255.173 15.4277   4
 -15  25   3 242.744 12.9169   4
  25  15  -3 245.454 13.2139   4
  15  25   5 3068.69 103.660   4
 -25   5  15 2936.49 104.006   2
  15  25  -5 2976.34 103.906   4
  -5  25 -15 3000.70 103.043   4
 -15  25   5 2936.97 102.900   4
  25  15  -5 2991.79 103.120   4
   5  25 -15 2976.52 103.963   4
  -5  25  15 2915.40 103.749   4
   5  25  15 2880.95 103.793   4
 -25   7  15 1839.03 69.1907   2
  -7  25 -15 1951.87 67.7278   4
  15  25   7 1924.62 68.5679   4
   7  25 -15 1861.23 69.0836   4
 -15  25   7 1935.78 68.0573   4
  15  25  -7 1929.77 69.0293   4
   7  25  15 1949.72 68.8611   4
  -7  25  15 1943.16 68.7916   4
  15  25   9 40.7945 10.6399   4
  15  25  -9 72.5208 12.7017   4
 -15  25   9 58.1680 9.76601   4
   9  25 -15 41.7628 12.0685   4
   9  25  15 48.4859 10.9099   4
  -9  25  15 56.6752 11.5585   4
 -11  25  15 322.855 17.0782   4
 -15  25  11 290.089 16.4074   4
  11  25  15 307.503 16.9793   4
  15  25 -11 308.078 18.1166   4
  15  25  11 295.085 16.4157   4
  13  25  15 116.001 12.2976   4
  15  25 -13 131.095 14.5410   4
 -25  13  15 102.812 14.4639   2
 -25  15  13 127.319 14.5633   2
  15  25  13 110.555 11.7709   4
 -13  25  15 107.933 12.7796   4
 -25  15  15-11.6856 13.4558   2
 -15  25  15 0.37730 10.8262   2
  15  25  15 1.03816 9.86641   4
  17  25   1 4069.86 142.039   4
   1  25 -17 4092.23 141.988   4
  17  25  -1 4188.19 142.277   4
  25  17  -1 4074.44 141.203   4
  -1  25  17 4117.86 142.247   4
  -1  25 -17 4098.65 141.781   4
 -17  25   3 3894.77 135.289   4
   3  25 -17 4041.70 136.581   4
  -3  25 -17 3879.58 135.881   4
  25  17  -3 3935.10 135.716   4
   3  25  17 3956.59 136.526   4
  17  25  -3 3898.14 136.518   4
  17  25   3 3968.04 136.303   4
  17  25  -5 566.165 24.9735   4
  25  17  -5 562.674 23.4920   4
   5  25  17 568.076 24.7139   4
 -25   5  17 568.050 25.2425   2
   5  25 -17 526.000 24.6963   4
  -5  25 -17 576.794 23.3248   4
 -17  25   5 574.823 22.9401   4
  17  25   5 566.876 24.2585   4
  -5  25  17 562.421 24.9548   4
 -17  25   7 8071.85 271.114   4
  25  17  -7 8003.73 271.549   4
  17  25  -7 7929.12 272.026   4
   7  25  17 7983.56 271.827   4
  -7  25  17 7918.16 271.893   4
  -7  25 -17 7712.04 270.804   4
  17  25   7 8104.45 271.527   4
  -9  25  17 10114.4 350.808   2
  -9  25  17 10379.3 351.827   4
 -17  25   9 10469.9 351.140   4
   9  25  17 10535.3 351.658   4
  17  25  -9 10142.3 351.951   4
  17  25   9 10323.2 351.293   4
 -11  25  17 3195.67 111.895   2
 -25  17  11 3277.89 113.295   2
 -11  25  17 3275.76 112.769   4
  17  25 -11 3208.58 113.116   4
  11  25  17 3249.89 112.431   4
 -25  11  17 3132.21 113.242   2
  17  25  11 3196.23 112.078   4
 -13  25  17 4323.88 151.856   2
  17  25  13 4426.24 151.734   4
  13  25  17 4441.64 151.993   4
 -25  13  17 4391.27 152.979   2
 -25  17  13 4372.20 152.970   2
  17  25 -13 4425.60 152.858   4
  17  25  15 1216.81 44.8482   4
 -15  25  17 1222.69 45.5711   2
 -17  25  15 1194.19 45.8572   2
 -25  15  17 1219.97 47.0248   2
  17  25 -15 1215.64 46.8082   4
 -25  17  15 1186.29 46.8528   2
  15  25  17 1192.80 44.8887   4
 -25  17  17-14.7424 15.0215   2
  17  25  17 5.78631 9.74135   4
 -17  25  17 11.7598 11.8212   2
  19  25   1 587.311 24.9560   4
  19  25  -1 565.195 25.2389   4
  25  19  -1 563.868 23.7492   4
  25  19   1 582.904 23.4838   4
  -1  25 -19 549.375 24.2083   4
   1  25 -19 591.808 24.9399   4
  -1  25  19 586.807 25.7444   4
   1  25  19 587.727 25.4184   4
  19  25   3 1865.60 67.8403   4
   3  25  19 1937.98 68.2278   4
   3  25 -19 1905.12 68.2428   4
  19  25  -3 1901.75 68.2672   4
  25  19  -3 1868.40 67.3978   4
  -3  25 -19 1886.55 67.4907   4
  19  25   5 1467.22 54.7002   4
  -5  25 -19 1479.00 54.0477   4
  19  25  -5 1534.06 55.4976   4
   5  25  19 1477.92 55.0915   4
  25  19  -5 1566.40 54.8440   4
  19  25  -7 1019.40 39.4868   4
  -7  25  19 964.047 39.1685   4
  25  19  -7 1042.58 38.7815   4
   7  25  19 982.828 38.7451   4
  19  25   7 1010.06 38.2356   4
  19  25  -9 3046.89 108.798   4
 -25   9  19 3013.34 108.896   2
  25  19  -9 3090.83 108.371   4
  19  25   9 3115.40 107.803   4
   9  25  19 3166.61 108.301   4
  11  25  19 4972.39 173.188   4
  19  25  11 5089.38 172.848   4
 -11  25  19 4911.57 172.613   2
 -25  19  11 5087.62 174.279   2
  19  25 -11 5109.19 173.992   4
 -25  11  19 5022.82 174.109   2
 -25  13  19 22.9091 14.0458   2
  19  25  13 9.35972 9.17516   4
  13  25  19 20.7678 10.5133   4
 -13  25  19 46.3645 10.3069   2
 -25  19  13 15.0049 14.1454   2
  19  25 -13 29.8068 14.2908   4
 -15  25  19 307.174 16.6430   2
  15  25  19 311.698 16.4062   4
 -19  25  15 286.007 18.5231   2
 -25  15  19 288.994 19.4602   2
  19  25  15 274.224 15.8308   4
  19  25 -15 291.010 19.9887   4
 -25  19  15 291.977 19.6976   2
 -19  25  17 530.931 24.9264   2
  17  25  19 502.581 22.9117   4
  19  25  17 484.702 22.4987   4
 -17  25  19 559.912 24.7469   2
 -25  17  19 573.517 26.4773   2
 -25  19  17 575.136 26.3738   2
  19  25  19 5.47028 9.22121   4
 -19  25  19-2.13806 12.5250   2
 -25  19  19 19.0715 15.3297   2
   1  25 -21 290.069 16.9590   4
  21  25   1 281.987 16.8297   4
  21  25  -1 288.416 17.2389   4
  25  21  -1 304.412 15.7198   4
  25  21   1 286.913 15.5726   4
  -1  25 -21 294.570 16.1201   4
  -1  25  21 301.336 18.3059   4
   1  25  21 302.600 18.2309   4
  21  25   3 1305.42 49.0051   4
  25  21   3 1328.30 48.1653   4
  21  25  -3 1338.74 49.5570   4
  25  21  -3 1323.74 48.8992   4
   3  25  21 1303.39 49.6643   4
  -3  25 -21 1349.18 48.6805   4
  -3  25  21 1349.87 50.2090   4
   3  25 -21 1299.39 49.4966   4
  25  21   5 102.675 9.66999   4
  21  25   5 94.3285 11.3141   4
  -5  25 -21 101.332 10.1789   4
   5  25  21 91.7479 13.0543   4
  21  25  -5 92.2494 13.3824   4
  25  21  -5 98.7794 11.8595   4
  21  25  -7 5821.39 200.350   4
  21  25   7 5712.56 199.515   4
  25  21  -7 5860.64 200.082   4
   7  25  21 5896.96 200.249   4
  25  21  -9 3476.02 121.466   4
   9  25  21 3514.00 121.309   4
  21  25  -9 3526.32 121.711   4
  21  25   9 3399.55 120.524   4
 -11  25  21 430.791 20.0738   2
  11  25  21 482.800 22.0762   4
  25  21 -11 460.440 22.6871   4
  21  25 -11 470.005 23.6231   4
 -25  11  21 478.837 24.4441   2
  21  25  11 445.434 20.4428   4
  21  25 -13 8413.61 289.443   4
 -25  21  13 8485.91 289.648   2
  21  25  13 8455.43 287.974   4
 -25  13  21 8625.45 289.672   2
 -13  25  21 8157.80 288.122   2
  13  25  21 8620.16 288.508   4
 -15  25  21 357.856 19.2760   2
  21  25 -15 423.047 22.5557   4
 -25  21  15 397.470 22.7030   2
 -21  25  15 413.655 22.0570   2
 -25  15  21 395.172 22.6570   2
  21  25  15 362.846 17.6685   4
  15  25  21 392.203 18.9674   4
 -25  21  17 5593.98 183.973   2
  21  25 -17 5272.10 183.974   4
 -25  17  21 5319.85 183.830   2
  21  25  17 5145.92 181.714   4
  17  25  21 5254.11 182.099   4
 -17  25  21 5375.19 182.900   2
 -21  25  17 5276.08 183.449   2
 -19  25  21 4327.31 150.003   2
 -25  21  19 4400.23 150.797   2
  19  25  21 4177.35 148.546   4
 -21  25  19 4359.38 150.322   2
 -25  19  21 4401.90 150.685   2
 -21  25  21-9.72454 13.5132   2
 -25  21  21 13.3584 15.3289   2
  -1  25 -23 1128.61 43.2328   4
  25  23   1 1125.72 42.8591   4
  23  25  -1 1160.36 43.7594   4
  23  25   1 1128.40 43.3619   4
  -1  25  23 1170.70 44.7462   4
   1  25 -23 1163.11 43.7348   4
   1  25  23 1191.56 44.4320   4
  25  23  -1 1137.28 43.2659   4
  23  25   3 1974.42 69.7893   4
  25  23   3 1921.07 69.4389   4
   3  25  23 2021.62 70.8298   4
  -3  25 -23 1891.00 69.5492   4
  25  23  -3 2013.11 70.1991   4
  23  25  -3 1956.72 70.4438   4
  -3  23 -25 1912.06 69.4833   4
  25  23   5 470.934 20.3487   4
  23  25   5 452.962 20.9270   4
  23  25  -5 465.135 22.2415   4
  25  23  -5 451.066 22.2825   4
  -5  25 -23 451.167 20.2185   4
   5  25  23 445.244 22.3164   4
  -5  23 -25 479.025 20.2812   4
  25  23   7 5383.98 186.254   4
  25  23  -7 5472.51 187.452   4
  23  25   7 5465.99 186.684   4
   9  25  23 5519.50 188.330   4
  23  25  -9 5492.58 188.722   4
  25  23  -9 5548.47 188.600   4
  23  25   9 5336.08 187.359   4
  25  23 -11 2998.79 105.956   4
  23  25 -11 3037.68 106.036   4
  23  25  11 2959.07 104.234   4
  11  25  23 3003.62 105.281   4
 -25  23  13 1375.29 53.2821   2
 -13  25  23 1293.56 50.3302   2
 -23  25  13 1454.30 53.2325   2
  23  25 -13 1397.96 52.6972   4
  13  25  23 1407.63 51.2789   4
  25  23 -13 1443.37 52.8311   4
  23  25  13 1362.70 50.0513   4
 -15  25  23 66.0807 11.8116   2
 -25  23  15 55.8634 16.3324   2
 -23  25  15 60.6442 15.0835   2
 -25  15  23 62.0851 16.2612   2
  23  25 -15 67.6307 15.8898   4
  25  23 -15 61.4355 15.6294   4
  15  25  23 72.3254 11.4086   4
 -25  17  23 4482.84 154.919   2
 -17  25  23 4402.09 153.635   2
  17  25  23 4259.21 152.773   4
  25  23 -17 4469.40 154.785   4
  23  25 -17 4546.65 155.018   4
 -25  23  17 4562.20 154.966   2
 -23  25  17 4450.72 154.524   2
 -25  19  23 1215.95 46.8734   2
 -25  23  19 1165.48 47.0248   2
 -19  25  23 1178.14 45.5937   2
  23  25 -19 1206.35 47.3765   4
 -23  25  19 1165.32 46.7454   2
 -25  21  23 31.7823 15.8401   2
 -21  25  23 37.1967 13.9237   2
 -25  23  21 36.8198 14.9563   2
  23  25 -21 51.3462 18.8516   4
 -23  25  21 55.4127 14.5798   2
 -25  23  23-0.92622 15.1912   2
 -23  25  23-0.88327 13.4122   2
  25  25   1 3.28217 10.0087   4
  25  25  -1 18.6090 10.6706   4
  -1  25 -25 5.28313 11.1739   4
   1  25 -25 7.16530 12.3122   4
  25  25   3 5.25872 10.2811   4
  25  25  -3 11.0876 12.2810   4
  -3  25 -25 15.7794 10.3601   4
  25  25   5 1.34212 9.45697   4
  -5  25 -25-4.16645 8.37664   4
  25  25  -5 4.93297 12.6043   4
  25  25  -7-5.90358 13.1230   4
  25  25   7-2.26135 8.97465   4
  25  25   9 1.56212 8.54115   4
  25  25  -9 15.1922 13.7511   4
  25  25 -11 16.7063 14.5659   4
 -25  25  13 15.5602 15.8984   2
  25  25 -13 2.79443 14.6837   4
 -25  25  15 1.93697 15.4666   2
  25  25 -15 6.71331 14.9940   4
 -25  25  17 1.91655 14.6768   2
  25  25 -17-7.85698 16.3504   4
  25  25 -19-8.46470 17.6137   4
 -25  25  19-1.42157 15.3973   2
  25  25 -21 2.99633 17.6745   4
 -25  25  21 7.35660 15.1135   2
  25  25 -23 13.3991 17.5818   4
 -25  25  23 13.8185 14.6209   2
  25  25 -25-5.83654 18.5913   4
   0   0 -26 8704.52 324.827   3
   0  26   0 9425.57 321.371   1
   0  26   0 9351.10 315.439   4
  -2  26   0 16208.0 560.554   4
   0  -2 -26 16614.8 570.992   3
   2  26   0 16783.7 560.768   4
   0  26  -2 16589.8 560.669   4
   2  26   0 17212.8 567.583   1
   0  26   2 16746.1 566.197   1
   0  26   2 16407.6 560.643   4
  -2   0 -26 16857.6 570.790   3
 -26   0  -2 16192.0 566.441   1
  -2  26   0 16492.0 566.082   1
  -2  -2 -26 9884.92 352.013   3
   2  26  -2 9813.47 342.455   4
  -2  26  -2 9818.16 342.313   4
   2  26   2 10399.0 348.772   1
  -2  26   2 10281.4 347.569   1
 -26   2  -2 10184.6 348.148   1
  -2   2 -26 10322.5 352.787   3
   2  26   2 10153.5 342.535   4
   2  26  -2 10427.2 349.774   1
  -2  26   2 10187.7 342.410   4
   0  26   4 14.1185 9.76576   4
  -4  26   0 35.9691 8.90174   4
  -4   0 -26 21.9661 11.9962   3
 -26   0  -4 37.3105 12.2992   1
   4  26   0 23.7663 10.0601   4
   0  26  -4 53.5900 9.72780   4
   0  26   4 32.1212 9.91509   1
   4  26   0 43.4644 12.4091   1
   2  26   4 629.254 24.4876   4
   2  26   4 534.662 28.2521   1
  -2  -4 -26 593.782 33.2044   3
   4  26  -2 594.179 30.4874   1
  -2  26  -4 608.822 23.9327   4
 -26   4  -2 570.919 28.4092   1
  -4  26   2 562.916 27.2034   1
   4  26  -2 601.671 24.4494   4
   2  26  -4 608.306 24.4582   4
 -26   2  -4 564.605 28.9943   1
  -2  26   4 552.253 27.1634   1
   4  26   2 524.241 29.4448   1
  -4  -2 -26 647.698 32.8900   3
  -4   2 -26 539.764 31.8898   3
  -2  26   4 579.158 24.0958   4
  -4  26   2 621.461 24.0906   4
   4  26   4 3691.18 128.745   1
 -26   4   4 3502.77 121.815   2
   4  26  -4 3513.97 122.151   4
  -4   4 -26 3449.07 131.530   3
  -4  26   4 3596.36 121.892   4
  -4  -4 -26 3332.07 130.178   3
 -26   4  -4 3373.37 127.480   1
  -4  26   4 3585.11 125.566   1
  -6   0 -26 789.946 38.7904   3
   0  26  -6 809.428 31.5211   4
   0  26   6 785.418 35.2035   1
  -6  26   0 847.695 31.2223   4
   0  26   6 835.431 31.7011   4
 -26   6   0 780.816 34.6583   1
 -26   2   6 99.9511 10.0036   2
  -6  -2 -26 76.7411 12.9556   3
  -6  26   2 79.6690 9.68306   1
  -2  -6 -26 71.0796 15.9673   3
  -2  26  -6 102.068 9.99623   4
  -6  26   2 84.7367 9.55294   4
   2  26  -6 95.3853 10.8964   4
 -26   6  -2 86.5277 11.7648   1
   6  26   2 69.3509 13.3433   1
   2  26   6 70.3865 11.3224   1
  -2  26   6 89.6310 10.6135   1
  -2  26   6 89.9975 10.2222   4
  -4  26   6 0.90698 9.77687   4
   6  26   4-1.58443 10.0433   4
  -6   4 -26 29.7359 12.9470   3
  -6  26   4 15.8879 7.21142   1
  -6  -4 -26-2.43214 11.5658   3
  -4  26  -6 8.22017 8.38768   4
 -26   4   6 9.81919 8.97316   2
   6  26  -4 9.77861 9.91410   4
   4  26  -6 15.7402 10.3569   4
  -4  26   6 14.9969 7.05491   1
 -26   6   4-1.24465 9.13504   2
   6  26   4-2.13226 11.1894   1
  -4  -6 -26-1.29575 10.5149   3
  -6  26   4 20.1168 9.14442   4
 -26   6  -4 22.3343 10.2730   1
  -6  -6 -26 291.241 20.7255   3
 -26   6   6 250.023 14.8086   2
   6  26   6 254.618 14.7076   4
   6  26  -6 279.437 15.3678   4
  -6  26   6 251.920 14.4676   4
   8  26   0 1215.29 44.3152   4
 -26   0   8 1192.19 43.7709   2
   0  26  -8 1185.44 43.9614   4
  -8   0 -26 1129.07 50.6688   3
  -8  26   0 1163.42 43.3977   4
   0  26   8 1242.09 44.1651   4
   8  26   2 3430.01 120.601   4
  -8  26   2 3466.42 120.074   4
 -26   8  -2 3427.14 124.772   1
  -2  26  -8 3491.09 120.271   4
 -26  -2   8 3530.91 120.204   2
   2  26  -8 3521.09 120.554   4
  -2  26   8 3425.28 120.418   4
 -26   2   8 3514.61 120.425   2
  -8   2 -26 3377.94 128.291   3
  -8  -2 -26 3430.28 128.074   3
   8  26   4 405.415 19.7010   4
  -8  -4 -26 413.274 25.1827   3
  -4  26  -8 447.264 18.9401   4
   4  26  -8 453.958 20.0922   4
  -8  26   4 444.587 18.9616   4
  -4  26   8 395.406 19.5315   4
 -26   8  -4 443.086 23.7972   1
   4  26   8 433.418 19.9930   4
 -26   4   8 415.424 19.6316   2
   8  26   6 1013.18 37.3541   4
  -8  -6 -26 980.682 44.0697   3
  -6  -8 -26 979.360 44.6714   3
  -6  26  -8 969.900 36.3128   4
  -8  26   6 941.728 36.7387   4
   6  26  -8 991.433 37.4308   4
 -26   8   6 948.544 37.2103   2
  -6  26   8 985.775 37.1203   4
 -26   6   8 963.615 37.2988   2
   6  26   8 1010.81 37.4133   4
  -8  26   8 29.0516 10.0921   4
 -26   8   8 20.9272 10.6487   2
  -8  -8 -26 38.5785 12.7972   3
   8  26   8 23.1911 10.6577   4
   8  26  -8 19.7423 10.6202   4
  10  26   0 1029.70 38.5492   4
   0  26 -10 1063.61 38.2582   4
 -26   0  10 971.222 38.0377   2
 -10   0 -26 934.015 43.9040   3
 -10  26   0 1015.45 37.3933   4
 -26   2  10 149.211 12.4626   2
 -10  26   2 143.705 10.8051   4
  10  26   2 142.856 12.1527   4
  10  26  -2 191.311 13.2436   4
  -2  26 -10 160.735 11.2561   4
   2  26 -10 127.049 11.9135   4
 -26  -2  10 123.540 11.2605   2
 -10  -2 -26 118.004 14.9013   3
  -2  26  10 149.607 12.2237   4
  10  26   4 363.625 18.3036   4
  -4  26 -10 385.417 17.3577   4
  -4  26  10 369.690 18.0790   4
  10  26  -4 400.696 18.9264   4
 -10  -4 -26 394.613 23.5393   3
 -26   4  10 356.928 18.2734   2
 -10  26   4 360.565 17.1824   4
   4  26  10 368.128 18.2140   4
   4  26 -10 403.853 18.3636   4
  -6  26 -10 389.803 17.2545   4
  10  26   6 346.737 18.4126   4
 -10  26   6 382.460 17.7622   4
   6  26 -10 395.386 19.0818   4
  -6  26  10 391.741 18.6064   4
 -26   6  10 409.801 19.3204   2
   6  26  10 372.431 18.6506   4
  -8  26  10 28.4767 10.0753   4
   8  26 -10 28.2756 11.1092   4
  10  26   8 18.1609 10.1884   4
  -8  26 -10 20.5422 7.50903   4
 -10  26   8 23.5882 9.66708   4
 -26   8  10 13.7271 10.7479   2
   8  26  10 18.3893 10.7065   4
 -26  10   8 7.67769 10.9563   2
 -26  10  10 1423.04 51.9316   2
 -10  26  10 1401.23 51.1670   4
  10  26  10 1375.62 51.3748   4
 -26   0  12 1364.02 49.7514   2
  12  26   0 1316.09 49.7981   4
 -12  26   0 1336.62 48.6020   4
   0  26 -12 1398.51 49.4600   4
  12  26   2 821.276 31.4579   4
 -12  26  -2 754.225 29.7666   4
 -26   2  12 795.342 31.5178   2
  -2  26 -12 776.664 30.6919   4
  12  26  -2 805.596 31.8866   4
   2  26  12 802.484 31.5706   4
 -12  26   2 819.721 30.2694   4
  -2  26  12 764.620 31.3190   4
   2  26 -12 791.483 31.1557   4
  -4  26  12 48.3396 10.9266   4
  12  26   4 70.7198 11.1046   4
  -4  26 -12 83.7310 9.86584   4
   4  26 -12 71.1733 11.7283   4
 -12  26   4 80.0015 9.56953   4
 -26   4  12 65.5987 11.4084   2
   4  26  12 73.9436 11.5040   4
  12  26  -4 83.9764 11.5597   4
  12  26   6 1634.71 58.5305   4
  -6  26 -12 1625.05 57.6269   4
 -12  26   6 1586.16 57.9514   4
  12  26  -6 1596.85 58.7506   4
 -26   6  12 1620.53 58.7892   2
   6  26  12 1683.44 58.7399   4
  -6  26  12 1568.58 58.5603   4
   6  26 -12 1620.46 58.8834   4
  12  26  -8 1419.99 53.8439   4
  -8  26  12 1471.65 53.4461   4
  -8  26 -12 1442.16 52.2428   4
 -26   8  12 1481.61 53.9807   2
   8  26 -12 1468.83 53.8978   4
   8  26  12 1478.93 53.6137   4
 -12  26   8 1492.38 53.0094   4
 -26  12   8 1447.53 53.8997   2
  12  26   8 1456.81 53.5030   4
 -10  26  12-3.79354 10.4787   4
 -26  10  12 1.94746 12.0915   2
 -12  26  10 7.60712 9.79216   4
  10  26 -12 0.76981 11.7725   4
 -26  12  10 20.4685 12.2432   2
  10  26  12 10.1273 10.5613   4
  12  26  10 6.50066 9.96102   4
  12  26  12 623.495 25.6828   4
 -12  26  12 576.629 25.4215   4
  14  26   0 9336.74 314.655   4
 -14  26   0 9144.12 313.579   4
   0  26 -14 9234.71 314.328   4
 -26   2  14 1890.87 64.8245   2
   2  26 -14 1756.23 64.3526   4
  14  26  -2 1776.66 64.6433   4
 -14  26   2 1788.06 63.4151   4
  14  26   2 1813.96 64.5572   4
   2  26  14 1721.07 64.5835   4
  -2  26 -14 1801.31 64.0353   4
 -14  26   4 848.240 31.6227   4
  26  14  -4 810.503 31.3751   4
  -4  26 -14 844.683 31.9322   4
 -26   4  14 811.751 33.0578   2
  14  26  -4 813.840 32.9946   4
   4  26 -14 803.228 32.9057   4
   4  26  14 891.702 33.1747   4
  14  26   4 809.910 32.6714   4
  -4  26  14 829.274 32.9608   4
  -6  26  14 802.973 31.3620   4
 -26   6  14 771.485 31.5578   2
   6  26  14 825.823 31.5450   4
  14  26  -6 768.724 31.6727   4
 -14  26   6 790.409 30.2199   4
   6  26 -14 728.081 31.5326   4
  14  26   6 765.666 31.0680   4
  -6  26 -14 773.469 29.9173   4
   8  26  14 516.423 23.0189   4
  -8  26 -14 511.004 21.1562   4
  -8  26  14 526.610 23.0918   4
 -26   8  14 519.701 23.6281   2
   8  26 -14 501.583 23.7686   4
  14  26  -8 533.016 23.7848   4
 -14  26   8 508.539 22.1798   4
  14  26   8 517.026 22.7818   4
 -10  26  14 1709.25 62.7009   4
  10  26  14 1753.97 62.7447   4
  14  26 -10 1724.05 63.3034   4
  10  26 -14 1729.30 63.3014   4
 -14  26  10 1691.51 62.2248   4
  14  26  10 1793.61 62.5510   4
 -14  26  12 1184.69 44.3216   4
  14  26 -12 1127.59 45.1953   4
  14  26  12 1254.39 44.3768   4
 -12  26  14 1155.80 44.4572   4
  12  26  14 1167.39 44.4248   4
 -14  26  14 871.526 34.9415   4
  14  26  14 906.318 34.8906   4
   0  26 -16 6443.98 218.339   4
   0  26  16 6303.55 218.596   4
  16  26   0 6362.37 218.543   4
  26  16  -2 1620.84 59.4317   4
  16  26   2 1694.62 60.6826   4
 -16  26   2 1668.57 59.3556   4
  16  26  -2 1724.25 61.0630   4
  -2  26 -16 1734.11 60.3331   4
   2  26  16 1669.43 60.8835   4
   2  26 -16 1633.82 60.6647   4
  16  26   4 3540.69 118.416   4
 -26   4  16 3355.85 118.735   2
  26  16  -4 3395.07 117.617   4
  16  26  -4 3425.19 118.686   4
  -4  26 -16 3331.97 117.794   4
 -16  26   4 3379.45 117.450   4
   4  26 -16 3332.53 118.529   4
   4  26  16 3415.70 118.580   4
  -4  26  16 3413.14 118.540   4
  16  26   6 1805.79 63.6722   4
  26  16  -6 1764.50 63.2054   4
 -26   6  16 1808.52 64.4560   2
 -16  26   6 1768.32 62.9133   4
  16  26  -6 1736.65 64.1081   4
   6  26  16 1820.61 64.0698   4
  -6  26  16 1792.66 64.0188   4
  -6  26 -16 1686.27 62.7371   4
   6  26 -16 1745.61 64.1751   4
   8  26  16 301.742 17.5177   4
   8  26 -16 332.443 18.3772   4
  16  26  -8 313.485 18.4433   4
  -8  26  16 274.586 17.7795   4
 -16  26   8 335.204 16.1480   4
  16  26   8 308.824 17.0666   4
  10  26  16 826.567 33.3466   4
  16  26 -10 822.012 34.1959   4
 -10  26  16 807.522 32.1546   2
 -10  26  16 902.483 33.8496   4
  16  26  10 828.055 32.8198   4
 -16  26  10 848.135 32.6912   4
  10  26 -16 812.074 34.3075   4
  12  26  16 311.670 17.7728   4
  12  26 -16 344.112 19.6142   4
  16  26  12 298.001 16.9289   4
 -12  26  16 315.500 16.6405   2
 -12  26  16 331.293 18.1681   4
  16  26 -12 331.522 19.7050   4
 -26  14  16 108.105 15.8135   2
 -26  16  14 129.680 15.8965   2
  16  26 -14 119.138 15.8831   4
  16  26  14 126.650 12.2120   4
  14  26  16 122.189 12.3348   4
 -14  26  16 117.088 12.1500   2
 -16  26  16 169.627 14.8462   2
 -26  16  16 188.961 17.4694   2
  16  26  16 194.162 13.5010   4
   0  26  18 787.596 32.1073   4
  18  26   0 811.493 31.9425   4
  26  18   0 767.162 30.1525   4
   0  26 -18 783.992 31.3389   4
   2  26  18 1544.98 55.7293   4
  18  26   2 1544.07 55.4712   4
  18  26  -2 1530.95 55.8012   4
  26  18  -2 1528.84 54.4988   4
   2  26 -18 1471.60 55.4819   4
  -2  26 -18 1464.40 54.8505   4
  18  26   4 2356.73 80.5711   4
  18  26  -4 2148.79 80.7046   4
   4  26  18 2362.82 80.8987   4
  -4  26 -18 2191.24 79.8165   4
  26  18  -4 2307.91 79.9238   4
 -18  26   4 2256.32 79.3808   4
   4  26 -18 2256.86 80.8397   4
  18  26   6 357.525 18.3686   4
   6  26 -18 371.585 19.3849   4
 -18  26   6 352.799 16.7203   4
  -6  26 -18 347.188 16.7407   4
  26  18  -6 339.485 17.7217   4
  18  26  -6 355.198 19.2800   4
   6  26  18 356.082 18.8215   4
  -6  26  18 372.045 19.6859   4
  26  18  -8 1009.99 38.1906   4
  18  26  -8 959.556 39.0954   4
   8  26  18 984.943 38.4314   4
  -8  26  18 1029.16 39.2355   4
   8  26 -18 959.576 39.0024   4
  18  26   8 987.448 37.9155   4
  18  26 -10 329.396 20.0900   4
  10  26  18 332.467 18.0448   4
  10  26 -18 359.247 20.2830   4
 -10  26  18 339.088 19.7206   4
  18  26  10 336.075 17.5521   4
 -10  26  18 356.819 16.4924   2
  18  26 -12 54.4074 14.6426   4
 -12  26  18 70.0328 10.0646   2
  12  26  18 42.6560 11.2967   4
 -26  18  12 54.1132 14.3221   2
 -26  12  18 46.2887 14.5379   2
  18  26  12 50.3797 11.0570   4
 -26  14  18 12.4743 14.7833   2
 -26  18  14-8.34544 14.9639   2
 -14  26  18 2.21478 10.1442   2
  14  26  18 6.57367 10.7885   4
  18  26  14 8.05608 10.3144   4
  18  26 -14 4.56374 14.1260   4
  18  26  16 3743.24 129.961   4
  16  26  18 3784.95 130.141   4
 -18  26  16 3745.56 130.924   2
 -26  16  18 3822.98 131.692   2
  18  26 -16 3812.90 131.731   4
 -26  18  16 3548.17 131.546   2
 -16  26  18 3760.86 130.571   2
  18  26 -18 108.748 17.3407   4
 -26  18  18 102.801 16.6314   2
  18  26  18 103.298 11.6156   4
 -18  26  18 98.1605 13.5034   2
  20  26   0 10016.7 334.978   4
  26  20   0 9757.77 334.169   4
   0  26  20 9923.13 335.227   4
   0  26 -20 9625.83 334.687   4
  20  26   2 776.326 30.8303   4
  26  20   2 714.307 29.1548   4
  20  26  -2 749.724 31.3961   4
  26  20  -2 771.222 29.9195   4
  -2  26  20 776.605 31.6299   4
  -2  26 -20 734.060 30.1052   4
   2  26  20 776.171 31.6030   4
   2  26 -20 770.623 31.1950   4
  20  26  -4 54.3417 12.3333   4
  20  26   4 64.4378 11.4527   4
   4  26  20 50.5689 12.8107   4
  -4  26 -20 60.6068 10.2240   4
   4  26 -20 47.0156 12.2156   4
  26  20  -4 47.9321 10.1895   4
  20  26   6 1009.45 39.8069   4
  -6  26 -20 1021.40 39.0925   4
  20  26  -6 1075.47 41.1204   4
   6  26 -20 1032.90 41.0331   4
   6  26  20 1063.54 41.0026   4
  26  20  -6 1103.38 40.2203   4
  20  26  -8 7.13542 12.3332   4
   8  26  20 18.6211 12.4066   4
  20  26   8 8.79676 9.86645   4
  26  20  -8 10.0414 11.0544   4
  20  26 -10 255.913 18.1905   4
 -26  10  20 276.289 19.0960   2
  10  26  20 244.860 16.5723   4
  26  20 -10 233.865 16.8422   4
  20  26  10 243.487 14.9382   4
  20  26  12 1732.66 62.9505   4
 -26  20  12 1802.80 65.2747   2
 -26  12  20 1781.38 65.1574   2
  20  26 -12 1734.66 64.7421   4
 -12  26  20 1730.16 62.8855   2
  12  26  20 1762.19 63.6035   4
 -26  20  14 894.510 37.6255   2
 -20  26  14 864.144 36.4212   2
  14  26  20 895.505 35.2338   4
 -26  14  20 930.048 37.7497   2
  20  26  14 905.462 34.8770   4
 -14  26  20 892.656 34.9445   2
  20  26 -14 909.704 37.6020   4
 -26  16  20 947.528 38.1551   2
 -16  26  20 932.462 35.5611   2
  20  26  16 872.302 34.4779   4
 -20  26  16 884.867 36.7038   2
  16  26  20 897.567 35.0905   4
 -26  20  16 886.080 37.5349   2
  20  26 -16 874.108 37.9074   4
  20  26  18 829.619 32.0295   4
 -20  26  18 845.078 34.3787   2
 -26  20  18 812.083 35.5801   2
 -26  18  20 835.393 35.7037   2
  20  26 -18 811.710 35.6542   4
 -18  26  20 830.500 33.8371   2
  18  26  20 811.931 32.5414   4
 -20  26  20 4253.78 142.901   2
  20  26  20 3982.57 141.235   4
 -26  20  20 4070.10 143.508   2
  20  26 -20 4153.32 143.970   4
   0  26  22 115.414 14.7664   4
   0  26 -22 136.799 13.0711   4
  22  26   0 116.838 13.4759   4
  26  22   0 127.268 11.7650   4
  -2  26 -22 14.6846 10.5189   4
  22  26   2 30.9381 11.6861   4
  26  22   2 11.5601 9.14747   4
   2  26  22 18.3787 13.6184   4
  22  26  -2 11.9102 12.2329   4
  26  22  -2 23.2458 10.3411   4
  -2  26  22 6.34981 13.6489   4
   2  26 -22 12.7840 11.8754   4
  26  22  -4 2093.16 72.6806   4
  26  22   4 2019.86 71.7031   4
  22  26   4 2095.89 72.6196   4
  22  26  -4 1973.69 73.2627   4
   4  26 -22 1980.30 73.3820   4
   4  26  22 2085.26 73.5561   4
  -4  26 -22 1972.70 72.0243   4
  -4  22 -26 2023.81 71.9972   4
   6  26 -22 302.313 18.9530   4
  26  22  -6 351.918 17.9352   4
  22  26  -6 314.705 18.5300   4
   6  26  22 339.928 18.8887   4
  22  26   6 301.649 16.8227   4
   8  26  22 128.294 14.0651   4
  22  26  -8 141.917 15.4472   4
  26  22  -8 124.788 14.3349   4
  22  26   8 106.164 11.6606   4
  10  26  22-2.35875 11.2889   4
  26  22 -10 8.04319 13.2240   4
  22  26 -10-0.44492 13.9380   4
  22  26  10 5.76875 9.67153   4
  12  26  22 371.737 19.7290   4
 -26  22  12 381.473 22.7522   2
 -12  26  22 348.973 17.6338   2
  22  26 -12 372.495 21.7801   4
  26  22 -12 380.015 21.1159   4
  22  26  12 381.631 18.1098   4
 -26  14  22 32.9246 15.6332   2
 -22  26  14 30.1286 14.6473   2
 -14  26  22 47.7758 10.4819   2
  22  26 -14 32.1402 15.3116   4
  14  26  22 18.1363 10.8947   4
  26  22 -14 26.7298 14.3378   4
  22  26  14 19.1620 9.09865   4
 -26  22  14 29.1843 15.7601   2
 -22  26  16 801.732 33.4256   2
  22  26  16 754.978 29.9433   4
  22  26 -16 747.805 34.1154   4
 -26  16  22 758.302 33.8253   2
  16  26  22 782.167 31.0440   4
 -16  26  22 758.401 31.3860   2
 -26  22  16 789.635 34.3784   2
  22  26 -18 3.97518 17.0625   4
 -22  26  18 35.1470 14.0138   2
 -26  18  22 8.76561 16.0003   2
 -26  22  18 12.2034 16.5464   2
 -18  26  22 8.12329 11.8334   2
  18  26  22 16.8658 10.0759   4
  20  26  22 10.1821 8.52442   4
 -26  22  20 0.96636 15.8435   2
 -26  20  22 9.20872 15.7554   2
 -20  26  22 15.6546 12.9807   2
  22  26 -20-3.51762 17.2777   4
  20  26 -22-5.03532 16.3016   4
 -22  26  20 23.8566 13.8545   2
 -22  26  22 36.6699 14.1542   2
  22  26 -22 35.8300 17.8774   4
 -26  22  22 26.7197 16.3126   2
  24  26   0 455.194 21.7892   4
  26  24   0 460.557 20.9837   4
   0  26 -24 443.898 21.6662   4
   0  24 -26 425.038 21.2993   4
  26  24   2 1193.41 44.3340   4
  24  26   2 1216.22 44.9297   4
  -2  26 -24 1184.56 44.5333   4
   2  26 -24 1208.31 45.5616   4
  -2  24 -26 1124.29 44.5111   4
  24  26  -2 1169.35 45.1421   4
  26  24  -2 1208.59 44.8296   4
   2  26  24 1222.43 46.2620   4
  26  24   4 1584.99 56.7007   4
   4  26 -24 1550.21 58.1241   4
  24  26   4 1546.62 57.0982   4
   4  26  24 1543.37 58.1497   4
  24  26  -4 1596.65 58.0948   4
  26  24  -4 1672.79 57.8542   4
  -4  24 -26 1510.89 56.6290   4
  -4  26 -24 1563.53 56.8361   4
  26  24   6 76.7349 9.60144   4
   6  26  24 90.8342 13.5043   4
  26  24  -6 58.5465 13.3800   4
  24  26  -6 77.6078 13.1752   4
  24  26   6 72.8127 11.0574   4
  26  24  -8 41.0657 13.7210   4
  24  26  -8 33.0342 14.1584   4
   8  26  24 44.1099 12.9916   4
  24  26   8 37.0453 10.0569   4
  24  26 -10 477.379 24.1050   4
  24  26  10 474.455 20.2801   4
  10  26  24 436.520 22.5521   4
  26  24 -10 435.658 23.3523   4
 -24  26  12 372.220 22.0847   2
  12  26  24 362.413 19.3962   4
  24  26 -12 365.029 21.8409   4
 -26  24  12 372.313 22.3682   2
  24  26  12 351.112 17.3523   4
  26  24 -12 382.564 21.0779   4
  24  26 -14 1646.12 64.0254   4
  14  26  24 1691.03 62.1596   4
 -26  24  14 1815.18 64.3899   2
 -24  26  14 1782.50 64.1177   2
 -14  26  24 1623.66 61.6034   2
  26  24 -14 1810.05 64.0459   4
 -26  24  16 1126.55 43.2673   2
 -16  26  24 1002.91 40.1915   2
  24  26 -16 1059.54 43.0992   4
  26  24 -16 1071.04 42.7754   4
 -24  26  16 1037.03 42.6050   2
 -18  26  24 384.712 19.8689   2
  24  26 -18 401.840 23.8934   4
 -24  26  18 342.816 21.5646   2
 -26  24  18 360.010 22.9339   2
  26  24 -18 375.534 23.5453   4
 -24  26  20 25.6920 15.5133   2
 -26  24  20 49.4183 16.3636   2
 -20  26  24 44.3740 13.4185   2
  24  26 -20 43.0688 17.4718   4
  26  24 -20 23.3811 17.6346   4
 -22  26  24 461.735 24.3448   2
 -24  26  22 550.414 25.6524   2
  24  26 -22 523.949 28.0826   4
 -26  24  22 496.003 25.6757   2
  26  24 -22 500.753 27.7018   4
  22  26 -24 536.780 27.8573   4
  24  26 -24 207.364 20.9529   4
  26  24 -24 224.708 21.1007   4
   0  26 -26 35.4099 12.1534   4
  26  26   0 61.1381 12.1305   4
  26  26   2 4941.51 170.622   4
  26  26  -2 4945.58 171.019   4
   2  26 -26 4927.59 171.260   4
  -2  26 -26 4982.69 170.689   4
  26  26  -4 105.023 13.6012   4
   4  26 -26 115.218 14.5859   4
  -4  26 -26 109.629 10.6961   4
  26  26   4 107.487 11.7448   4
  26  26  -6 251.633 18.0885   4
  26  26   6 259.207 14.8613   4
  26  26  -8 1950.02 67.5096   4
  26  26   8 1773.35 65.5609   4
  26  26 -10 24.0962 13.4308   4
 -26  26  12 1497.17 58.2848   2
  26  26 -12 1555.46 57.5693   4
 -26  26  14 724.545 33.6893   2
  26  26 -14 772.762 33.4096   4
 -26  26  16 49.6678 16.7126   2
  26  26 -16 93.1851 17.3663   4
  26  26 -18 2426.07 87.5276   4
 -26  26  18 2407.15 87.2852   2
 -26  26  20 108.601 16.9571   2
  26  26 -20 85.9031 17.6641   4
 -26  26  22 12.3952 13.6024   2
  26  26 -22 15.4965 16.7960   4
  22  26 -26-10.8007 18.3592   4
  26  26 -24 97.9149 18.5638   4
  24  26 -26 91.6937 18.7038   4
  26  24 -26 84.1196 18.9606   4
  26  26 -26 224.989 20.3379   4
  -1  27  -1 4.83333 9.00987   1
  -1  27   1 17.1516 10.0406   4
   1  27   1 9.71066 9.55974   4
  -1  27  -1 12.8282 9.54370   4
   1  27  -1 16.2929 11.3559   1
   1  27  -1 7.51006 10.0234   4
  -1  27   1 15.7845 9.93784   1
   1  27   1 15.5872 10.5652   1
   1  27   3 1408.47 49.7447   4
  -3  27  -1 1375.80 49.3835   4
   3  27   1 1345.83 49.7397   4
  -1  27  -3 1354.58 49.5957   4
  -3  27   1 1365.56 54.0547   1
   1  27  -3 1379.91 49.7873   4
   3  27  -1 1335.71 49.6812   4
  -1  27   3 1327.15 53.9480   1
   3  27   1 1382.85 55.9416   1
   1  27   3 1388.87 55.0241   1
  -1  27   3 1370.47 49.6218   4
  -3  27   1 1303.05 49.2923   4
  -3  27   3 3.06645 9.66902   4
   3  27   3-5.14247 9.60673   4
  -3  27  -3-5.67764 8.97166   4
 -27   3  -3 8.72519 10.9373   1
   3  27  -3 12.2963 9.54468   4
  -3  27   3 1.60674 7.68955   1
 -27   3   3 3.26324 8.66336   2
   3  27   3-6.08320 9.47362   1
 -27   5  -1 18.7131 9.20770   1
  -5  27   1 18.4307 9.08411   4
   1  27   5 14.7806 9.42753   4
 -27  -1   5 14.4593 8.07160   2
  -5  27   1 8.83956 7.91177   1
  -1  27  -5 25.7107 9.42426   4
  -1  27   5 14.9808 8.64811   1
   1  27  -5 13.3431 9.40763   4
   5  27  -1 16.4660 10.3964   4
 -27   1   5 12.9919 8.62219   2
   1  27   5 15.4786 9.21273   1
  -5  27  -1 11.6980 8.29650   4
  -1  27   5 14.1484 9.45962   4
  -5  27  -3 1067.06 37.8351   4
  -3  27  -5 973.441 37.7818   4
   5  27  -3 1054.84 38.5617   4
   3  27  -5 1029.25 38.4572   4
 -27   5   3 981.663 37.9679   2
  -5  27   3 1024.24 37.8768   4
 -27   5  -3 929.234 42.5240   1
 -27   3   5 1032.63 37.9751   2
  -3  27   5 989.466 38.0356   4
   3  27   5 969.613 43.1637   1
  -5  27  -5 1.45547 8.12515   4
   5  27   5 1.06928 10.5728   1
   5  27  -5 2.37934 10.2331   4
 -27   5   5 6.13095 9.15129   2
  -5  27   5 0.31182 9.44158   4
  -1  27  -7 520.707 22.2250   4
   1  27   7 487.080 22.2883   4
   1  27  -7 510.196 22.4539   4
 -27  -1   7 524.483 21.7970   2
 -27   1   7 514.537 22.0585   2
  -7   1 -27 512.948 28.8877   3
  -1  27   7 525.312 22.6306   4
  -7  27   1 529.855 21.8258   4
  -7  -1 -27 487.480 28.6570   3
  -7  27  -1 541.510 21.7436   4
  -7  27   3 241.201 13.5705   4
   7  27   3 238.022 14.5865   4
  -3  27  -7 233.645 13.7614   4
  -7  -3 -27 241.406 19.2233   3
  -3  27   7 218.221 14.4983   4
 -27  -3   7 237.845 13.3389   2
   3  27  -7 233.658 14.9330   4
 -27   7  -3 223.879 16.4876   1
 -27   3   7 237.589 14.0296   2
  -7  27  -3 259.402 13.3110   4
   7  27   5 2798.05 98.8717   4
  -7  27  -5 2806.23 98.1527   4
  -5  27  -7 2880.82 98.4110   4
  -5  27   7 2776.04 98.7444   4
   7  27  -5 2817.61 99.0851   4
 -27   7   5 2804.47 98.8728   2
  -7  27   5 2882.85 98.6200   4
   5  27   7 2853.44 98.9520   4
 -27   5   7 2783.95 98.8596   2
   5  27  -7 2876.34 99.0870   4
  -7  -5 -27 2724.08 106.659   3
   7  27   7-2.04881 10.6868   4
  -7  27  -7-4.24286 8.24837   4
 -27   7   7-1.74915 10.4166   2
  -7  27   7 2.58026 9.55042   4
   7  27  -7 11.2876 10.8331   4
   9  27   1 1339.01 49.7276   4
   9  27  -1 1382.60 49.7354   4
  -1  27  -9 1356.41 49.3890   4
 -27  -1   9 1324.75 49.2194   2
   1  27  -9 1368.63 49.5211   4
 -27   1   9 1312.92 49.2918   2
  -1  27   9 1412.10 49.7713   4
  -9  -1 -27 1239.75 55.9776   3
  -9  27   1 1336.85 48.7780   4
  -9  27  -1 1345.78 48.6832   4
  -3  27  -9 1070.07 39.3204   4
   9  27   3 1053.82 39.8709   4
   3  27  -9 1087.09 39.8973   4
 -27   3   9 1025.75 39.7532   2
  -3  27   9 1016.17 39.7837   4
  -9  27   3 1055.30 39.2374   4
  -9  -3 -27 1008.45 46.0637   3
  -9  27  -3 1054.18 38.7212   4
   9  27   5 10855.5 367.606   4
   5  27   9 10932.6 367.636   4
   5  27  -9 10954.4 367.642   4
 -27   5   9 10732.8 367.593   2
  -5  27   9 10660.3 367.449   4
  -5  27  -9 10627.8 367.031   4
  -9  27   5 10788.8 367.199   4
  -9  27  -5 10880.4 366.830   4
  -7  27  -9 1447.75 51.9434   4
 -27   9   7 1468.61 53.2238   2
   7  27  -9 1403.78 53.1527   4
   7  27   9 1454.44 52.9583   4
 -27   7   9 1441.95 53.1625   2
  -9  27   7 1451.89 52.6342   4
  -7  27   9 1403.41 52.7708   4
   9  27   7 1469.18 52.9662   4
  -9  27  -7 1459.95 51.8143   4
   9  27  -9 4.46319 11.4932   4
  -9  27  -9 5.15233 7.52394   4
 -27   9   9-4.16052 11.2115   2
  -9  27   9 10.3695 10.4359   4
   9  27   9-14.3045 10.5282   4
  11  27   1 4747.41 168.544   4
  11  27  -1 4987.08 168.711   4
  -1  27 -11 5043.23 168.417   4
 -27   1  11 4854.23 168.493   2
   1  27 -11 4918.22 168.457   4
 -11  27   1 4968.65 167.838   4
 -27  -1  11 4774.42 168.355   2
 -11  27  -1 4912.20 167.735   4
  -1  27  11 4799.41 168.426   4
   3  27 -11 1127.66 42.6659   4
  11  27   3 1120.87 42.7408   4
  -3  27 -11 1135.34 42.1397   4
  11  27  -3 1157.35 42.9830   4
 -27   3  11 1148.39 42.7884   2
   3  27  11 1114.58 42.7135   4
 -11  27   3 1108.98 41.7823   4
 -11  27  -3 1136.94 41.4078   4
  -3  27  11 1164.34 42.6432   4
 -11  27   5 3250.33 110.161   4
  -5  27 -11 3191.02 109.970   4
  11  27  -5 3109.43 110.812   4
 -27   5  11 3142.41 110.739   2
  11  27   5 3179.61 110.609   4
   5  27 -11 3133.48 110.650   4
 -11  27  -5 3099.42 109.436   4
   5  27  11 3240.44 110.697   4
  -5  27  11 3181.03 110.649   4
   7  27 -11 124.015 13.5249   4
  11  27   7 141.331 12.8358   4
 -27   7  11 136.168 13.5760   2
  -7  27 -11 135.732 10.5437   4
 -11  27   7 148.547 11.8566   4
 -27  11   7 142.642 13.5540   2
   7  27  11 140.815 13.0091   4
  -7  27  11 119.546 12.3511   4
 -11  27  -7 132.858 9.55305   4
  -9  27 -11 1828.63 65.8182   4
 -27   9  11 1897.81 67.5135   2
  -9  27  11 1872.16 67.0310   4
 -27  11   9 1788.43 67.5687   2
 -11  27   9 1909.32 66.8804   4
   9  27  11 1938.59 67.2651   4
   9  27 -11 1869.26 67.5872   4
  11  27   9 1859.67 67.1004   4
 -11  27  11 5.60716 10.1683   4
 -27  11  11-2.84159 12.5649   2
  11  27  11 7.21499 11.1339   4
  13  27  -1 2712.66 93.8126   4
  13  27   1 2724.24 93.7616   4
 -27   1  13 2609.97 93.6502   2
 -13  27  -1 2711.29 92.5798   4
  -1  27 -13 2725.68 93.4292   4
   1  27 -13 2678.15 93.5126   4
   1  27  13 2476.21 93.5231   4
 -13  27   1 2635.14 92.6451   4
 -13  27  -3 173.558 10.8162   4
  13  27   3 168.317 13.4121   4
   3  27  13 168.678 13.9911   4
 -27   3  13 174.183 13.8422   2
  13  27  -3 152.556 13.9804   4
  -3  27 -13 150.373 12.1404   4
   3  27 -13 163.684 13.5338   4
  -3  27  13 204.817 14.1641   4
 -13  27   3 170.338 11.5153   4
  13  27   5 621.077 26.5722   4
  -5  27 -13 627.779 25.3461   4
 -27   5  13 605.589 26.7798   2
   5  27 -13 625.324 26.7164   4
  -5  27  13 680.760 26.7443   4
  27  13  -5 581.657 24.7792   4
   5  27  13 667.641 26.9363   4
 -13  27   5 621.682 25.3830   4
  13  27   7 189.116 14.1192   4
   7  27 -13 178.477 14.8721   4
  -7  27 -13 204.411 12.0108   4
 -13  27   7 205.256 12.9123   4
  13  27  -7 187.507 15.1630   4
   7  27  13 204.358 14.5212   4
 -27   7  13 166.394 14.7295   2
  -7  27  13 176.902 13.7724   4
  13  27   9 22.1784 11.1748   4
   9  27 -13 11.9275 12.1202   4
  13  27  -9 27.4187 12.4342   4
  -9  27  13 35.0249 11.0127   4
 -27   9  13 33.3331 12.5416   2
 -27  13   9 21.8267 12.2112   2
   9  27  13 11.4037 11.6124   4
 -13  27   9 35.6511 10.5504   4
 -13  27  11 87.0956 11.6438   4
 -11  27  13 105.881 12.1714   4
  11  27  13 91.9726 12.2744   4
 -27  13  11 90.8928 14.0432   2
  11  27 -13 78.5171 13.6041   4
 -27  11  13 79.1585 13.9610   2
  13  27  11 74.7894 11.8053   4
 -13  27  13 7.45763 10.7112   4
  13  27  13-9.24576 10.9663   4
   1  27  15 238.353 15.8999   4
  15  27  -1 242.864 15.9061   4
  -1  27 -15 240.103 14.5509   4
 -15  27   1 227.953 12.6141   4
   1  27 -15 235.348 15.2886   4
  15  27   1 252.589 15.4044   4
   3  27 -15 2115.04 75.4663   4
  15  27   3 2093.61 75.3349   4
 -27   3  15 2132.18 75.7600   2
  -3  27 -15 2059.53 74.7470   4
 -15  27   3 2165.40 74.3358   4
  15  27  -3 2051.01 75.6317   4
   3  27  15 2152.11 75.6738   4
  15  27   5 2079.50 74.7870   4
  -5  27 -15 2099.45 74.0757   4
 -27   5  15 2163.46 75.3009   2
  15  27  -5 2060.57 75.1686   4
   5  27  15 2100.90 75.1204   4
  27  15  -5 2168.38 73.9802   4
 -15  27   5 2015.07 73.8345   4
  -5  27  15 2092.97 74.8774   4
   5  27 -15 2075.80 75.0393   4
  15  27   7 41.8719 11.5114   4
   7  27 -15 29.0227 12.1955   4
 -27   7  15 28.2326 12.4360   2
 -15  27   7 32.4733 9.85022   4
  -7  27 -15 41.0179 8.77305   4
  15  27  -7 47.2706 12.8404   4
  -7  27  15 45.1162 11.7421   4
   7  27  15 43.5008 12.2050   4
  -9  27  15 1067.16 42.5631   4
   9  27 -15 1126.20 43.0996   4
 -27   9  15 1092.18 43.2734   2
 -15  27   9 1083.71 41.6680   4
  15  27  -9 1126.72 43.0965   4
   9  27  15 1147.66 42.6048   4
  15  27   9 1140.56 42.2991   4
 -27  15   9 1133.79 43.5419   2
  11  27  15 460.639 21.6879   4
  15  27 -11 416.617 22.6824   4
 -15  27  11 436.786 20.9953   4
  11  27 -15 471.344 22.9765   4
 -11  27  15 468.553 22.2136   4
  15  27  11 446.612 21.3497   4
 -13  27  15 3114.81 109.975   4
  15  27  13 3296.21 109.951   4
  13  27  15 3245.68 109.962   4
 -13  27  15 2977.41 109.405   2
  15  27 -13 3060.52 110.618   4
  15  27  15-5.95049 10.6951   4
 -27  15  15 10.5778 14.6220   2
 -15  27  15 0.38883 11.3181   2
  17  27   1 41.6888 11.7116   4
  17  27  -1 45.8124 11.8791   4
   1  27  17 33.3871 12.3325   4
  -1  27 -17 33.7340 10.6547   4
  -1  27  17 37.7105 12.1715   4
   1  27 -17 39.4084 11.0736   4
  17  27   3 416.606 20.4227   4
  27  17  -3 409.196 18.1490   4
  17  27  -3 428.128 20.8313   4
 -17  27   3 420.313 18.1665   4
  -3  27 -17 377.547 18.9069   4
   3  27  17 408.612 20.7909   4
   3  27 -17 405.447 20.5317   4
   5  27 -17 5113.31 174.106   4
  -5  27 -17 4937.93 173.035   4
  17  27  -5 5061.19 174.085   4
 -27   5  17 5126.61 174.344   2
  -5  27  17 4966.57 174.018   4
   5  27  17 5062.59 173.932   4
 -17  27   5 5070.39 172.923   4
  17  27   5 5041.96 173.685   4
  27  17  -5 4999.41 173.101   4
  -7  27 -17 741.823 28.3884   4
 -27   7  17 718.986 31.0066   2
   7  27  17 725.625 30.1811   4
  17  27  -7 700.123 30.4330   4
  -7  27  17 760.923 30.8552   4
   7  27 -17 696.091 30.6245   4
  27  17  -7 687.325 29.1290   4
 -17  27   7 768.641 28.9423   4
  17  27   7 696.317 29.6785   4
   9  27  17 1829.66 67.8431   4
  17  27  -9 1914.56 68.5308   4
   9  27 -17 1824.12 68.4681   4
  -9  27  17 1904.04 68.3734   4
  17  27   9 1921.44 67.5648   4
 -17  27   9 1867.27 67.0097   4
 -11  27  17 248.262 14.4475   2
 -11  27  17 279.971 17.2796   4
  17  27 -11 251.796 18.5336   4
  11  27  17 261.574 16.8017   4
  11  27 -17 250.626 18.0175   4
  17  27  11 273.431 15.9748   4
 -27  17  13 10.6779 14.7048   2
  13  27  17 9.11794 11.2926   4
  13  27 -17-9.07129 15.0919   4
 -27  13  17 8.78131 14.7282   2
  17  27  13 19.3552 11.2412   4
 -13  27  17 5.04937 9.70681   2
  17  27 -13 11.7100 14.5427   4
  17  27  15 35.5103 11.3604   4
 -27  17  15 23.0660 15.5397   2
  15  27  17 22.7261 11.3849   4
 -15  27  17 42.5626 12.1586   2
 -17  27  15 34.3450 12.7766   2
  17  27 -15 30.2069 15.6971   4
 -27  15  17 9.90788 15.4690   2
 -17  27  17-3.29360 12.0405   2
  17  27  17-7.59989 10.9249   4
  17  27 -17 5.74114 15.2620   4
 -27  17  17 0.96419 15.9671   2
   1  27  19 615.570 27.1681   4
  -1  27  19 618.663 27.3675   4
  19  27   1 639.658 26.9246   4
  27  19  -1 594.867 24.8360   4
  -1  27 -19 640.462 26.2332   4
   1  27 -19 619.219 26.4514   4
  19  27  -1 577.300 26.6096   4
  19  27   3 521.428 23.1434   4
  19  27  -3 482.695 23.7280   4
  27  19  -3 473.716 21.4775   4
  -3  27 -19 509.654 22.0789   4
   3  27 -19 506.998 23.2620   4
   3  27  19 465.409 23.6430   4
  19  27  -5 2859.12 97.7128   4
  27  19  -5 2758.11 96.6641   4
  19  27   5 2841.55 97.1278   4
  -5  27 -19 2693.42 96.3107   4
   5  27 -19 2716.37 97.4433   4
   5  27  19 2684.77 97.4109   4
  -7  27 -19 2746.23 98.3186   4
  -7  27  19 2921.40 100.069   4
   7  27  19 2878.14 99.8026   4
  27  19  -7 2922.09 99.3740   4
  19  27  -7 2783.77 100.079   4
   7  27 -19 2692.94 99.9242   4
  19  27   7 2858.35 99.3916   4
  19  27  -9 1536.66 58.2068   4
  -9  27  19 1542.79 58.0617   4
  27  19  -9 1596.64 57.5286   4
   9  27  19 1603.78 57.7724   4
  19  27   9 1576.49 57.1007   4
   9  27 -19 1531.34 58.4931   4
  11  27  19-4.26135 11.5998   4
 -11  27  19 9.79450 8.38308   2
  11  27 -19 5.90090 14.3044   4
 -27  19  11-5.65546 14.7919   2
 -27  11  19 1.86167 14.7664   2
  19  27 -11-2.23552 14.2589   4
  19  27  11 4.32641 10.5825   4
  27  19 -11 12.3279 12.7560   4
 -27  19  13 516.850 27.1311   2
 -27  13  19 536.961 27.5181   2
 -13  27  19 566.801 23.9246   2
  13  27  19 562.195 25.0989   4
  19  27  13 570.241 24.3009   4
  13  27 -19 542.983 27.2154   4
  19  27 -13 564.765 26.9555   4
 -15  27  19 250.747 15.7962   2
 -27  19  15 263.544 20.1580   2
 -19  27  15 260.995 18.4205   2
  19  27 -15 269.370 19.7456   4
  19  27  15 285.488 15.6933   4
  15  27  19 257.220 15.9580   4
 -27  15  19 278.561 20.1857   2
 -19  27  17 2789.97 99.3905   2
  17  27  19 2764.07 98.3541   4
  19  27  17 2768.86 98.2790   4
 -27  17  19 2858.24 100.410   2
  19  27 -17 2802.60 100.322   4
 -27  19  17 2848.99 100.565   2
 -17  27  19 2834.81 99.1124   2
 -19  27  19 2.56558 12.9993   2
  19  27  19 3.38495 9.40370   4
  19  27 -19 8.43657 16.2840   4
 -27  19  19 0.98343 15.9678   2
  21  27   1 1391.98 51.9657   4
  27  21   1 1384.59 50.6718   4
  21  27  -1 1405.81 52.1870   4
  -1  27  21 1409.62 52.8705   4
   1  27  21 1375.39 52.7865   4
  -1  27 -21 1413.72 51.5326   4
  27  21  -1 1374.72 50.8645   4
   1  27 -21 1413.27 52.0349   4
  21  27   3 23.5119 11.7376   4
   3  27 -21 37.6789 12.3812   4
  21  27  -3 39.9815 12.8073   4
  27  21  -3 35.9740 10.3992   4
  -3  27  21 25.7137 14.2354   4
   3  27  21 23.4212 12.8318   4
  -3  27 -21 27.6221 9.77912   4
  21  27  -5 856.201 34.2393   4
  21  27   5 823.588 33.0197   4
  27  21  -5 832.902 33.0204   4
   5  27 -21 814.277 33.9563   4
  -5  27 -21 813.786 32.0351   4
   5  27  21 844.392 34.4012   4
  21  27  -7 496.352 24.4489   4
   7  27 -21 489.429 24.3216   4
   7  27  21 502.811 23.5951   4
  27  21  -7 465.139 22.7404   4
  21  27   7 503.825 22.4186   4
  27  21  -9 246.598 16.5832   4
   9  27  21 241.256 17.0072   4
  21  27  -9 233.290 17.7150   4
   9  27 -21 211.914 17.7618   4
  21  27   9 218.803 14.7416   4
  21  27 -11 1115.61 44.3388   4
  11  27 -21 1082.83 44.5689   4
  11  27  21 1127.14 43.2013   4
 -27  11  21 1141.13 44.6461   2
 -27  21  11 1120.83 44.7508   2
  27  21 -11 1132.33 43.7941   4
  21  27  11 1125.99 42.3693   4
 -27  21  13 1261.98 49.0916   2
 -27  13  21 1237.11 49.2153   2
  21  27 -13 1338.42 49.2611   4
  21  27  13 1228.97 46.7116   4
  27  21 -13 1284.67 48.5552   4
 -13  27  21 1231.74 46.4985   2
  13  27 -21 1320.53 49.3288   4
 -21  27  13 1218.32 48.3859   2
  13  27  21 1241.14 47.3811   4
 -27  15  21 739.012 32.7825   2
 -15  27  21 724.728 29.2529   2
  15  27  21 731.579 29.5643   4
  21  27 -15 778.397 32.6789   4
  15  27 -21 688.858 32.5549   4
 -21  27  15 673.071 31.1802   2
 -27  21  15 716.963 32.3319   2
  21  27  15 689.671 28.7770   4
 -27  17  21 982.860 40.3331   2
 -17  27  21 957.749 38.3106   2
 -27  21  17 993.222 40.9412   2
  21  27 -17 1008.74 40.7112   4
 -21  27  17 1033.94 39.4386   2
  21  27  17 934.655 36.9146   4
  17  27  21 982.216 37.6430   4
 -21  27  19 49.7120 14.0710   2
  21  27 -19 27.5736 16.3453   4
 -27  21  19 50.6652 17.1248   2
 -19  27  21 41.6858 12.2181   2
  19  27  21 33.9426 9.70886   4
 -27  19  21 42.8081 17.2124   2
  21  27  19 27.5998 9.20864   4
 -21  27  21-0.43076 13.4947   2
  21  27 -21-6.04717 18.3993   4
 -27  21  21 19.4558 16.1954   2
   1  27 -23 14.8067 11.6848   4
  23  27   1 9.72372 11.8226   4
  27  23   1 4.70935 9.45249   4
  -1  27  23 14.0334 14.4277   4
  23  27  -1 26.9404 12.1648   4
  27  23  -1 14.8921 9.63139   4
  -1  27 -23 2.27233 10.4648   4
   1  27  23 13.9301 14.4471   4
   3  27  23 13.7992 14.0883   4
   3  27 -23 15.9652 12.4800   4
  27  23   3 3.83366 9.25962   4
  23  27   3 16.6366 11.2421   4
  23  27  -3 22.7779 12.5904   4
  27  23  -3 15.0651 10.4781   4
  -3  27 -23 27.2754 10.0544   4
  -3  23 -27 25.1326 10.3666   4
  23  27  -5 842.299 35.1099   4
  27  23  -5 844.554 34.0917   4
  -5  27 -23 842.367 32.9093   4
   5  27 -23 846.514 34.9967   4
   5  27  23 896.934 35.2083   4
  27  23   5 809.596 32.2989   4
  23  27   5 896.628 33.8481   4
   7  27  23 27.7715 13.0684   4
  27  23  -7 10.4450 12.4771   4
   7  27 -23-8.55266 13.2618   4
  23  27  -7-7.03264 13.1950   4
  23  27   7 16.7791 10.6378   4
   9  27 -23 18.0374 15.2417   4
   9  27  23 2.47122 11.9830   4
  23  27  -9 30.3652 13.6038   4
  27  23  -9 1.26308 13.0920   4
  23  27   9 13.8918 9.92528   4
 -27  23  11 491.376 25.7192   2
  23  27 -11 488.714 25.0169   4
  23  27  11 472.410 21.3952   4
  11  27 -23 462.120 25.5024   4
  11  27  23 471.200 22.9784   4
  27  23 -11 470.845 24.0325   4
 -13  27  23 171.628 12.2578   2
  13  27 -23 148.261 17.8257   4
 -27  23  13 155.777 18.5551   2
  23  27 -13 161.871 17.9843   4
  23  27  13 145.879 12.1394   4
  27  23 -13 160.457 16.2771   4
 -23  27  13 186.098 18.0141   2
  13  27  23 158.916 14.6785   4
 -27  23  15 114.422 17.9096   2
  23  27  15 122.038 11.0110   4
  15  27  23 115.291 12.6043   4
  23  27 -15 111.518 17.5380   4
  27  23 -15 129.359 16.8714   4
 -23  27  15 140.982 16.5967   2
  15  27 -23 108.000 18.1032   4
 -15  27  23 121.366 12.5543   2
 -17  27  23 399.576 20.5161   2
  17  27  23 424.737 19.8399   4
  23  27 -17 424.412 24.9359   4
 -27  23  17 409.050 24.2920   2
 -23  27  17 392.043 22.5836   2
  27  23 -17 479.644 23.9778   4
  23  27 -19 296.831 22.5155   4
 -19  27  23 277.387 17.9398   2
 -27  19  23 319.836 22.0836   2
 -23  27  19 325.873 20.3584   2
 -27  23  19 326.681 21.2592   2
  27  23 -19 334.985 21.8151   4
 -27  21  23 37.8769 16.2060   2
 -21  27  23 16.5798 12.8615   2
  21  27 -23 39.6340 18.9962   4
  23  27 -21 5.98035 17.2643   4
  27  23 -21 36.0928 17.3548   4
 -27  23  21 15.7249 15.4431   2
 -23  27  21 32.5062 14.2858   2
 -27  23  23 11.6031 15.8196   2
 -23  27  23 9.68597 13.8519   2
  23  27 -23-1.97740 18.3849   4
  27  25   1 1237.61 46.1332   4
  25  27  -1 1234.80 46.9506   4
  27  25  -1 1267.56 46.3847   4
   1  25 -27 1214.53 46.7453   4
  -1  27 -25 1202.72 46.4220   4
  25  27   1 1300.42 46.6075   4
   1  27 -25 1224.68 46.8888   4
  -1  25 -27 1198.30 46.2501   4
   3  27 -25 3349.81 118.652   4
  25  27   3 3397.24 117.948   4
  25  27  -3 3421.19 118.635   4
  27  25  -3 3479.99 118.285   4
  27  25   3 3375.43 117.547   4
  -3  27 -25 3309.36 117.641   4
  -3  25 -27 3349.82 117.591   4
  25  27   5 201.270 14.1009   4
  25  27  -5 241.704 16.5031   4
  -5  27 -25 188.188 13.0511   4
  27  25  -5 218.542 15.9865   4
   5  27 -25 189.954 16.8431   4
  27  25   5 199.388 13.0609   4
  25  27  -7 1229.46 44.7557   4
  27  25  -7 1187.49 44.6727   4
   7  27 -25 1116.60 45.0442   4
  27  25   7 1101.81 42.1464   4
  25  27   7 1131.22 42.8424   4
  25  27  -9 3663.10 126.730   4
  27  25  -9 3714.90 126.604   4
   9  27 -25 3669.41 127.086   4
  25  27   9 3470.94 125.069   4
 -27  25  11 3921.46 136.667   2
  25  27 -11 3987.45 136.142   4
  27  25 -11 3974.93 135.926   4
  25  27  11 3763.64 134.085   4
  11  27 -25 3807.15 136.195   4
 -25  27  11 3932.00 136.459   2
 -27  25  13 1896.74 70.7601   2
 -25  27  13 1884.64 70.6408   2
  25  27 -13 1894.89 70.1567   4
  27  25 -13 1929.93 70.0975   4
 -27  25  15 101.274 17.1586   2
 -25  27  15 102.002 16.6898   2
  15  27 -25 90.0916 17.6556   4
  27  25 -15 125.490 16.3209   4
  25  27 -15 109.122 17.7128   4
  27  25 -17 1463.26 55.2864   4
  17  27 -25 1444.73 55.8300   4
  25  27 -17 1508.79 55.6301   4
 -27  25  17 1384.60 55.2052   2
 -25  27  17 1414.10 54.8310   2
 -27  25  19 178.051 18.6841   2
  27  25 -19 199.506 19.0996   4
 -25  27  19 195.453 17.8085   2
  25  27 -19 222.085 20.0388   4
  27  25 -21 2823.78 101.007   4
 -27  25  21 2815.79 100.360   2
 -25  27  21 2758.13 99.9473   2
  25  27 -21 2873.47 100.969   4
 -25  27  23 277.195 18.5475   2
  27  25 -23 303.405 22.1487   4
  25  27 -23 309.791 22.5943   4
  23  27 -25 309.418 22.6222   4
  25  27 -25-6.47308 17.3604   4
  25  25 -27 21.1386 17.8097   4
  27  25 -25 15.8504 17.3968   4
   1  27 -27 6.48626 11.9998   4
  27  27   1 7.04402 11.2027   4
  27  27  -1 3.86507 11.6714   4
  -1  27 -27-10.2779 11.4211   4
  27  27   3 15.8513 9.77566   4
  27  27  -3 7.26241 12.5255   4
  -3  27 -27 0.70030 10.1945   4
   3  27 -27-2.13672 12.7177   4
  27  27   5 3.04362 9.57215   4
   5  27 -27-9.79864 13.0769   4
  27  27  -5 2.91890 12.6001   4
  27  27   7-1.28340 8.79586   4
   7  27 -27-8.73499 14.5549   4
  27  27  -7-6.55289 13.5175   4
   9  27 -27 17.8928 15.8137   4
  27  27   9 17.0514 8.82250   4
  27  27  -9 0.44794 13.2247   4
  27  27 -11 13.1944 14.6060   4
  11  27 -27 3.35933 15.7516   4
 -27  27  11-9.51186 16.9668   2
 -27  27  13 9.38988 16.7643   2
  13  27 -27 17.5263 16.3549   4
  27  27 -13-1.84205 15.1427   4
  15  27 -27 12.2706 17.4402   4
 -27  27  15 15.9220 15.3744   2
  27  27 -15-6.07713 15.7083   4
  27  27 -17 0.47351 16.0863   4
  17  27 -27 14.2605 17.9083   4
 -27  27  17-6.16225 16.7387   2
  27  27 -19 0.47215 16.6980   4
 -27  27  19 9.14965 15.6868   2
  27  27 -21 9.31256 17.2524   4
 -27  27  21 9.64020 14.2122   2
  23  27 -27 0.46514 18.3391   4
  27  27 -23 9.07820 17.0333   4
  27  27 -25 6.99195 16.1202   4
  25  27 -27-10.1453 17.1973   4
  27  25 -27 12.9248 17.1567   4
  27  27 -27 11.1066 15.8262   4
   0  28   0 21123.6 712.089   4
   0  28   0 20740.9 718.500   1
  -2  28   0 6197.55 210.875   4
 -28   2   0 6048.94 210.405   2
   2  28   0 6229.42 211.053   4
   0  28  -2 6066.75 210.930   4
  -2  28   0 6207.15 216.764   1
   0  28   2 6196.26 216.861   1
 -28   0   2 6128.46 210.411   2
   0  28   2 6287.20 210.986   4
   2  28   2 452.176 20.4080   4
  -2  28  -2 441.850 19.8141   4
   2  28  -2 439.162 20.5047   4
  -2  28   2 391.231 22.6948   1
   2  28   2 409.136 23.7420   1
  -2  28  -2 417.888 24.1226   1
 -28   2   2 445.338 19.2093   2
  -2  28   2 442.922 20.2084   4
  -4  28   0 323.866 19.6022   1
   0  28   4 359.957 20.5387   1
   4  28   0 365.806 17.7923   4
   0  28  -4 345.684 17.5310   4
 -28   4   0 347.862 16.5147   2
 -28   0   4 332.605 16.2626   2
   0  28   4 332.755 17.4852   4
  -4  28   0 326.514 16.7552   4
  -4  28  -2 923.328 34.7908   4
   4  28   2 895.465 35.2301   4
  -2  28  -4 924.878 35.0254   4
   4  28  -2 934.651 35.4938   4
 -28   4   2 870.965 34.5293   2
   2  28  -4 926.951 35.3058   4
   2  28   4 886.666 39.9402   1
 -28   2   4 938.700 34.7014   2
 -28  -2   4 901.594 34.1392   2
  -2  28   4 922.091 35.0464   4
  -4  28   2 954.335 34.9378   4
 -28   4  -2 801.216 38.8209   1
   2  28   4 902.676 35.3192   4
 -28   4   4 4481.18 153.840   2
  -4  28  -4 4465.10 153.705   4
   4  28  -4 4530.05 154.145   4
  -4  28   4 4391.71 153.842   4
   0  28  -6 1967.50 68.8492   4
 -28   0   6 1915.97 68.2999   2
   0  28   6 1892.63 68.7434   4
  -6  28   0 1927.14 68.3371   4
  -2  28  -6 1714.24 61.7241   4
   6  28  -2 1734.44 62.1461   4
   2  28  -6 1765.63 62.1067   4
 -28  -2   6 1721.38 61.4033   2
 -28   6   2 1692.80 61.7513   2
  -6  28   2 1708.54 61.5757   4
 -28   2   6 1693.61 61.6468   2
  -2  28   6 1789.39 62.0670   4
  -6  28  -2 1686.88 61.3747   4
  -6  28  -4 2969.89 102.024   4
 -28   4   6 2893.47 102.340   2
   6  28  -4 2995.09 102.719   4
   6  28   4 2874.70 102.525   4
 -28   6   4 2905.96 102.427   2
  -4  28  -6 2862.90 102.092   4
  -4  28   6 2981.17 102.520   4
   4  28  -6 3070.25 102.838   4
  -6  28   4 2855.37 102.222   4
  -6  28   6 696.588 28.4262   4
 -28   6   6 670.097 28.4038   2
  -6  28  -6 678.679 27.6473   4
   6  28  -6 742.153 29.0214   4
   6  28   6 718.481 28.8104   4
   0  28  -8 1784.17 63.9545   4
   0  28   8 1808.01 64.1447   4
  -8  28   0 1750.23 63.3568   4
 -28   0   8 1782.70 63.6825   2
   8  28   2 1385.22 48.6920   4
  -2  28  -8 1319.67 48.0049   4
 -28  -2   8 1268.96 47.6624   2
   2  28  -8 1344.90 48.4705   4
  -2  28   8 1321.17 48.2621   4
  -8  28   2 1320.90 47.7226   4
 -28   2   8 1209.28 47.8614   2
  -8  28  -2 1287.88 47.4499   4
 -28   4   8 170.495 13.3875   2
  -8  28  -4 162.589 11.6223   4
   4  28  -8 164.024 13.7356   4
  -4  28  -8 159.308 11.7293   4
  -4  28   8 153.740 12.5494   4
   8  28   4 151.493 13.6486   4
 -28   8   4 153.771 13.2770   2
  -8  28   4 163.363 12.3248   4
   4  28   8 148.464 13.3955   4
  -6  28  -8 1694.38 61.1429   4
   6  28   8 1698.68 61.9394   4
 -28   8   6 1647.53 61.9485   2
   8  28  -6 1647.38 62.1329   4
  -6  28   8 1724.91 61.8031   4
   6  28  -8 1744.85 62.1828   4
 -28   6   8 1782.82 62.0713   2
  -8  28   6 1691.61 61.4842   4
   8  28   6 1751.38 62.0731   4
  -8  28  -6 1741.63 60.9733   4
  -8  28  -8 14.5203 8.12547   4
   8  28  -8 18.8708 11.8233   4
  -8  28   8 4.80853 10.4820   4
 -28   8   8 23.8159 11.4387   2
   8  28   8 18.3433 11.0152   4
  10  28   0 771.564 31.4391   4
   0  28 -10 775.225 31.0002   4
 -28   0  10 762.330 30.8835   2
 -10  28   0 791.288 30.1326   4
  10  28   2 1109.09 42.6619   4
  10  28  -2 1134.55 42.8550   4
  -2  28 -10 1117.94 42.0911   4
   2  28 -10 1202.49 42.8596   4
 -10  28   2 1167.85 41.7617   4
  -2  28  10 1061.88 42.4348   4
 -28   2  10 1110.58 42.3949   2
 -10  28  -2 1110.36 41.4166   4
  -4  28 -10 29.3564 9.32625   4
  10  28   4 23.9519 10.8758   4
 -10  28   4 19.7170 9.71689   4
   4  28 -10 14.9274 10.9853   4
 -28   4  10 9.49256 10.4743   2
 -10  28  -4 31.0918 8.03215   4
  -4  28  10 8.56543 10.5747   4
   4  28  10 11.5924 10.9895   4
  -6  28 -10 370.033 17.4827   4
 -28  10   6 367.188 19.2584   2
 -10  28   6 384.150 18.2729   4
   6  28 -10 380.714 19.1794   4
  -6  28  10 389.383 18.7947   4
 -28   6  10 346.553 19.0218   2
   6  28  10 346.240 19.1994   4
 -10  28  -6 371.044 16.9119   4
  10  28   6 371.645 18.8939   4
  10  28   8 167.093 13.2728   4
 -10  28  -8 145.309 10.3611   4
  -8  28  10 140.770 13.0090   4
 -10  28   8 133.952 12.6335   4
  -8  28 -10 152.494 10.8506   4
 -28   8  10 161.150 13.6050   2
   8  28 -10 139.342 13.9294   4
   8  28  10 152.528 13.5423   4
 -28  10   8 133.460 13.4188   2
 -10  28 -10 44.4910 8.05176   4
 -28  10  10 56.7866 12.9474   2
  10  28 -10 45.6190 12.7122   4
 -10  28  10 36.3797 11.1363   4
  10  28  10 53.3446 11.5058   4
  12  28   0 323.493 18.3658   4
   0  28 -12 367.994 17.8557   4
 -12  28   0 328.581 16.2597   4
  -2  28 -12 18.7766 10.2665   4
   2  28 -12 8.30624 11.0858   4
   2  28  12 1.86038 11.5543   4
  -2  28  12 18.9010 11.6655   4
  12  28  -2 17.7748 11.3903   4
 -12  28   2 17.9724 8.92307   4
 -28   2  12 14.1146 11.1722   2
 -12  28  -2 19.0493 7.77768   4
  12  28   2-6.29783 11.3454   4
  12  28   4 3807.33 129.546   4
  -4  28 -12 3748.10 128.959   4
 -28   4  12 3634.81 129.510   2
   4  28 -12 3773.60 129.550   4
  -4  28  12 3688.93 129.587   4
  12  28  -4 3790.43 129.790   4
 -12  28  -4 3620.41 128.290   4
   4  28  12 3871.97 129.707   4
 -12  28   4 3664.24 128.825   4
  12  28   6 5.13188 10.9008   4
 -12  28   6 10.1147 9.58862   4
  -6  28 -12 7.72949 8.82413   4
  12  28  -6 15.3689 12.3219   4
   6  28 -12 4.99097 11.6211   4
  -6  28  12 11.0355 11.0035   4
 -28   6  12 12.9901 12.1917   2
   6  28  12 6.75531 11.3868   4
 -12  28  -6 11.8131 7.50349   4
 -12  28   8 47.7201 10.5895   4
  12  28   8 44.9943 11.8877   4
  -8  28 -12 54.2291 8.66502   4
  -8  28  12 38.5733 11.4430   4
   8  28 -12 52.1072 12.7835   4
 -28  12   8 48.1691 12.9970   2
   8  28  12 56.2252 11.7248   4
 -28   8  12 61.7190 12.8137   2
 -28  12  10 410.522 20.9630   2
  10  28 -12 395.463 20.8576   4
 -28  10  12 379.590 20.5604   2
 -10  28  12 378.747 19.3278   4
 -12  28  10 390.909 19.2626   4
  12  28  10 376.616 19.7938   4
  10  28  12 376.300 20.0325   4
 -28  12  12 0.43223 13.1925   2
  12  28  12 4.18272 11.6595   4
 -12  28  12 4.84980 11.0743   4
 -14  28   0 2212.08 78.3548   4
  14  28   0 2252.02 79.6916   4
   0  28 -14 2249.04 79.3899   4
  14  28   2 518.651 24.0571   4
  14  28  -2 544.843 24.5377   4
 -28   2  14 505.580 24.0985   2
  -2  28 -14 562.105 23.6183   4
   2  28 -14 541.373 23.8523   4
 -14  28  -2 546.790 21.7109   4
 -14  28   2 530.740 22.1531   4
   2  28  14 523.230 24.4899   4
  14  28   4 30.7948 11.1580   4
  -4  28 -14 12.6530 9.50204   4
 -28   4  14 0.39970 12.0058   2
  14  28  -4 9.59414 12.4180   4
   4  28 -14 18.7235 11.5992   4
   4  28  14 10.8013 11.3526   4
 -14  28   4 20.1153 8.79298   4
  -4  28  14 6.11866 12.0753   4
  28  14  -6 2631.52 92.7139   4
  -6  28 -14 2643.73 92.8128   4
  14  28  -6 2661.64 94.0985   4
 -28   6  14 2598.00 94.0530   2
 -14  28   6 2695.67 93.0111   4
  14  28   6 2588.72 93.5772   4
   6  28  14 2783.90 94.0376   4
  -6  28  14 2611.26 93.7419   4
   6  28 -14 2686.69 93.8943   4
   8  28  14 2455.70 85.5138   4
  14  28  -8 2351.09 85.7170   4
   8  28 -14 2497.79 85.8794   4
  -8  28 -14 2357.11 84.1043   4
  -8  28  14 2406.05 85.4521   4
 -28  14   8 2270.99 85.8176   2
 -28   8  14 2454.90 85.9829   2
  14  28   8 2375.27 85.2299   4
 -14  28   8 2481.05 84.9254   4
 -28  14  10 1406.43 53.0397   2
 -14  28  10 1416.98 51.7221   4
 -10  28  14 1402.84 52.1610   4
  10  28  14 1381.67 52.2299   4
  10  28 -14 1378.44 52.6401   4
 -28  10  14 1420.28 52.9487   2
  14  28 -10 1364.45 52.6779   4
  14  28  10 1430.99 52.0030   4
  14  28  12 3029.76 106.824   4
  12  28 -14 2975.19 107.428   4
 -14  28  12 3049.49 106.747   4
  12  28  14 3061.33 106.939   4
 -12  28  14 3095.84 106.970   4
 -14  28  14 1534.82 57.3265   4
  14  28  14 1583.33 57.3713   4
  16  28   0 548.257 24.5878   4
   0  28 -16 564.069 24.1567   4
   0  28  16 518.875 24.9335   4
  16  28   2 155.070 14.3495   4
   2  28 -16 161.089 14.3353   4
  -2  28 -16 164.881 12.8879   4
   2  28  16 150.376 14.8727   4
 -16  28   2 136.003 10.6723   4
  16  28  -2 159.476 14.3637   4
   4  28  16 704.039 30.1718   4
  16  28   4 750.518 30.0610   4
 -28   4  16 706.513 30.5823   2
  28  16  -4 712.859 28.3401   4
  -4  28 -16 752.281 29.0832   4
  16  28  -4 730.657 30.5621   4
  -4  28  16 677.833 30.4848   4
 -16  28   4 713.726 28.4022   4
   4  28 -16 751.112 30.3778   4
 -16  28   6 5441.76 187.994   4
  -6  28 -16 5442.24 187.884   4
 -28   6  16 5359.52 189.177   2
  16  28  -6 5492.75 189.145   4
   6  28 -16 5499.51 189.040   4
   6  28  16 5452.32 188.980   4
  -6  28  16 5562.44 188.967   4
  28  16  -6 5542.83 188.068   4
  16  28   6 5519.99 188.668   4
 -16  28   8 3432.25 119.841   4
  -8  28 -16 3311.81 119.183   4
   8  28 -16 3403.76 120.925   4
  28  16  -8 3539.38 120.094   4
 -28   8  16 3505.91 121.156   2
  16  28  -8 3516.60 121.057   4
   8  28  16 3470.67 120.730   4
  -8  28  16 3434.69 120.733   4
 -28  16   8 3487.57 121.333   2
  16  28   8 3462.95 120.363   4
  16  28 -10 4.33848 13.4885   4
  10  28  16 4.35387 12.6645   4
 -16  28  10-4.97724 9.91936   4
 -10  28  16 0.96964 8.70282   2
  10  28 -16 10.4575 13.2595   4
 -10  28  16-8.15431 12.7924   4
  16  28  10 16.5580 11.3601   4
  12  28 -16 2869.84 102.395   4
 -12  28  16 2831.26 100.921   2
 -12  28  16 2873.85 101.811   4
  16  28 -12 2974.60 102.460   4
  16  28  12 2865.04 101.527   4
  12  28  16 2920.52 101.645   4
  16  28 -14 191.184 17.3004   4
  14  28  16 196.657 15.1414   4
 -14  28  16 207.451 14.5065   2
  16  28  14 191.083 14.9674   4
 -16  28  16 384.589 19.5450   2
  16  28  16 371.059 19.7559   4
 -28  16  16 381.398 22.8393   2
  18  28   0 235.761 15.9257   4
   0  28 -18 210.084 15.2816   4
   0  28  18 243.436 16.7964   4
   2  28  18 1480.11 56.3475   4
  18  28   2 1455.53 56.0038   4
  18  28  -2 1536.16 56.4111   4
  28  18  -2 1552.02 54.7189   4
  -2  28 -18 1532.43 55.5387   4
   2  28 -18 1533.33 56.0498   4
  18  28  -4 918.659 37.4122   4
  -4  28 -18 911.082 35.7478   4
   4  28  18 915.559 37.2176   4
  28  18  -4 937.405 35.4374   4
   4  28 -18 945.197 37.2697   4
  18  28   4 957.011 36.8420   4
 -18  28   4 923.632 35.0842   4
   6  28  18 289.298 17.9728   4
  -6  28 -18 302.722 15.2805   4
  18  28  -6 265.394 18.1998   4
 -18  28   6 302.037 15.3911   4
  28  18  -6 301.331 16.2007   4
  -6  28  18 285.153 18.6713   4
   6  28 -18 281.840 18.5984   4
  18  28   6 286.587 17.0793   4
   8  28  18 106.154 14.3537   4
  18  28  -8 113.128 15.1282   4
  28  18  -8 118.103 12.4335   4
   8  28 -18 111.538 15.1977   4
  -8  28  18 129.752 15.2101   4
  18  28   8 121.176 13.1780   4
  18  28 -10 7.54707 13.8503   4
  10  28  18 0.39980 11.3033   4
  10  28 -18-4.94514 14.5473   4
 -10  28  18-0.42157 13.2638   4
  28  18 -10-1.57777 11.6264   4
  18  28  10 4.49940 11.4778   4
  18  28  12 899.368 34.4133   4
  18  28 -12 904.636 36.4256   4
  12  28 -18 844.492 36.4488   4
 -12  28  18 829.061 33.6531   2
  12  28  18 874.792 34.7355   4
 -28  18  14 57.9639 16.1670   2
 -14  28  18 38.5551 10.9463   2
  14  28  18 41.0486 11.9707   4
 -28  14  18 40.9126 16.0616   2
  14  28 -18 40.3333 16.1860   4
  18  28  14 40.9827 11.5746   4
 -18  28  14 29.6192 13.2106   2
  18  28 -14 40.3385 16.0812   4
  18  28  16 1262.07 47.0305   4
  18  28 -16 1238.22 49.2324   4
 -18  28  16 1218.85 47.8456   2
  16  28  18 1255.88 47.2344   4
 -28  16  18 1297.78 49.4948   2
 -28  18  16 1306.06 49.5007   2
 -16  28  18 1235.02 47.1748   2
 -18  28  18 78.1789 13.9923   2
  18  28 -18 85.3180 16.9574   4
  18  28  18 78.9105 11.9057   4
 -28  18  18 79.4809 17.7559   2
  28  20   0 1667.49 58.5787   4
   0  28 -20 1621.81 59.8451   4
   0  28  20 1600.89 60.5238   4
  20  28   2 225.126 15.8487   4
  20  28  -2 218.856 16.4168   4
  28  20  -2 232.700 13.9086   4
  -2  28 -20 220.028 14.6230   4
  -2  28  20 202.300 17.4925   4
   2  28  20 215.846 16.7377   4
   2  28 -20 188.536 14.9841   4
  20  28   4 1341.39 51.7065   4
  20  28  -4 1460.60 52.5692   4
  -4  28 -20 1352.96 51.0900   4
  28  20  -4 1419.62 51.0668   4
   4  28  20 1455.02 52.6104   4
   4  28 -20 1345.53 52.3850   4
   6  28 -20 321.341 18.9680   4
  -6  28 -20 294.728 15.6967   4
   6  28  20 285.124 18.6184   4
  28  20  -6 295.411 16.9239   4
  -6  28  20 319.945 19.6118   4
  20  28  -6 321.206 19.7032   4
  20  28   6 278.336 17.3478   4
   8  28 -20 338.169 21.0067   4
  20  28  -8 382.908 21.1341   4
  28  20  -8 392.529 19.5248   4
   8  28  20 397.359 21.0053   4
  20  28   8 375.931 19.5914   4
  20  28 -10 9.50162 14.1605   4
  10  28  20-6.08230 12.3391   4
  10  28 -20 13.4064 15.1471   4
  28  20 -10 6.55054 12.0889   4
  20  28  10-7.40439 11.2096   4
 -12  28  20 420.510 19.1740   2
  12  28  20 400.530 21.0820   4
 -28  20  12 416.070 23.6302   2
 -28  12  20 389.807 23.3962   2
  20  28 -12 400.192 23.2912   4
  20  28  12 398.027 19.8289   4
  28  20 -12 418.388 21.7429   4
  12  28 -20 418.525 23.2044   4
  28  20 -14 839.605 33.9237   4
 -20  28  14 782.702 33.6792   2
  14  28 -20 792.635 34.7110   4
 -28  14  20 776.192 35.3109   2
 -14  28  20 758.177 31.6426   2
  20  28 -14 786.974 34.6155   4
  20  28  14 793.981 31.8614   4
 -28  20  14 848.284 35.1639   2
  14  28  20 802.835 32.4721   4
 -20  28  16 1840.56 65.4972   2
 -28  20  16 1793.94 66.6330   2
 -28  16  20 1773.40 66.6901   2
  20  28  16 1763.58 64.0864   4
  16  28  20 1754.38 64.4554   4
  20  28 -16 1808.64 66.4837   4
 -16  28  20 1761.50 64.6351   2
 -20  28  18 8.70477 13.1478   2
  18  28  20 27.5553 10.3120   4
  20  28  18 24.3089 9.70988   4
  20  28 -18 10.3900 16.4387   4
 -28  18  20 9.41368 16.0627   2
 -18  28  20 16.3429 12.5950   2
 -28  20  18 7.48186 16.3166   2
  20  28  20 45.6880 10.0787   4
 -28  20  20 39.9417 16.3212   2
  20  28 -20 21.4569 17.3294   4
 -20  28  20 23.3979 13.4888   2
  22  28   0 22.7017 12.5338   4
  28  22   0 12.5586 9.57470   4
   0  28 -22 12.1203 12.0813   4
   0  28  22 17.7009 14.1644   4
  22  28   2 427.910 21.7997   4
  28  22   2 429.222 19.5357   4
  22  28  -2 474.685 22.5571   4
  28  22  -2 459.756 20.5963   4
  -2  28  22 429.389 23.2767   4
   2  28 -22 427.906 22.0155   4
   2  28  22 445.763 23.4091   4
  22  28   4-0.38441 11.6609   4
  22  28  -4-5.58831 13.2641   4
   4  28 -22 19.6741 12.7594   4
  28  22  -4 3.70514 10.0627   4
   4  28  22-1.73165 14.0228   4
  -4  22 -28 1.66500 9.28989   4
  -4  28 -22 26.2716 10.3018   4
  22  28   6 355.663 18.9396   4
  -6  28 -22 381.490 17.5072   4
  22  28  -6 354.434 21.2349   4
  28  22  -6 351.700 19.0369   4
   6  28  22 357.899 20.9376   4
   6  28 -22 353.559 21.1397   4
  22  28  -8 39.3168 14.8578   4
   8  28 -22 34.4318 14.6915   4
  28  22  -8 36.1505 12.8469   4
   8  28  22 41.2272 13.4406   4
  22  28   8 43.0801 11.1000   4
  22  28  10 30.6155 10.8936   4
  22  28 -10 10.0710 14.5235   4
  10  28  22 4.94398 12.8629   4
  28  22 -10 11.4058 12.5009   4
 -28  22  10-4.97439 16.2607   2
  10  28 -22-5.17982 15.3180   4
 -28  22  12 517.345 27.1216   2
  28  22 -12 507.592 24.6999   4
  12  28  22 502.218 23.6547   4
  22  28  12 493.470 22.5645   4
  22  28 -12 512.853 25.9699   4
  12  28 -22 509.132 26.3783   4
 -22  28  14 408.111 22.5398   2
 -14  28  22 389.334 18.8644   2
  22  28 -14 372.634 23.1146   4
  28  22 -14 418.687 22.7774   4
  22  28  14 399.754 19.1012   4
  14  28  22 419.659 20.5380   4
  14  28 -22 374.609 23.8817   4
 -28  22  14 385.813 24.3713   2
 -28  22  16 65.4091 17.5298   2
  22  28 -16 80.5812 17.7472   4
  16  28  22 89.2971 12.3648   4
 -16  28  22 84.2605 12.1771   2
 -28  16  22 63.4021 16.8451   2
  22  28  16 79.7598 10.5483   4
  16  28 -22 62.6983 17.8167   4
  28  22 -16 86.7520 16.0946   4
 -22  28  16 73.9047 15.0060   2
  18  28  22 431.308 20.1094   4
  22  28  18 399.189 19.0420   4
 -22  28  18 420.377 22.7707   2
  22  28 -18 455.257 24.9091   4
 -28  18  22 459.384 25.0604   2
 -18  28  22 427.680 21.2132   2
  28  22 -18 389.100 23.8735   4
 -28  22  18 408.225 24.5239   2
  22  28 -20 21.3482 18.6055   4
 -28  20  22 38.1466 16.7122   2
 -28  22  20 28.2072 16.6191   2
 -22  28  20 6.12033 13.9276   2
 -20  28  22 12.2308 12.3984   2
  20  28 -22-9.52463 17.5179   4
  20  28  22 20.2430 9.06144   4
 -28  22  22 325.063 21.8218   2
 -22  28  22 295.952 18.4796   2
  22  28 -22 314.811 23.0871   4
  24  28   0 3236.16 109.733   4
  28  24   0 3077.79 108.779   4
   0  24 -28 3119.54 109.252   4
   0  28 -24 3051.34 109.381   4
  -2  24 -28 1086.29 42.6015   4
   2  28 -24 1170.63 43.7341   4
  28  24   2 1099.67 41.9710   4
  24  28   2 1108.67 43.2621   4
  24  28  -2 1177.31 43.7915   4
  28  24  -2 1171.97 42.8673   4
   2  28  24 1125.44 44.2750   4
  -2  28 -24 1101.69 42.6113   4
  24  28   4 19.1453 11.2504   4
   4  28 -24 32.5372 13.4534   4
  24  28  -4 29.4751 13.8080   4
  28  24  -4 43.7844 12.1611   4
  -4  28 -24 14.2812 9.89123   4
   4  28  24 31.7056 14.0125   4
  28  24   4 28.2980 9.05710   4
  -4  24 -28 36.7354 9.92881   4
  24  28   6-1.82983 10.8013   4
   6  28  24 3.46481 13.1641   4
  24  28  -6 0.89243 14.1588   4
  28  24  -6 26.3401 11.9849   4
   6  28 -24 7.67947 13.9748   4
  24  28   8 61.1283 10.7007   4
  24  28  -8 70.0349 15.0886   4
   8  28 -24 39.0867 15.0402   4
   8  28  24 52.1555 13.6618   4
  28  24  -8 45.5512 12.9393   4
 -28  24  10 195.336 19.2744   2
  10  28 -24 145.652 17.7869   4
  28  24 -10 188.172 16.6340   4
  10  28  24 157.854 15.5761   4
  24  28 -10 167.807 17.1076   4
  24  28  10 151.262 12.9203   4
  12  28 -24 28.6508 16.1578   4
  24  28 -12 14.9853 15.3913   4
 -28  24  12 26.1905 17.3159   2
  28  24 -12 17.4919 13.7350   4
  24  28  12 27.3702 9.29005   4
  12  28  24 29.7590 12.6168   4
 -24  28  12-5.81615 15.8332   2
 -28  24  14 4.49294 16.9158   2
  14  28 -24-6.40775 16.9153   4
 -24  28  14 22.0139 14.8139   2
  24  28 -14-4.30345 15.4474   4
  28  24 -14-2.76812 14.9221   4
  24  28  14 13.1255 9.07663   4
  14  28  24 7.91497 11.8536   4
  24  28 -16 370.957 23.0822   4
 -28  24  16 365.060 23.4818   2
  16  28 -24 311.350 23.4720   4
 -24  28  16 345.347 21.2204   2
  28  24 -16 342.053 21.8522   4
  28  24 -18 837.383 36.6828   4
 -28  24  18 848.937 37.0979   2
  24  28 -18 877.943 37.2019   4
 -24  28  18 872.829 36.2422   2
 -28  24  20 17.9981 15.6257   2
 -24  28  20 30.8385 13.4339   2
  24  28 -20 18.9708 17.8367   4
  28  24 -20 50.4653 17.0027   4
 -28  24  22 58.7863 15.4023   2
  24  28 -22 41.9141 17.4731   4
  22  28 -24 45.0706 18.3674   4
  28  24 -22 43.7867 17.4761   4
 -24  28  22 47.4544 12.8811   2
  24  28 -24 189.468 20.0840   4
  28  24 -24 136.990 18.0767   4
  28  26   0 542.520 23.9087   4
   0  26 -28 556.755 24.4661   4
   0  28 -26 503.658 24.1067   4
  28  26   2 20.0404 10.0847   4
  26  28  -2 15.8442 12.9224   4
  28  26  -2 7.62113 11.4983   4
  26  28   2 17.3510 11.3397   4
   2  26 -28 26.7404 12.2996   4
  -2  28 -26 6.60947 10.8731   4
  -2  26 -28 16.7690 10.4838   4
   2  28 -26 8.32279 12.6563   4
  26  28  -4 824.804 32.7601   4
  28  26  -4 770.752 32.2553   4
  -4  28 -26 799.639 31.1006   4
  -4  26 -28 792.113 30.7907   4
   4  26 -28 757.963 33.0106   4
  28  26   4 753.991 30.6417   4
  26  28   4 778.404 31.4453   4
   4  28 -26 785.434 33.2299   4
  26  28  -6 127.836 14.7510   4
  28  26  -6 152.786 14.8331   4
  28  26   6 125.291 11.0358   4
   6  28 -26 120.256 15.7033   4
  26  28   6 152.270 12.2254   4
  26  28  -8 53.6336 14.4718   4
  28  26  -8 53.1248 14.1718   4
   8  28 -26 54.1699 15.0460   4
  26  28   8 76.9300 10.7054   4
  26  28 -10 485.667 23.7009   4
  28  26 -10 487.618 23.8772   4
 -28  26  10 446.314 26.2100   2
  10  28 -26 434.750 24.6641   4
  26  28  10 437.009 20.0819   4
  28  26 -12 100.724 15.1449   4
 -28  26  12 94.8927 17.4061   2
  12  28 -26 79.9814 16.8542   4
 -26  28  12 91.9527 17.9339   2
  26  28 -12 89.3078 16.0893   4
 -28  26  14 35.5510 16.7759   2
 -26  28  14 17.9022 15.7650   2
  28  26 -14 28.4569 15.0483   4
  26  28 -14 29.0558 16.1271   4
  14  28 -26 23.0260 16.6942   4
 -28  26  16-10.7099 16.4192   2
  16  28 -26-0.49176 17.8555   4
 -26  28  16 0.47127 15.5434   2
  28  26 -16 5.14476 15.6936   4
  26  28 -16-16.0834 16.5640   4
 -26  28  18 344.059 22.0990   2
 -28  26  18 353.700 22.3429   2
  26  28 -18 350.783 22.8422   4
  28  26 -18 389.018 22.0899   4
  28  26 -20 26.6057 16.6312   4
  26  28 -20 45.2784 17.7505   4
 -28  26  20 20.9027 15.7434   2
 -26  28  20 36.7562 14.0215   2
 -28  26  22 402.219 22.1133   2
  26  28 -22 399.410 24.0731   4
 -26  28  22 387.073 21.5831   2
  28  26 -22 371.502 23.2703   4
  28  26 -24 617.566 29.8738   4
  26  28 -24 627.648 29.6093   4
  24  28 -26 641.955 30.5588   4
  24  26 -28 610.257 30.9655   4
  28  24 -26 629.996 29.5828   4
  26  24 -28 635.163 30.4354   4
  26  26 -28 20.2660 15.9491   4
  28  26 -26 55.6338 16.4549   4
  26  28 -26 46.6374 16.8658   4
  28  28   0 20.2326 11.5184   4
   0  28 -28 22.8374 12.0175   4
  28  28   2 42.8687 11.0900   4
  28  28  -2 42.5918 12.7977   4
  -2  28 -28 42.2148 10.9302   4
   2  28 -28 26.3179 12.8526   4
  28  28  -4 895.584 35.3573   4
   4  28 -28 894.758 36.0368   4
  -4  28 -28 892.416 33.7177   4
  28  28   4 822.920 33.7698   4
   6  28 -28 354.499 21.6201   4
  28  28  -6 366.020 20.6152   4
  28  28   6 376.342 17.6450   4
  28  28  -8 202.017 16.2284   4
  28  28   8 199.841 12.6716   4
   8  28 -28 204.905 18.8513   4
  28  28 -10 25.9338 14.4152   4
  10  28 -28 36.3015 16.0601   4
 -28  28  10 42.0951 18.2089   2
 -28  28  12 750.558 33.6318   2
  28  28 -12 740.126 32.5567   4
  12  28 -28 741.641 33.8664   4
 -28  28  14 6.23083 16.9115   2
  28  28 -14 23.2617 15.3660   4
  14  28 -28-3.36077 17.3412   4
 -28  28  16 76.9269 17.0700   2
  16  28 -28 65.2320 17.9228   4
  28  28 -16 78.1489 16.1933   4
  18  28 -28 188.067 20.4765   4
  28  28 -18 183.085 18.4018   4
 -28  28  18 145.200 17.4848   2
  28  28 -20 145.942 17.8740   4
 -28  28  20 165.256 17.0580   2
 -28  28  22 73.8767 14.3839   2
  28  28 -22 82.2350 17.2817   4
  24  28 -28 391.887 23.4497   4
  28  24 -28 363.318 22.7412   4
  28  28 -24 377.838 22.3071   4
  26  28 -28 138.123 16.7531   4
  28  26 -28 132.107 17.0018   4
  28  28 -26 157.589 17.2925   4
  28  28 -28 653.782 28.8531   4
  -1  29   1 16.1346 10.4639   4
   1  29   1 26.8402 11.0000   4
 -29   1   1 14.9848 8.37922   2
  -1  29  -1 5.39709 10.0895   4
   1  29  -1 5.14553 10.8264   4
 -29   1  -1 12.6372 7.60581   2
 -29  -1   1 3.62994 7.55937   2
 -29   3   1 216.998 13.4778   2
   3  29   1 229.353 15.2587   4
  -1  29  -3 242.227 14.6728   4
   3  29  -1 249.520 15.1946   4
   1  29  -3 233.711 14.8161   4
 -29   3  -1 232.017 13.0140   2
  -3  29   1 246.363 14.7480   4
 -29  -1   3 232.831 12.8405   2
 -29   1   3 220.836 13.5110   2
  -1  29   3 228.945 15.1249   4
   1  29   3 236.746 14.9037   4
  -3  29  -1 233.036 14.4604   4
   3  29   3-2.10367 10.3577   4
  -3  29  -3 9.89493 10.0081   4
   3  29  -3 1.41650 10.6658   4
 -29   3   3 9.94723 9.34501   2
 -29  -3   3 9.00318 7.49300   2
 -29   3  -3-2.33855 7.79511   2
  -3  29   3 8.70014 9.87494   4
  -5  29  -1 79.9665 11.0336   4
 -29   5   1 102.427 10.8144   2
   5  29  -1 110.064 12.1281   4
  -1  29  -5 87.3417 11.5346   4
   1  29  -5 103.373 11.6219   4
 -29   5  -1 89.2852 10.5552   2
 -29   1   5 88.5507 10.5165   2
  -1  29   5 95.6795 11.7476   4
 -29  -1   5 84.0496 10.0304   2
  -5  29   1 118.971 11.4038   4
   1  29   5 108.921 12.0969   4
 -29  -3   5 931.108 36.1504   2
  -3  29  -5 974.260 36.7945   4
 -29   5   3 1001.21 36.8515   2
 -29   3   5 967.243 36.7987   2
   5  29  -3 939.759 37.2213   4
   3  29  -5 977.958 37.3160   4
  -3  29   5 979.805 36.9531   4
  -5  29   3 909.643 36.6828   4
 -29   3  -5 964.684 35.7506   2
  -5  29  -3 977.656 36.5625   4
  -5  29  -5-6.73511 9.49041   4
 -29   5   5 14.6811 10.3942   2
   5  29  -5 6.59966 11.0830   4
  -5  29   5-1.36844 10.1055   4
  -1  29  -7 1055.99 40.3786   4
   1  29  -7 1061.40 40.3889   4
 -29  -1   7 1059.05 39.8030   2
 -29   1   7 1069.18 40.1602   2
  -1  29   7 1081.40 40.7516   4
   1  29   7 1064.63 40.5748   4
  -7  29   1 1088.54 40.0014   4
 -29   7   1 1038.26 40.1710   2
  -7  29  -1 1057.38 39.7632   4
   7  29   3 575.533 25.3405   4
  -7  29  -3 567.536 24.1901   4
   3  29  -7 580.366 25.5449   4
 -29   3   7 572.625 25.0168   2
  -7  29   3 589.858 24.6763   4
 -29   7   3 597.358 25.1130   2
  -3  29   7 603.194 25.2914   4
  -3  29  -7 601.751 24.7980   4
  -5  29   7 3917.73 133.720   4
  -5  29  -7 3914.20 133.306   4
 -29   7   5 3836.00 133.801   2
   7  29  -5 3904.73 133.981   4
   5  29  -7 3912.06 133.993   4
 -29   5   7 3864.64 133.793   2
  -7  29   5 3857.79 133.544   4
   5  29   7 3893.98 133.824   4
   7  29   5 3697.15 133.795   4
  -7  29  -5 3762.17 133.064   4
  -7  29   7 8.43581 10.2110   4
 -29   7   7 11.6983 11.4277   2
   7  29  -7-1.16098 11.7113   4
  -7  29  -7 2.16358 8.98608   4
   7  29   7 11.1651 11.5504   4
  -9  29   1 194.980 12.9524   4
   9  29   1 184.134 14.4075   4
  -1  29  -9 196.993 13.8694   4
   9  29  -1 197.307 14.7225   4
 -29   1   9 182.894 13.3300   2
   1  29  -9 192.727 14.1484   4
 -29  -1   9 175.640 12.9879   2
  -9  29  -1 175.161 12.4241   4
  -1  29   9 170.667 14.2431   4
 -29   3   9 311.341 17.1594   2
   9  29   3 318.455 17.5392   4
  -3  29  -9 306.472 16.2617   4
  -9  29   3 304.204 16.2980   4
   3  29  -9 291.337 17.2953   4
  -3  29   9 326.872 17.4943   4
  -9  29  -3 295.397 15.4990   4
 -29   9   3 298.669 17.0631   2
   9  29   5 5.57825 11.1476   4
  -9  29   5 3.38356 9.75732   4
  -5  29  -9 6.13830 9.50418   4
  -5  29   9 14.2403 11.0683   4
   5  29  -9 11.1236 11.2030   4
   5  29   9 5.60866 11.5185   4
 -29   5   9 1.51094 11.2920   2
 -29   9   5 4.61404 11.3829   2
  -9  29  -5 1.19984 8.57990   4
 -29   9   7 71.5027 12.3135   2
   9  29   7 50.3261 12.2213   4
  -9  29   7 72.4842 11.5504   4
 -29   7   9 88.5567 12.3681   2
  -7  29  -9 68.1530 9.76146   4
   7  29  -9 65.9763 12.9989   4
  -9  29  -7 82.2446 9.53937   4
  -7  29   9 67.9822 11.8157   4
   7  29   9 67.7003 12.5900   4
  -9  29  -9-4.69055 7.84296   4
   9  29  -9 0.40246 11.7363   4
 -29   9   9-8.90658 11.8271   2
  -9  29   9 0.36059 10.6849   4
   9  29   9 7.57625 11.1103   4
  11  29   1 322.541 17.9771   4
  11  29  -1 306.658 17.9456   4
 -29   1  11 321.782 17.2729   2
   1  29 -11 314.702 17.5831   4
 -11  29   1 308.388 15.7875   4
  -1  29  11 306.263 17.9648   4
 -11  29  -1 304.114 15.5452   4
  -1  29 -11 300.950 17.1177   4
  11  29   3 300.221 17.0891   4
  -3  29  11 297.230 17.2859   4
  -3  29 -11 279.713 15.7196   4
  11  29  -3 285.524 17.5698   4
   3  29  11 291.074 17.3530   4
   3  29 -11 305.569 17.2647   4
 -29   3  11 289.200 16.8395   2
 -11  29   3 267.141 15.4782   4
 -11  29  -3 269.905 14.5863   4
 -11  29   5 1515.75 55.9137   4
  11  29   5 1573.74 56.7413   4
 -11  29  -5 1583.32 55.2854   4
  -5  29  11 1511.99 56.4760   4
  -5  29 -11 1502.31 55.6581   4
  11  29  -5 1421.01 56.8118   4
 -29   5  11 1546.90 56.6936   2
 -29  11   5 1578.95 56.9029   2
   5  29 -11 1582.92 56.7712   4
   5  29  11 1589.62 56.6662   4
  -7  29 -11 5614.88 190.858   4
 -29  11   7 5635.14 192.045   2
 -11  29  -7 5278.36 190.417   4
   7  29  11 5612.67 191.768   4
   7  29 -11 5613.72 191.841   4
 -11  29   7 5587.97 191.266   4
 -29   7  11 5610.86 191.976   2
  11  29   7 5612.06 191.707   4
  -7  29  11 5695.08 191.652   4
 -29   9  11 206.576 16.3000   2
 -29  11   9 207.085 16.3384   2
   9  29 -11 226.028 16.2718   4
 -11  29   9 205.613 14.9741   4
  -9  29  11 230.613 15.5722   4
  -9  29 -11 227.792 12.3951   4
   9  29  11 215.548 15.9395   4
 -11  29  -9 206.997 12.2183   4
  11  29   9 215.866 15.0259   4
 -11  29  11-9.36496 11.4109   4
 -29  11  11 12.5223 13.1009   2
  11  29  11-9.38112 11.9187   4
  13  29  -1 4727.85 167.568   4
  -1  29 -13 4875.22 167.295   4
   1  29 -13 4980.05 167.533   4
  13  29   1 4845.64 167.657   4
 -13  29  -1 4775.88 166.479   4
 -13  29   1 4904.23 166.668   4
 -29   3  13 1149.52 43.3970   2
  13  29   3 1136.60 43.3594   4
  13  29  -3 1124.63 43.5521   4
  -3  29 -13 1176.39 42.6833   4
   3  29  13 1188.13 43.7198   4
   3  29 -13 1109.69 43.2557   4
  -3  29  13 1133.81 43.4051   4
 -13  29   3 1113.21 42.1078   4
 -13  29  -3 1095.17 41.5121   4
  13  29   5 10534.5 351.370   4
   5  29  13 10530.0 351.486   4
  -5  29 -13 10123.8 350.661   4
  13  29  -5 10469.8 351.670   4
 -29   5  13 10214.6 351.548   2
   5  29 -13 10553.1 351.480   4
 -13  29   5 10271.5 350.727   4
  -5  29  13 10310.5 351.387   4
 -13  29  -5 9995.07 350.063   4
  -7  29 -13 790.753 30.5689   4
  13  29  -7 779.141 33.0203   4
 -29  13   7 783.997 33.0540   2
 -13  29   7 765.843 31.1978   4
  -7  29  13 770.083 32.0618   4
   7  29  13 793.259 32.6152   4
 -29   7  13 840.206 32.9827   2
  13  29   7 768.849 32.2978   4
   7  29 -13 821.839 32.8908   4
  -9  29 -13 2944.59 107.168   4
   9  29 -13 3093.62 109.026   4
 -29  13   9 3170.29 109.345   2
 -13  29   9 3118.20 108.170   4
   9  29  13 3152.17 108.757   4
  -9  29  13 3135.56 108.639   4
  13  29   9 3148.23 108.519   4
 -29   9  13 3062.81 109.140   2
 -13  29  11 4818.66 170.629   4
  11  29 -13 4846.93 171.334   4
  13  29  11 5004.38 170.903   4
 -29  11  13 5002.84 171.570   2
  11  29  13 5189.52 171.098   4
 -11  29  13 4929.52 170.910   4
 -29  13  11 4836.07 171.541   2
 -29  13  13 2.75817 15.1138   2
 -13  29  13 0.39383 12.0758   4
  13  29  13 4.35503 11.9998   4
 -15  29   1 60.5181 9.12289   4
  15  29   1 69.6763 12.7724   4
  15  29  -1 50.2410 12.3988   4
   1  29  15 65.8162 13.5900   4
 -15  29  -1 71.6763 9.02000   4
   1  29 -15 60.7095 12.1573   4
  -1  29 -15 64.9230 11.4044   4
  15  29   3 261.094 17.3488   4
   3  29  15 259.993 17.6064   4
  15  29  -3 286.009 17.6151   4
  -3  29 -15 284.138 15.6663   4
 -15  29   3 252.882 14.4681   4
   3  29 -15 267.484 16.5626   4
  -3  29  15 265.732 17.4177   4
  15  29   5 12.0757 12.4502   4
  -5  29 -15 12.7217 9.41357   4
  -5  29  15 4.83162 12.4030   4
  15  29  -5 8.88964 13.3279   4
   5  29 -15 31.3051 12.3604   4
 -29   5  15 12.3673 12.8000   2
  29  15  -5 7.61737 8.50534   4
   5  29  15 3.65623 12.0642   4
 -15  29   5 7.48941 9.65893   4
  -7  29 -15 7373.73 253.446   4
  15  29  -7 7219.03 254.768   4
 -29   7  15 7698.55 255.036   2
  -7  29  15 7308.58 254.559   4
  29  15  -7 7558.88 253.704   4
   7  29  15 7575.09 254.636   4
 -15  29   7 7401.87 253.791   4
 -29  15   7 7567.12 255.064   2
  15  29   7 7342.75 254.346   4
   7  29 -15 7239.32 254.615   4
  -9  29  15 136.248 14.8304   4
 -15  29   9 158.795 13.2396   4
   9  29  15 142.065 14.4630   4
  -9  29  15 136.800 11.1385   2
 -29  15   9 145.316 16.1860   2
   9  29 -15 140.737 15.5637   4
 -29   9  15 136.957 15.9710   2
  15  29  -9 156.490 16.0613   4
  15  29   9 141.300 14.0223   4
  11  29  15 287.130 17.3792   4
 -29  15  11 275.530 18.8296   2
  11  29 -15 258.218 18.2319   4
 -11  29  15 271.532 17.5988   4
 -29  11  15 272.211 18.9638   2
  15  29 -11 253.563 18.9540   4
 -15  29  11 259.203 16.3880   4
 -11  29  15 260.063 15.0197   2
  15  29  11 270.649 16.7035   4
  13  29  15 1659.47 59.8071   4
 -13  29  15 1542.37 58.6553   2
 -13  29  15 1654.43 59.6982   4
  15  29  13 1638.04 59.4690   4
  15  29  15 6.32890 11.1723   4
 -15  29  15 5.93422 11.6173   2
  17  29   1 253.040 16.5606   4
  17  29  -1 273.958 17.6700   4
  -1  29 -17 246.166 15.6743   4
   1  29 -17 241.813 16.6011   4
   1  29  17 259.922 17.3310   4
  17  29   3 292.546 18.4931   4
  17  29  -3 302.686 18.7506   4
  -3  29 -17 337.378 16.8239   4
   3  29 -17 299.378 18.3488   4
 -17  29   3 322.547 15.5797   4
   3  29  17 282.989 18.9927   4
  17  29   5 1251.19 46.9653   4
  -5  29 -17 1239.77 45.7759   4
  17  29  -5 1235.36 47.6156   4
  -5  29  17 1214.08 47.4976   4
  29  17  -5 1251.41 45.6309   4
 -17  29   5 1177.40 45.4948   4
   5  29  17 1282.12 47.3574   4
   5  29 -17 1264.94 47.3076   4
  17  29   7 202.325 15.2441   4
  -7  29 -17 189.673 12.5902   4
 -29   7  17 180.273 17.3840   2
  -7  29  17 203.990 17.1080   4
 -17  29   7 168.976 12.9503   4
   7  29 -17 216.147 16.5130   4
   7  29  17 191.490 16.3602   4
  17  29  -7 187.166 16.6284   4
  29  17  -7 208.144 13.6787   4
   9  29 -17 19.5299 13.6005   4
  -9  29  17 20.8459 13.2113   4
 -29  17   9 11.8057 14.5614   2
 -29   9  17 26.9157 14.6170   2
   9  29  17 32.4547 13.1990   4
  29  17  -9 21.3664 10.7756   4
 -17  29   9 25.7444 10.3576   4
  17  29  -9 19.1887 14.2134   4
  17  29   9 25.9231 12.0730   4
 -11  29  17 2498.63 91.4232   2
  11  29  17 2619.70 92.7388   4
 -11  29  17 2606.27 93.0046   4
  17  29 -11 2691.34 93.3985   4
  11  29 -17 2637.55 93.4225   4
  17  29  11 2667.95 92.4876   4
  17  29  13 122.110 13.8511   4
  17  29 -13 159.403 17.1294   4
  13  29 -17 169.638 17.3626   4
  13  29  17 147.261 14.6484   4
 -13  29  17 152.290 12.6443   2
 -15  29  17 2650.06 93.4398   2
  17  29 -15 2653.44 94.8591   4
 -17  29  15 2706.36 93.8620   2
  15  29  17 2630.99 93.5903   4
  17  29  15 2706.93 93.6280   4
 -29  17  15 2545.97 94.9035   2
 -29  15  17 2577.56 94.9511   2
  17  29  17 16.6769 11.5139   4
 -17  29  17 10.2507 12.4879   2
 -29  17  17 5.48799 16.6118   2
  19  29   1 18.8512 11.9780   4
  19  29  -1 13.0007 12.6397   4
  -1  29 -19 9.14697 10.9668   4
   1  29 -19 13.4548 11.6499   4
   1  29  19 3.42695 13.7319   4
  -1  29  19 7.79210 14.0871   4
  19  29   3 1483.67 57.5042   4
  19  29  -3 1532.79 58.0717   4
  -3  29 -19 1575.84 56.8442   4
  29  19  -3 1575.20 56.3320   4
   3  29 -19 1621.92 57.8506   4
   3  29  19 1559.06 58.1177   4
  -5  29 -19 934.141 36.0619   4
  19  29  -5 973.280 38.4713   4
  29  19  -5 929.673 35.9570   4
   5  29  19 924.927 37.9710   4
   5  29 -19 963.616 37.7405   4
  19  29   5 920.783 37.1432   4
  -7  29 -19 1590.44 58.1364   4
  19  29  -7 1611.37 60.4882   4
  29  19  -7 1655.40 58.9537   4
   7  29 -19 1576.99 60.0690   4
  -7  29  19 1644.12 60.5245   4
  19  29   7 1603.24 59.3575   4
   7  29  19 1673.54 59.9724   4
   9  29 -19 174.761 16.9517   4
  29  19  -9 201.490 14.8606   4
  19  29  -9 222.765 18.0020   4
   9  29  19 216.992 16.2811   4
  19  29   9 172.861 15.2059   4
  11  29  19 22.0243 13.3463   4
  19  29 -11 21.7054 15.3451   4
  29  19 -11 29.4018 11.9365   4
  19  29  11 50.5045 12.3470   4
  11  29 -19 4.67168 14.7054   4
  13  29 -19 9485.19 319.508   4
  29  19 -13 9711.36 319.114   4
 -29  13  19 8802.25 319.332   2
  19  29 -13 9323.93 319.429   4
  13  29  19 9559.33 318.624   4
  19  29  13 9325.71 318.322   4
 -13  29  19 9158.48 317.957   2
 -29  19  13 9280.31 319.602   2
 -15  29  19-1.51211 10.7617   2
  19  29 -15 8.70957 16.7761   4
 -29  19  15-2.49301 16.1250   2
 -19  29  15 6.57249 13.5749   2
 -29  15  19-11.9257 16.2299   2
  15  29  19-2.71096 11.4880   4
  19  29  15-8.93598 11.3529   4
 -17  29  19 138.564 14.5165   2
 -29  19  17 161.219 18.8586   2
 -19  29  17 172.171 15.9963   2
  17  29  19 158.957 13.5780   4
 -29  17  19 147.664 18.9451   2
  19  29 -17 164.884 18.7477   4
  19  29  17 164.051 13.3343   4
 -19  29  19 19.6520 12.1713   2
 -29  19  19 22.4810 17.0775   2
  19  29 -19 3.47471 16.7256   4
  19  29  19 11.1819 10.0861   4
  -1  29  21 189.474 17.4825   4
  21  29   1 191.279 15.4227   4
  29  21  -1 211.226 13.0470   4
  21  29  -1 214.361 16.2046   4
  -1  29 -21 170.711 14.7352   4
   1  29 -21 188.371 15.5224   4
   1  29  21 201.827 17.2593   4
  21  29   3 144.953 14.7866   4
   3  29  21 156.427 16.5548   4
  21  29  -3 161.783 16.2003   4
  29  21  -3 167.661 12.4560   4
  -3  29 -21 157.114 13.4635   4
   3  29 -21 145.927 14.8916   4
  21  29   5 145.550 14.5524   4
  21  29  -5 164.243 16.4463   4
  -5  29 -21 160.574 12.2792   4
   5  29  21 164.978 15.9319   4
  29  21  -5 150.705 12.7627   4
   5  29 -21 155.784 15.7564   4
  21  29  -7 56.8921 14.5257   4
   7  29 -21 92.0149 15.6656   4
   7  29  21 86.4475 14.4300   4
  29  21  -7 104.577 12.1881   4
  21  29   7 90.1632 12.6876   4
  29  21  -9 187.078 14.9785   4
  21  29  -9 181.968 18.1164   4
   9  29  21 201.028 16.6432   4
   9  29 -21 204.387 18.1678   4
  21  29   9 187.777 14.2260   4
  21  29  11 7.06940 11.3695   4
  21  29 -11 11.2221 14.7090   4
  11  29  21 7.03728 13.2748   4
  29  21 -11 7.63529 13.2148   4
  11  29 -21 0.47515 15.8965   4
 -29  21  11 5.50993 16.7532   2
  21  29  13 155.595 13.2799   4
 -29  21  13 198.726 19.3843   2
 -29  13  21 200.355 18.8632   2
 -13  29  21 192.475 12.8174   2
  21  29 -13 193.510 18.9480   4
  13  29  21 188.729 15.4327   4
  13  29 -21 182.573 18.7659   4
 -21  29  13 204.804 17.8928   2
  29  21 -13 224.122 16.9500   4
 -21  29  15 1698.04 62.2079   2
 -29  21  15 1640.96 63.2157   2
 -29  15  21 1790.47 63.5510   2
 -15  29  21 1625.67 60.5981   2
  21  29 -15 1723.78 63.2420   4
  21  29  15 1624.00 60.4169   4
  29  21 -15 1753.42 62.5973   4
  15  29 -21 1574.81 63.0477   4
  15  29  21 1698.23 61.2789   4
 -29  17  21 129.139 17.9970   2
  17  29  21 144.895 13.0467   4
  21  29  17 123.056 12.0136   4
  21  29 -17 101.818 18.3513   4
 -17  29  21 132.474 13.3112   2
 -29  21  17 106.356 18.6057   2
  29  21 -17 153.836 17.1294   4
 -21  29  17 119.649 15.2965   2
 -29  21  19 13.3765 17.1513   2
  21  29 -19 32.6065 17.5238   4
  19  29  21 39.5031 10.5181   4
  21  29  19 28.9699 9.92654   4
 -19  29  21 20.8202 11.5803   2
 -29  19  21 9.93172 15.8419   2
 -21  29  19 41.8374 13.6846   2
  21  29 -21 12.8034 18.2960   4
 -29  21  21 9.75498 16.9368   2
  21  29  21-1.20072 8.92025   4
 -21  29  21 4.52467 12.5960   2
  -1  29  23 140.723 17.0724   4
  23  29   1 154.991 14.6075   4
  29  23   1 123.072 11.3713   4
  23  29  -1 144.380 15.2059   4
  29  23  -1 134.448 12.5051   4
  -1  29 -23 157.283 13.7280   4
   1  29  23 136.230 16.8666   4
   1  29 -23 131.807 14.1299   4
  23  29   3 830.596 34.1516   4
  23  29  -3 885.461 34.7301   4
  29  23  -3 840.962 33.3741   4
  -3  29 -23 858.690 33.2823   4
   3  29 -23 814.366 34.4796   4
   3  29  23 865.034 35.5342   4
  -3  23 -29 817.186 32.9609   4
  23  29  -5 791.353 32.9701   4
  -5  29 -23 772.055 30.7394   4
  29  23  -5 792.300 31.3636   4
   5  29 -23 754.849 32.7119   4
   5  29  23 776.910 33.4891   4
  23  29   5 757.902 31.8944   4
   7  29  23 201.304 17.2399   4
  23  29  -7 220.814 18.1023   4
  29  23  -7 214.603 15.6439   4
   7  29 -23 179.547 17.6461   4
  23  29   7 189.473 14.6171   4
  29  23  -9 164.402 15.3010   4
  23  29  -9 140.964 16.9196   4
   9  29  23 143.031 15.7391   4
   9  29 -23 150.672 17.0657   4
 -29  23   9 133.833 18.1643   2
  23  29   9 155.544 13.3724   4
  11  29  23 242.376 17.3630   4
  29  23 -11 242.245 17.8153   4
 -29  23  11 257.366 21.0094   2
  23  29  11 244.069 14.8172   4
  23  29 -11 248.237 19.8292   4
  11  29 -23 232.598 19.9353   4
  29  23 -13 34.0004 14.2592   4
 -29  23  13 51.5019 17.3286   2
  13  29 -23 55.1747 17.2929   4
 -23  29  13 46.9231 15.0066   2
  23  29  13 54.7120 10.4980   4
  23  29 -13 69.9870 15.8616   4
  13  29  23 60.4226 12.8679   4
  23  29 -15 57.8991 17.2197   4
 -23  29  15 72.7288 15.2775   2
  29  23 -15 66.0603 15.8033   4
 -29  23  15 81.1212 17.2390   2
  23  29  15 83.0526 10.9333   4
 -15  29  23 74.5735 10.8054   2
  15  29 -23 68.1390 18.5305   4
  15  29  23 63.1056 12.4809   4
 -23  29  17 231.978 18.6537   2
 -17  29  23 248.616 15.3901   2
  17  29  23 246.479 15.3933   4
  23  29  17 252.204 13.9297   4
  23  29 -17 239.639 20.7216   4
  29  23 -17 253.002 19.2578   4
 -29  23  17 225.918 20.1894   2
 -19  29  23-0.75981 11.7852   2
  23  29 -19-3.90298 17.5854   4
  29  23 -19-4.79525 16.2951   4
 -23  29  19 5.26105 14.0449   2
 -29  23  19 23.8044 17.2940   2
  23  29 -21 1.44755 16.0125   4
 -21  29  23-5.05835 12.1858   2
 -29  23  21-18.9290 16.9319   2
 -23  29  21 7.06970 13.3862   2
  29  23 -21 0.95723 15.7136   4
  21  29 -23-11.6586 18.7348   4
 -23  29  23 5.10160 11.7427   2
  29  23 -23 12.7477 16.0743   4
  23  29 -23-7.07304 17.9743   4
   1  25 -29 10.1279 11.7212   4
  29  25   1 12.1733 9.67703   4
  25  29   1 23.9433 12.7933   4
  25  29  -1-2.47144 12.3892   4
  29  25  -1 20.3090 10.6221   4
   1  29 -25 41.8479 12.6412   4
  -1  25 -29 28.8467 11.0320   4
  -1  29 -25 9.57827 11.2323   4
  29  25  -3 250.239 15.5632   4
  25  29  -3 225.715 17.2371   4
  -3  29 -25 240.134 14.8528   4
   3  29 -25 205.301 17.1103   4
  -3  25 -29 241.236 14.7372   4
   3  25 -29 222.748 16.9350   4
  29  25   3 250.975 13.9009   4
  25  29   3 234.291 15.4414   4
  -5  29 -25 198.744 13.1455   4
  25  29  -5 193.175 16.9956   4
  29  25  -5 211.632 15.2916   4
   5  29 -25 209.541 17.3736   4
  25  29   5 216.372 14.9353   4
  25  29  -7 6018.35 199.407   4
  29  25  -7 5826.53 198.813   4
   7  29 -25 5670.62 199.188   4
  25  29   7 5613.29 197.987   4
  25  29  -9 222.497 17.5964   4
  29  25  -9 211.417 16.2740   4
   9  29 -25 225.569 18.7971   4
  25  29   9 193.822 14.1811   4
 -29  25   9 249.150 20.9837   2
 -29  25  11 1452.06 55.6766   2
  25  29 -11 1532.35 55.0171   4
  29  25 -11 1532.43 54.1930   4
  11  29 -25 1321.71 54.9355   4
  25  29  11 1376.20 51.9654   4
 -25  29  11 1388.60 54.9682   2
 -25  29  13 5416.52 183.657   2
  25  29 -13 5336.21 183.522   4
  29  25 -13 5422.38 183.204   4
 -29  25  13 5336.02 183.945   2
  13  29 -25 5441.81 183.846   4
  25  29  13 5017.39 181.352   4
 -29  25  15 33.6078 17.6673   2
 -25  29  15 32.8605 15.7460   2
  25  29 -15 29.8643 15.7995   4
  29  25 -15 22.9361 15.0046   4
  15  29 -25 10.7613 18.2919   4
 -29  25  17 1656.90 63.1021   2
  29  25 -17 1713.87 62.3398   4
  25  29 -17 1657.57 62.7073   4
  17  29 -25 1610.68 62.8914   4
 -25  29  17 1693.67 62.3175   2
 -25  29  19 8.35178 14.0690   2
  25  29 -19 7.56457 16.6953   4
 -29  25  19-3.75783 16.6405   2
  29  25 -19-1.86076 15.5619   4
 -29  25  21 29.8470 15.3742   2
 -25  29  21 20.7813 13.0938   2
  29  25 -21 40.0865 16.4002   4
  25  29 -21 31.2842 16.9700   4
  23  25 -29 810.564 37.6541   4
  25  29 -23 826.734 37.3805   4
  23  29 -25 916.354 37.2806   4
  29  25 -23 895.972 37.1606   4
  29  23 -25 870.121 37.2733   4
  29  25 -25-12.5605 15.5265   4
  25  25 -29 12.0250 17.4475   4
  25  29 -25-1.73691 16.7536   4
  29  27   1 295.297 16.2995   4
  27  29  -1 280.787 18.0091   4
  29  27  -1 310.739 16.7082   4
  27  29   1 292.695 17.6222   4
   1  29 -27 319.464 18.5913   4
   1  27 -29 309.100 18.2539   4
  -1  29 -27 302.829 17.4985   4
  -1  27 -29 294.616 17.2185   4
  29  27   3 150.948 11.9455   4
  27  29  -3 162.876 15.2881   4
  29  27  -3 139.912 13.9123   4
  27  29   3 122.807 12.9778   4
   3  27 -29 111.729 14.8092   4
  -3  29 -27 141.024 12.3761   4
  -3  27 -29 148.306 12.0894   4
   3  29 -27 121.172 15.0696   4
  27  29  -5 640.015 28.1485   4
   5  29 -27 681.821 28.4122   4
  29  27  -5 661.076 27.3745   4
   5  27 -29 586.336 27.9634   4
  29  27   5 602.018 25.1809   4
  27  29   5 600.480 26.0831   4
   7  27 -29 257.259 18.9933   4
  27  29  -7 269.479 18.2968   4
  29  27  -7 286.334 17.4654   4
   7  29 -27 241.437 19.0810   4
  27  29   7 257.393 15.2476   4
  27  29  -9 1415.69 50.5093   4
  29  27  -9 1325.46 50.1666   4
  27  29   9 1233.49 47.6631   4
 -29  27   9 1326.04 51.8627   2
   9  29 -27 1328.00 50.7007   4
   9  27 -29 1284.64 50.6519   4
 -29  27  11 685.130 32.5732   2
 -27  29  11 668.059 32.2443   2
  27  29 -11 667.066 30.9081   4
  11  27 -29 665.676 31.6657   4
  11  29 -27 678.629 31.6153   4
  29  27 -11 741.678 30.4961   4
 -27  29  13 819.112 36.0378   2
  27  29 -13 810.950 35.4459   4
  29  27 -13 847.936 34.9077   4
  13  29 -27 788.044 36.3001   4
  13  27 -29 841.438 35.8621   4
 -29  27  13 829.729 36.4940   2
  15  29 -27 20.0943 17.4756   4
 -29  27  15 9.14776 17.4436   2
  15  27 -29 19.6741 17.4830   4
 -27  29  15 18.6611 16.1210   2
  27  29 -15 4.61935 15.8511   4
  29  27 -15 19.7151 14.6312   4
  17  27 -29 6.68580 17.3588   4
  29  27 -17 16.1825 15.3889   4
  17  29 -27 22.2743 18.1176   4
  27  29 -17 37.4932 15.8731   4
 -29  27  17 19.1461 16.6476   2
 -27  29  17-7.25425 15.5255   2
  19  27 -29 3322.85 124.807   4
 -27  29  19 3476.17 124.154   2
  27  29 -19 3658.05 124.704   4
  29  27 -19 3625.21 124.522   4
 -29  27  19 3612.13 124.499   2
 -27  29  21 22.3340 13.3029   2
  29  27 -21 11.3831 16.0808   4
 -29  27  21 19.9764 15.0022   2
  27  29 -21 1.32282 16.0919   4
  29  27 -23 45.3347 15.2677   4
  23  29 -27 11.2410 17.5844   4
  27  23 -29 31.4816 17.2474   4
  27  29 -23 47.9888 16.1562   4
  27  25 -29 138.090 18.2950   4
  29  25 -27 117.862 16.9546   4
  25  27 -29 123.548 17.7082   4
  27  29 -25 136.909 16.2126   4
  25  29 -27 110.572 17.6099   4
  29  27 -25 140.512 16.5481   4
  27  29 -27-11.2482 14.6412   4
  27  27 -29 11.4206 15.4591   4
  29  27 -27-0.37465 14.3107   4
  29  29   1 10.5407 10.7238   4
  29  29  -1 9.23598 11.6563   4
  -1  29 -29-11.1988 10.8940   4
   1  29 -29-0.77228 12.1228   4
  29  29  -3 2.31137 12.2305   4
  -3  29 -29 4.96543 9.78985   4
   3  29 -29 6.97071 13.0538   4
  29  29   3 6.64052 10.1018   4
  29  29  -5-4.00256 12.6674   4
   5  29 -29-0.42764 13.3246   4
  29  29   5 3.76276 9.15371   4
  29  29  -7-7.03940 13.3225   4
  29  29   7 15.2536 8.81008   4
   7  29 -29 0.44208 14.5694   4
   9  29 -29 14.4597 15.0026   4
  29  29  -9 10.1659 13.8982   4
 -29  29   9 0.99257 17.8869   2
  29  29 -11 18.7555 13.4238   4
 -29  29  11 12.6534 16.4925   2
  11  29 -29 25.2240 16.2829   4
  13  29 -29 16.1236 16.9726   4
 -29  29  13 27.3832 16.2490   2
  29  29 -13 18.0580 14.8264   4
 -29  29  15 0.45984 15.6469   2
  15  29 -29-1.37730 16.9927   4
  29  29 -15-8.37761 14.7504   4
 -29  29  17-0.88225 15.5973   2
  29  29 -17 22.6328 15.3441   4
  17  29 -29 13.1153 17.4640   4
  19  29 -29-2.21026 17.3044   4
 -29  29  19-0.41615 14.9724   2
  29  29 -19-11.4818 15.4193   4
 -29  29  21-15.2231 14.1490   2
  29  29 -21-9.86863 15.4926   4
  29  23 -29 2.88042 15.1761   4
  29  29 -23-10.5651 14.2511   4
  25  29 -29-36.8519 15.3037   4
  29  25 -29 7.19511 14.9231   4
  29  29 -25-13.2208 14.3662   4
  29  29 -27-11.8645 13.3828   4
  27  29 -29-17.4347 13.8845   4
  29  27 -29 8.20166 13.5656   4
  29  29 -29 12.8221 12.1646   4
   0  30   0 36707.0 1232.15   4
 -30   0   0 36242.2 1231.43   2
   0  30   2 184.484 13.9482   4
  -2  30   0 169.588 13.8163   4
   2  30   0 182.607 14.5828   4
   0  30  -2 189.408 13.8302   4
 -30   2   0 173.699 11.8217   2
 -30   0   2 175.136 11.6310   2
  -2  30  -2 1367.14 48.9698   4
   2  30  -2 1351.42 49.1823   4
 -30  -2   2 1298.00 47.8032   2
 -30   2   2 1309.09 48.3181   2
  -2  30   2 1312.43 49.0088   4
 -30   2  -2 1281.84 47.8797   2
   2  30   2 1361.61 49.1220   4
   4  30   0 6490.15 222.786   4
 -30   4   0 6456.26 222.263   2
   0  30  -4 6644.77 222.744   4
 -30   0   4 6441.72 222.140   2
   0  30   4 6477.25 222.620   4
  -4  30   0 6480.65 222.495   4
   4  30   2 1480.42 54.0900   4
 -30   2  -4 1427.12 52.6301   2
  -2  30  -4 1470.51 53.7819   4
   4  30  -2 1516.27 54.1978   4
   2  30  -4 1460.14 54.0491   4
 -30   4  -2 1483.96 53.1906   2
 -30  -2   4 1425.12 52.8874   2
 -30   2   4 1432.14 53.4410   2
  -4  30   2 1536.08 53.8857   4
  -2  30   4 1480.29 53.9730   4
   2  30   4 1533.70 54.0741   4
  -4  30  -2 1487.26 53.6009   4
 -30   4   2 1406.61 53.3749   2
  -4  30  -4 2900.60 100.007   4
   4  30  -4 2880.17 100.485   4
 -30   4  -4 2883.27 99.5000   2
  -4  30   4 2865.33 100.173   4
 -30   4   4 2746.96 99.9353   2
   0  30  -6 9236.89 312.102   4
 -30   0   6 9087.30 311.776   2
 -30   6   0 9044.20 311.909   2
   0  30   6 9244.23 312.206   4
  -6  30   0 9153.99 311.821   4
   6  30  -2 1044.75 39.7444   4
   2  30  -6 1005.32 39.3294   4
 -30   6   2 1062.86 39.2238   2
 -30  -2   6 1033.80 38.5408   2
  -2  30  -6 990.645 39.0532   4
 -30   2   6 999.900 38.7883   2
  -2  30   6 1023.35 39.2818   4
  -6  30   2 1005.01 38.9116   4
   2  30   6 1031.42 39.5400   4
  -6  30  -2 1033.67 38.7329   4
 -30   6   4 505.512 23.1120   2
  -4  30  -6 541.574 22.7915   4
   6  30  -4 514.350 23.8801   4
   4  30  -6 503.516 23.5578   4
 -30   4   6 516.179 23.0126   2
  -4  30   6 551.123 23.4956   4
  -6  30   4 513.523 22.9019   4
  -6  30  -4 491.026 22.2546   4
  -6  30   6 978.109 36.4300   4
   6  30  -6 939.920 36.9553   4
  -6  30  -6 907.440 35.5542   4
 -30   6   6 885.209 36.3215   2
   6  30   6 950.521 36.7327   4
   0  30  -8 1526.00 53.2126   4
 -30   0   8 1451.50 52.8656   2
  -8  30   0 1370.01 52.4526   4
   0  30   8 1436.22 53.3146   4
   8  30   2 460.355 21.0024   4
  -2  30  -8 382.504 19.5361   4
   2  30  -8 412.379 20.3841   4
 -30   2   8 369.716 19.3626   2
 -30   8   2 402.206 20.0702   2
  -8  30   2 417.846 19.3790   4
  -8  30  -2 396.372 18.7361   4
  -2  30   8 412.969 20.4612   4
   8  30   4 139.365 14.1479   4
  -4  30  -8 151.581 12.7320   4
   4  30  -8 142.503 13.7844   4
  -4  30   8 135.620 13.2774   4
  -8  30   4 143.982 12.7889   4
 -30   4   8 140.316 13.1511   2
 -30   8   4 143.226 13.6260   2
  -8  30  -4 157.001 11.6995   4
 -30   8   6 1076.43 43.0596   2
  -6  30  -8 1079.31 41.9874   4
   8  30  -6 1149.94 43.4770   4
  -6  30   8 1144.40 42.8646   4
  -8  30   6 1130.72 42.6394   4
 -30   6   8 1103.96 43.0435   2
   6  30  -8 1174.28 43.5332   4
   6  30   8 1098.35 43.0801   4
   8  30   6 1197.45 43.3332   4
  -8  30  -6 1130.14 41.8172   4
  -8  30  -8 52.2859 9.80698   4
 -30   8   8 48.4893 12.2570   2
   8  30  -8 50.1246 13.5020   4
  -8  30   8 54.8215 11.4692   4
   8  30   8 52.5577 12.3166   4
 -10  30   0 1863.85 67.3843   4
  10  30   0 1978.92 68.5346   4
   0  30 -10 1944.22 68.0720   4
 -30   0  10 1805.80 67.7897   2
   0  30  10 1870.29 68.2517   4
  10  30   2 740.654 30.1030   4
  10  30  -2 665.378 29.8391   4
   2  30 -10 714.187 29.6774   4
  -2  30 -10 746.531 29.3294   4
 -30   2  10 689.480 29.4826   2
 -10  30   2 702.412 28.5891   4
 -10  30  -2 733.566 28.3457   4
  -2  30  10 703.996 29.9549   4
  10  30   4 1447.60 53.1068   4
  -4  30 -10 1429.60 52.3290   4
   4  30 -10 1417.29 53.2134   4
 -30  10   4 1420.89 53.3137   2
 -30   4  10 1408.09 53.0618   2
 -10  30   4 1348.03 52.1916   4
  -4  30  10 1458.81 53.2352   4
   4  30  10 1500.79 53.3195   4
 -10  30  -4 1456.33 51.8345   4
  -6  30 -10 1074.07 40.4861   4
 -30  10   6 1075.14 41.9674   2
   6  30 -10 1104.91 41.9415   4
 -30   6  10 1088.59 41.8054   2
 -10  30   6 1055.44 41.0387   4
  10  30   6 1132.00 42.0011   4
   6  30  10 1128.64 41.9994   4
  -6  30  10 1029.26 41.5306   4
 -10  30  -6 1059.56 40.0204   4
 -30   8  10 8.82015 12.7443   2
  -8  30 -10 28.4570 9.44282   4
 -30  10   8 16.0406 13.0875   2
   8  30 -10 20.8449 13.1636   4
  -8  30  10 9.14714 11.6606   4
   8  30  10 32.3053 12.5636   4
 -10  30   8 19.0517 11.0478   4
  10  30   8 21.6205 12.3798   4
 -10  30  -8 21.8724 8.50895   4
 -10  30 -10 6.82014 7.96998   4
 -30  10  10-9.07126 13.4869   2
 -10  30  10 7.17912 10.9407   4
  10  30 -10 17.0692 13.1586   4
  10  30  10 10.0272 12.8929   4
  12  30   0 22.1863 12.4647   4
   0  30 -12 20.1305 11.8559   4
 -12  30   0 24.8263 9.59324   4
  12  30   2 14.7853 12.3760   4
  12  30  -2 31.0820 12.4883   4
  -2  30 -12 28.6467 10.8919   4
 -30   2  12 35.8620 11.9512   2
   2  30 -12 22.7492 11.7534   4
 -12  30   2 43.8067 10.2146   4
  -2  30  12 32.7990 12.4433   4
 -12  30  -2 31.1835 9.25822   4
  12  30   4 597.675 26.7394   4
  -4  30 -12 593.727 25.2901   4
  12  30  -4 607.761 27.1258   4
 -30   4  12 600.328 26.6872   2
   4  30 -12 602.886 26.8237   4
 -12  30   4 600.553 25.1816   4
  -4  30  12 606.836 26.9325   4
   4  30  12 631.229 27.0708   4
 -12  30  -4 603.922 24.4565   4
  -6  30  12 5797.57 196.242   4
  12  30   6 5694.54 196.265   4
  12  30  -6 5522.13 196.490   4
 -30  12   6 5759.48 196.637   2
   6  30 -12 5742.83 196.375   4
 -30   6  12 5723.84 196.504   2
  -6  30 -12 5611.61 195.387   4
 -12  30   6 5745.43 195.721   4
   6  30  12 5692.63 196.349   4
  12  30   8 2168.04 79.2633   4
  -8  30 -12 2190.21 78.0789   4
 -30  12   8 2271.74 79.9494   2
   8  30 -12 2219.13 79.7959   4
   8  30  12 2218.65 79.4875   4
 -12  30   8 2181.85 78.7411   4
  -8  30  12 2233.78 79.3166   4
 -30   8  12 2264.81 79.8369   2
  10  30 -12 321.349 19.3083   4
 -12  30  10 279.778 17.1911   4
 -10  30  12 312.350 17.9136   4
 -30  10  12 356.115 20.1414   2
  10  30  12 312.715 18.6075   4
  12  30  10 309.744 18.3499   4
 -30  12  10 304.280 19.2550   2
 -10  30 -12 294.258 15.1115   4
 -30  12  12 6475.98 217.405   2
 -12  30  12 6177.98 216.535   4
  12  30  12 6286.88 216.743   4
  14  30   0 2844.99 104.434   4
   0  30 -14 3023.78 104.223   4
 -14  30   0 2998.75 103.143   4
  14  30   2 437.017 22.0877   4
  14  30  -2 457.705 22.4736   4
  -2  30 -14 425.974 20.9136   4
   2  30 -14 446.044 21.8704   4
 -14  30   2 434.039 19.5742   4
   2  30  14 421.488 22.3151   4
 -14  30  -2 431.944 18.9835   4
  14  30   4 3245.84 113.301   4
  -4  30 -14 3265.30 112.590   4
  14  30  -4 3217.49 113.625   4
 -30   4  14 3116.23 113.411   2
   4  30 -14 3222.86 113.263   4
  -4  30  14 3140.30 113.271   4
   4  30  14 3342.62 113.522   4
 -14  30   4 3252.29 112.295   4
 -14  30   6 934.062 36.8486   4
   6  30  14 946.601 38.5921   4
  -6  30 -14 966.300 36.7367   4
 -30   6  14 976.514 38.9182   2
   6  30 -14 954.041 38.5054   4
 -30  14   6 1012.68 39.1367   2
  -6  30  14 942.779 38.3975   4
  14  30  -6 1010.66 39.2527   4
  14  30   6 962.468 38.3203   4
  30  14  -8 41.7387 9.67630   4
 -30   8  14 21.8682 14.3325   2
  14  30  -8 36.7533 14.3481   4
  -8  30  14 21.3114 13.4672   4
   8  30 -14 30.9776 14.0205   4
 -30  14   8 36.4869 14.9693   2
  -8  30 -14 41.3369 9.38959   4
 -14  30   8 32.2308 11.3241   4
   8  30  14 16.1680 12.7065   4
  14  30   8 21.5802 12.7317   4
  10  30  14 365.575 20.4228   4
 -30  14  10 377.102 21.9874   2
  10  30 -14 396.683 21.8908   4
  14  30 -10 356.602 21.6226   4
 -14  30  10 372.826 19.5786   4
 -10  30  14 395.918 21.0041   4
  14  30  10 374.256 20.4164   4
 -30  10  14 371.164 21.8163   2
 -30  14  12 155.780 17.1070   2
 -14  30  12 148.896 14.3122   4
 -12  30  14 161.365 14.7997   4
  12  30 -14 182.082 17.1632   4
  12  30  14 168.095 14.9370   4
  14  30  12 155.622 15.0071   4
 -30  12  14 148.998 17.4324   2
  14  30  14 314.625 18.6717   4
  16  30   0 90.6888 14.1038   4
 -16  30   0 106.492 9.89540   4
   0  30 -16 83.7327 12.3033   4
  16  30   2 548.186 25.0170   4
  16  30  -2 542.451 25.2540   4
 -16  30   2 540.240 22.5884   4
  -2  30 -16 535.437 24.1602   4
   2  30 -16 532.584 24.8671   4
   2  30  16 506.881 25.3613   4
  16  30   4 2874.34 100.173   4
  -4  30 -16 2815.58 99.4153   4
  16  30  -4 2896.49 100.624   4
   4  30 -16 2780.38 100.199   4
   4  30  16 2803.10 100.420   4
 -16  30   4 2856.45 99.0906   4
  -4  30  16 2818.71 100.523   4
  16  30   6 63.7031 12.9448   4
  -6  30 -16 71.5095 10.3869   4
  16  30  -6 71.7459 15.0015   4
 -30   6  16 63.8751 14.5770   2
  -6  30  16 39.6086 14.3192   4
  30  16  -6 70.6398 10.0658   4
   6  30 -16 61.1703 14.3061   4
   6  30  16 55.7971 13.4843   4
 -16  30   6 47.7079 10.5642   4
  -8  30  16 239.344 17.9501   4
  -8  30 -16 228.102 13.2022   4
   8  30  16 247.861 17.9202   4
  30  16  -8 244.986 14.5719   4
  16  30  -8 255.267 18.4425   4
 -16  30   8 250.410 15.0470   4
 -30   8  16 245.260 18.8618   2
   8  30 -16 197.767 17.5440   4
 -30  16   8 254.694 19.0585   2
 -30  16  10 678.797 31.0387   2
 -10  30  16 647.467 26.9312   2
 -10  30  16 650.741 29.4480   4
  10  30 -16 677.344 30.2342   4
 -30  10  16 698.054 30.7753   2
  16  30 -10 681.164 30.7471   4
 -16  30  10 691.344 28.4006   4
  10  30  16 718.817 29.3021   4
  16  30  10 695.314 29.1806   4
  30  16 -10 648.235 28.2185   4
  12  30  16 55.9679 13.3460   4
 -12  30  16 48.7123 13.2434   4
  16  30 -12 63.4207 16.2403   4
 -12  30  16 62.9212 10.9873   2
  12  30 -16 74.0136 15.6499   4
  16  30  12 61.9496 13.0625   4
 -14  30  16 527.906 22.7477   2
  14  30  16 506.950 23.9741   4
 -16  30  14 470.532 23.8200   2
  16  30  14 504.714 23.7389   4
 -16  30  16 2472.99 89.0435   2
  16  30  16 2543.17 89.1599   4
  18  30   0 43.5214 13.2913   4
   0  30 -18 34.1752 12.3277   4
   0  30  18 67.2838 14.6289   4
  18  30   2 1115.85 43.4905   4
  18  30  -2 1132.55 43.6341   4
  -2  30 -18 1117.94 42.6032   4
   2  30 -18 1114.18 43.3972   4
   2  30  18 1129.92 43.9966   4
  18  30  -4 1024.56 40.1322   4
  -4  30 -18 974.830 38.3672   4
  30  18  -4 1007.33 37.6871   4
   4  30 -18 1027.14 39.7562   4
   4  30  18 1026.06 40.1316   4
 -18  30   4 980.138 37.7028   4
  -6  30 -18 3431.39 119.451   4
  18  30  -6 3563.52 121.213   4
  -6  30  18 3371.46 121.011   4
 -18  30   6 3403.51 119.422   4
   6  30 -18 3436.45 120.831   4
   6  30  18 3444.77 120.827   4
  30  18  -6 3435.69 119.560   4
  18  30   6 3462.73 120.518   4
  -8  30  18 979.773 39.8321   4
 -30   8  18 969.403 40.4054   2
  18  30  -8 966.984 40.0681   4
 -30  18   8 962.147 40.6308   2
   8  30 -18 993.238 39.7224   4
   8  30  18 1002.23 39.1058   4
  30  18  -8 973.892 37.8234   4
  18  30   8 1001.03 38.7535   4
  10  30 -18 36.0588 15.4654   4
  30  18 -10 35.2778 11.6826   4
  18  30 -10 42.4089 15.3522   4
  10  30  18 28.6271 13.7584   4
  18  30  10 56.9243 12.1820   4
  18  30 -12 1423.50 53.8439   4
  18  30  12 1394.09 52.1741   4
  30  18 -12 1488.26 52.4302   4
  12  30  18 1463.49 52.8647   4
 -12  30  18 1305.59 50.7925   2
  12  30 -18 1358.69 53.4611   4
 -14  30  18 170.665 13.4926   2
  18  30 -14 180.647 18.2258   4
  14  30  18 210.139 15.6063   4
  14  30 -18 175.730 19.2074   4
  18  30  14 162.620 14.3860   4
 -18  30  14 185.261 16.0483   2
 -16  30  18 27.2152 11.8422   2
 -18  30  16 16.0567 12.4668   2
  18  30 -16 21.4273 17.1861   4
  16  30  18-15.9571 11.4956   4
 -30  16  18 1.50523 16.2338   2
  18  30  16 8.02011 12.0568   4
 -30  18  16 7.05993 17.3515   2
 -30  18  18 2866.57 100.337   2
  18  30  18 2768.42 98.0243   4
 -18  30  18 2743.45 98.4575   2
  20  30   0 9210.73 317.588   4
   0  30 -20 9189.99 317.303   4
   0  30  20 9498.42 317.870   4
  20  30   2 239.274 17.2884   4
  30  20  -2 210.941 13.0025   4
  20  30  -2 217.060 16.9413   4
  -2  30 -20 214.577 15.0753   4
   2  30 -20 202.012 16.4793   4
   2  30  20 221.184 18.0236   4
  20  30  -4 363.518 21.2049   4
  -4  30 -20 338.691 18.0228   4
  30  20  -4 397.519 18.1881   4
   4  30 -20 392.674 20.5710   4
   4  30  20 376.139 21.3106   4
  20  30   4 340.262 19.7142   4
   6  30 -20 3922.12 139.122   4
  -6  30 -20 3878.29 137.609   4
  20  30  -6 4022.47 139.444   4
  30  20  -6 3981.16 138.092   4
  -6  30  20 4096.77 139.422   4
   6  30  20 4072.14 139.217   4
  20  30   6 3979.53 138.591   4
   8  30  20 386.366 21.1221   4
  20  30  -8 404.021 21.9585   4
   8  30 -20 379.049 22.0727   4
  30  20  -8 365.966 19.4583   4
  20  30   8 377.988 20.2647   4
  20  30 -10 2010.10 74.5073   4
  10  30  20 2068.61 73.6783   4
  30  20 -10 2055.42 73.1117   4
  20  30  10 2017.56 72.9785   4
  10  30 -20 1991.42 74.1769   4
  20  30  12 650.870 27.6081   4
  20  30 -12 657.738 30.1290   4
  12  30  20 631.135 28.2977   4
  12  30 -20 626.677 30.0467   4
  30  20 -12 657.197 28.6169   4
 -20  30  14 3466.45 120.985   2
 -30  14  20 3447.19 121.851   2
  20  30 -14 3589.40 121.850   4
  14  30  20 3461.08 120.445   4
 -14  30  20 3253.29 119.560   2
  30  20 -14 3450.38 121.104   4
  20  30  14 3461.07 120.145   4
  14  30 -20 3420.89 121.661   4
 -30  20  14 3542.64 122.147   2
 -20  30  16 382.113 21.1691   2
 -30  16  20 386.464 23.7022   2
 -30  20  16 396.902 24.3068   2
  16  30  20 391.198 20.1496   4
 -16  30  20 359.210 18.9980   2
  20  30  16 378.001 19.2578   4
  30  20 -16 391.594 22.2733   4
  20  30 -16 378.959 23.6906   4
  20  30 -18 489.086 27.5804   4
 -30  18  20 535.137 27.9476   2
  18  30  20 527.653 23.3475   4
 -18  30  20 498.439 23.8977   2
 -20  30  18 537.707 25.1026   2
 -30  20  18 513.768 27.7084   2
  20  30  18 506.457 22.9461   4
 -30  20  20 4295.53 148.307   2
  20  30  20 4170.44 145.848   4
  20  30 -20 4282.29 148.064   4
 -20  30  20 4202.98 146.706   2
  22  30   0 218.701 17.2031   4
   0  30 -22 260.643 16.3732   4
   0  30  22 225.044 19.1726   4
   2  30  22 644.257 30.1758   4
  22  30  -2 691.857 29.1587   4
  30  22  -2 655.924 26.6637   4
  22  30   2 633.688 28.5763   4
  -2  30 -22 648.029 27.9873   4
  -2  30  22 663.522 30.6092   4
   2  30 -22 661.620 28.8805   4
  -4  22 -30 136.063 11.7488   4
  22  30   4 107.334 14.0863   4
  22  30  -4 129.448 15.2289   4
  30  22  -4 120.478 12.1977   4
  -4  30 -22 116.934 12.2533   4
   4  30 -22 105.832 14.6971   4
   4  30  22 127.982 16.7749   4
  -6  30 -22 155.305 11.8338   4
  22  30  -6 177.782 17.1614   4
  30  22  -6 163.049 14.0346   4
   6  30  22 131.756 16.1748   4
   6  30 -22 177.003 16.4824   4
  22  30   6 147.111 14.3794   4
  22  30  -8 1868.63 68.0288   4
  30  22  -8 1819.65 66.4224   4
   8  30 -22 1877.84 67.7801   4
  22  30   8 1809.60 66.3944   4
   8  30  22 1824.68 67.4101   4
  22  30 -10 59.0465 15.7566   4
  10  30  22 79.8549 13.9664   4
  10  30 -22 24.6396 15.9896   4
  22  30  10 54.8435 11.3100   4
  12  30 -22 352.474 21.9947   4
  22  30 -12 318.456 21.3572   4
 -30  22  12 309.989 23.4373   2
  12  30  22 309.241 18.9005   4
  30  22 -12 318.313 19.6928   4
  22  30  12 328.136 17.7366   4
 -22  30  12 342.184 21.3802   2
 -30  22  14 161.909 18.3490   2
 -14  30  22 145.237 12.0208   2
  22  30 -14 124.662 18.4661   4
 -22  30  14 142.386 16.7490   2
  30  22 -14 179.726 16.5903   4
  22  30  14 155.563 13.1615   4
  14  30  22 125.716 14.5194   4
  14  30 -22 148.585 18.5341   4
 -16  30  22 407.506 20.1428   2
  16  30  22 434.942 21.2864   4
  30  22 -16 431.959 23.0120   4
  16  30 -22 401.633 25.3243   4
  22  30  16 423.485 19.9295   4
  22  30 -16 455.643 24.7318   4
 -30  22  16 416.480 25.1167   2
 -22  30  16 453.223 23.0515   2
 -22  30  18 237.495 17.5797   2
 -18  30  22 220.468 15.2640   2
  30  22 -18 246.572 18.8174   4
  18  30  22 241.615 14.9851   4
  22  30 -18 261.863 21.3836   4
 -30  22  18 215.338 19.6347   2
  22  30  18 209.022 13.6486   4
 -22  30  20 29.3406 13.2535   2
  22  30 -20 17.3676 18.0109   4
 -20  30  22 11.8863 11.7583   2
 -30  22  20-5.33644 17.3442   2
  30  22 -20 4.25488 16.0005   4
  22  30  20 29.4498 9.02113   4
 -30  22  22 20.2072 15.6549   2
  22  30 -22-4.75398 17.4563   4
 -22  30  22 6.98887 12.1756   2
  30  22 -22 19.2560 16.0227   4
  24  30   0 2231.59 78.5730   4
  30  24   0 2129.84 77.0370   4
   0  30 -24 2202.81 78.2244   4
   0  24 -30 2183.65 78.0533   4
  24  30   2 98.6305 13.7632   4
  24  30  -2 99.4717 14.5410   4
  30  24  -2 104.400 11.7161   4
  -2  30 -24 99.3094 12.7078   4
   2  30 -24 92.7007 13.6825   4
  -2  24 -30 93.5085 12.0463   4
  24  30  -4 395.333 21.8491   4
  30  24  -4 379.930 19.2299   4
  -4  30 -24 370.184 18.4964   4
   4  30  24 389.991 21.9455   4
   4  30 -24 359.818 21.3144   4
  24  30   4 364.007 19.9484   4
  24  30  -6 1498.97 58.2508   4
  30  24  -6 1660.33 57.6201   4
   6  30 -24 1487.97 58.3387   4
   6  30  24 1564.80 58.4309   4
  24  30   6 1566.45 57.1304   4
  24  30  -8 7.89266 14.4084   4
  30  24  -8-4.90201 12.6496   4
   8  30 -24 2.77691 15.3730   4
   8  30  24 6.06837 14.4979   4
  24  30   8 18.3683 11.2147   4
  24  30 -10 50.5143 16.0703   4
  10  30  24 78.5315 14.3875   4
  30  24 -10 68.9806 12.9965   4
 -30  24  10 63.3894 17.7117   2
  10  30 -24 61.4853 16.6288   4
  24  30  10 64.8024 10.6395   4
 -30  24  12 69.9656 18.0595   2
  24  30  12 85.8555 11.1254   4
  24  30 -12 61.1102 16.7589   4
  12  30 -24 74.4987 17.6829   4
  12  30  24 85.3748 13.9676   4
  30  24 -12 65.2313 14.7446   4
 -24  30  12 82.4004 16.4720   2
 -24  30  14 437.684 23.7983   2
  24  30 -14 423.431 25.0360   4
  14  30 -24 485.658 25.6392   4
  30  24 -14 435.746 23.7432   4
 -30  24  14 470.193 25.4205   2
  24  30  14 425.715 19.7915   4
 -24  30  16 246.366 18.3974   2
  30  24 -16 287.636 19.1774   4
  16  30 -24 270.097 21.2793   4
  24  30 -16 275.254 21.0951   4
  24  30  16 252.422 13.9935   4
 -30  24  16 254.376 21.1811   2
  24  30 -18 271.666 21.8865   4
  30  24 -18 295.864 20.4193   4
 -24  30  18 300.572 19.3709   2
 -30  24  18 269.920 21.1957   2
  30  24 -20 2182.89 75.7054   4
 -30  24  20 2030.77 75.9803   2
 -24  30  20 1985.69 74.6257   2
  24  30 -20 2100.65 75.9727   4
 -24  30  22 12.0160 12.4661   2
  24  30 -22 20.0937 16.8565   4
  22  30 -24 6.90890 17.8068   4
  30  24 -22-12.1693 15.8090   4
  30  22 -24 25.3348 17.0180   4
  24  30 -24 79.0393 17.5048   4
  30  24 -24 88.0363 15.9616   4
  30  26   0 658.803 27.4046   4
  26  30   0 670.034 29.0132   4
   0  30 -26 646.683 28.3261   4
   0  26 -30 705.558 28.3131   4
  26  30  -2 317.864 18.9264   4
  30  26  -2 298.734 16.9360   4
  -2  30 -26 306.565 17.3154   4
   2  30 -26 311.769 18.8765   4
   2  26 -30 291.056 18.6274   4
  -2  26 -30 286.582 16.5305   4
  30  26   2 297.187 15.8951   4
  26  30   2 347.423 18.1010   4
  26  30   4 7.43923 11.1331   4
  26  30  -4 36.6398 14.0859   4
  30  26  -4 26.4703 11.4987   4
  -4  30 -26 26.2380 9.86969   4
   4  30 -26 13.7870 13.6928   4
   4  26 -30 4.74700 13.0826   4
  26  30  -6 11.8572 14.5255   4
  30  26  -6 11.4506 12.1908   4
   6  30 -26-6.69303 14.2864   4
   6  26 -30 7.15324 13.9183   4
  26  30   6 3.20245 10.6372   4
  26  30  -8 345.672 20.7618   4
  30  26  -8 343.257 19.6556   4
   8  30 -26 319.096 21.0484   4
  26  30   8 306.727 17.1850   4
 -30  26   8 370.382 23.7736   2
  26  30 -10 4.17122 14.0916   4
  30  26 -10 10.2391 14.0527   4
 -30  26  10 15.6975 18.1236   2
  26  30  10 4.53272 9.73711   4
  10  30 -26 4.66963 16.4303   4
 -26  30  10 14.7208 17.1447   2
  12  30 -26 43.5226 17.2416   4
 -30  26  12 30.9614 17.4328   2
  26  30 -12 46.1573 16.0640   4
 -26  30  12 25.4672 16.4493   2
  26  30  12 35.3545 9.41149   4
  30  26 -12 62.2510 14.4086   4
 -30  26  14 30.8288 17.7010   2
 -26  30  14 49.5068 15.9821   2
  26  30 -14 65.0510 16.3348   4
  30  26 -14 33.3640 14.8080   4
  14  30 -26 34.2070 16.8671   4
 -26  30  16 14.4788 15.2914   2
  16  30 -26 8.05335 17.0569   4
  26  30 -16 23.2237 15.5057   4
  30  26 -16 1.32595 14.7922   4
 -30  26  16 21.5851 17.4175   2
  18  30 -26 85.5222 17.4521   4
  30  26 -18 110.163 15.8877   4
 -26  30  18 110.055 15.7647   2
  26  30 -18 107.499 16.8104   4
 -30  26  18 120.531 17.2773   2
 -30  26  20 1110.60 45.4879   2
 -26  30  20 1140.62 44.6002   2
  26  30 -20 1141.18 45.8119   4
  30  26 -20 1208.73 45.3884   4
 -26  30  22 441.462 22.4582   2
  26  30 -22 431.612 25.0621   4
  30  26 -22 474.287 23.7379   4
  30  22 -26 468.550 25.0532   4
  24  30 -26 0.83208 16.7281   4
  26  24 -30 13.3695 16.8183   4
  30  26 -24 7.37947 14.8029   4
  30  24 -26-0.41772 14.8172   4
  24  26 -30 0.42934 17.2397   4
  26  30 -24 12.3877 15.0947   4
  26  30 -26 1475.31 55.9682   4
  26  26 -30 1532.06 56.4534   4
  30  26 -26 1475.49 55.9673   4
  28  30   0 781.940 30.8484   4
   0  30 -28 778.516 30.8350   4
  30  28   0 720.504 29.8925   4
   0  28 -30 704.460 30.3539   4
  30  28  -2 820.689 33.0215   4
  28  30  -2 854.825 33.8401   4
  -2  30 -28 858.877 33.1287   4
  -2  28 -30 777.834 32.5471   4
   2  30 -28 839.304 34.0229   4
   2  28 -30 824.221 34.0399   4
  30  28   2 837.735 32.4365   4
  28  30   2 862.846 33.2176   4
  28  30  -4 1470.52 53.8702   4
  30  28  -4 1488.14 53.3254   4
  -4  30 -28 1416.59 52.1061   4
   4  30 -28 1470.03 54.0121   4
   4  28 -30 1449.57 53.8423   4
  30  28   4 1368.35 51.8580   4
  28  30   4 1447.41 52.5852   4
  28  30  -6 26.7765 12.7806   4
  30  28  -6 35.9701 12.5862   4
   6  30 -28 31.3449 14.5787   4
  28  30   6 36.6825 10.0754   4
   6  28 -30 23.9844 13.3657   4
  28  30  -8 139.892 15.5404   4
  30  28  -8 118.789 15.0270   4
   8  30 -28 118.143 16.7588   4
   8  28 -30 129.561 15.7223   4
 -30  28   8 122.686 19.7303   2
  28  30   8 127.513 10.9852   4
  28  30 -10 136.728 15.9573   4
  30  28 -10 150.859 15.6304   4
 -30  28  10 157.940 19.8498   2
  10  30 -28 155.470 17.0296   4
 -28  30  10 124.984 18.9977   2
  10  28 -30 138.901 18.2771   4
 -28  30  12 1240.68 47.5088   2
  28  30 -12 1186.76 46.9559   4
  30  28 -12 1240.50 46.5920   4
  12  30 -28 1197.54 47.5882   4
  12  28 -30 1138.73 47.0639   4
 -30  28  12 1188.86 47.6801   2
  14  30 -28 1113.91 45.2854   4
  28  30 -14 1169.80 44.5975   4
  30  28 -14 1156.57 44.4820   4
  14  28 -30 1084.00 44.9956   4
 -30  28  14 1092.05 45.2591   2
 -28  30  14 1145.02 44.7216   2
  28  30 -16 765.933 32.4738   4
  30  28 -16 753.406 32.1574   4
 -30  28  16 770.803 32.9474   2
 -28  30  16 702.700 32.3499   2
  16  30 -28 720.208 33.3825   4
  16  28 -30 676.293 33.0229   4
  28  30 -18 308.250 19.9775   4
  18  28 -30 298.107 22.0576   4
  30  28 -18 291.648 19.9863   4
 -30  28  18 301.509 20.7864   2
 -28  30  18 301.821 19.9539   2
  18  30 -28 299.731 22.1498   4
  20  28 -30 13.5077 17.3322   4
 -28  30  20 20.5107 13.8146   2
  30  28 -20 9.49492 14.3372   4
 -30  28  20 29.1771 14.7656   2
  28  30 -20 18.1550 15.7962   4
  28  30 -22 0.80994 15.3587   4
  30  22 -28 3.77994 15.9249   4
  30  28 -22 9.91221 15.2793   4
  28  30 -24 72.7274 15.6875   4
  30  24 -28 49.5374 15.6285   4
  28  24 -30 92.3963 15.8585   4
  30  28 -24 54.4686 15.1565   4
  24  30 -28 45.5936 16.0001   4
  28  30 -26 96.3750 15.5862   4
  26  30 -28 92.3537 15.5708   4
  30  26 -28 100.870 15.0259   4
  26  28 -30 104.592 15.5536   4
  28  26 -30 111.708 15.8377   4
  30  28 -26 100.324 15.0162   4
  28  30 -28 746.056 31.0219   4
  30  28 -28 734.249 30.9173   4
  28  28 -30 767.670 30.9426   4
   0  30 -30 11057.3 377.738   4
  30  30   0 11142.0 377.624   4
  30  30  -2 750.682 30.4874   4
  -2  30 -30 751.389 29.9452   4
   2  30 -30 762.831 30.9461   4
  30  30   2 744.880 29.8781   4
  30  30  -4 746.017 30.8383   4
   4  30 -30 743.762 31.2003   4
  30  30   4 746.988 29.2409   4
  30  30  -6 4124.86 144.900   4
   6  30 -30 4231.76 145.333   4
  30  30  -8 231.282 16.5595   4
   8  30 -30 265.675 18.1446   4
 -30  30   8 251.996 21.5553   2
 -30  30  10 3370.47 120.881   2
  30  30 -10 3482.36 119.873   4
  10  30 -30 3396.08 120.240   4
  30  30 -12 535.599 25.4828   4
  12  30 -30 574.454 26.9575   4
 -30  30  12 497.644 26.5607   2
  30  30 -14 3487.05 120.820   4
 -30  30  14 3405.31 121.308   2
  14  30 -30 3434.06 121.219   4
  30  30 -16 740.869 31.6649   4
 -30  30  16 729.218 31.8119   2
  16  30 -30 732.182 32.5180   4
  18  30 -30-7.49410 15.0635   4
 -30  30  18-1.19834 14.4624   2
  30  30 -18 4.01884 13.8872   4
 -30  30  20 3364.67 119.751   2
  30  30 -20 3419.89 120.082   4
  20  30 -30 3509.53 120.418   4
  30  22 -30 29.5820 15.5860   4
  30  30 -22 32.1163 13.7915   4
  30  30 -24 821.161 32.8726   4
  30  24 -30 770.218 33.0424   4
  30  30 -26 279.438 16.9885   4
  26  30 -30 275.977 17.4612   4
  30  26 -30 271.997 17.3370   4
  30  30 -28 6.22832 11.5816   4
  30  28 -30 1.13679 11.5856   4
  28  30 -30 20.4500 11.9548   4
  30  30 -30 8227.90 279.920   4
 -31   1  -1 0.60868 8.16729   2
  -1  31   1 1.48138 11.1121   4
   1  31   1 4.85456 11.5364   4
  -1  31  -1 14.9746 11.6340   4
   1  31  -1-0.37457 11.7197   4
 -31  -1   1 7.17738 8.03589   2
 -31   1   1 0.31837 9.00880   2
   1  31   3 36.8082 12.0032   4
  -3  31  -1 63.4414 11.5739   4
   3  31   1 35.1190 11.9470   4
  -1  31  -3 52.9933 11.7951   4
   3  31  -1 25.9953 11.9340   4
   1  31  -3 38.2116 11.7056   4
 -31   3   1 36.7797 10.0479   2
 -31   3  -1 41.0819 9.51680   2
 -31  -1   3 48.1211 9.62428   2
 -31   1   3 34.9304 9.87486   2
  -1  31   3 47.8130 11.6775   4
  -3  31   1 39.3422 11.3727   4
   3  31   3 6.16200 12.2757   4
 -31   3   3 11.8651 10.1964   2
  -3  31  -3 11.0363 10.7953   4
   3  31  -3-4.23268 11.7028   4
 -31   3  -3 2.19591 8.36912   2
  -3  31   3 6.95496 11.1884   4
 -31   5   1 609.367 25.7748   2
   5  31   1 617.521 27.1337   4
  -1  31  -5 623.831 26.5999   4
   5  31  -1 617.826 27.0265   4
   1  31  -5 576.261 26.5079   4
 -31   5  -1 634.912 25.8326   2
 -31  -1   5 610.364 25.5812   2
 -31   1   5 623.869 25.8818   2
  -1  31   5 612.896 26.7134   4
  -5  31   1 629.768 26.2165   4
   1  31   5 619.117 26.7642   4
  -5  31  -1 638.245 26.2406   4
  -3  31  -5 2150.96 74.5010   4
   5  31  -3 2126.56 74.9429   4
 -31   3  -5 2012.17 73.4327   2
   3  31  -5 2070.83 74.7865   4
 -31   5  -3 2034.60 73.9161   2
  -3  31   5 2135.98 74.7577   4
 -31   3   5 2044.00 74.4051   2
  -5  31   3 2115.89 74.4812   4
 -31   5   3 2071.74 74.4360   2
  -5  31  -3 2133.45 74.3755   4
  -5  31  -5 6.21297 9.89655   4
 -31   5   5-0.75357 10.7343   2
   5  31  -5 0.39816 11.9090   4
 -31   5  -5-3.92602 9.22491   2
  -5  31   5 4.09825 11.4980   4
  -1  31  -7 1097.60 41.5098   4
   1  31  -7 1111.96 41.6692   4
 -31   7   1 1070.70 41.4105   2
 -31  -1   7 1030.59 40.7737   2
 -31   1   7 1078.41 41.1757   2
 -31   7  -1 1078.28 41.1647   2
  -1  31   7 1088.07 41.7785   4
  -7  31   1 1110.69 41.2576   4
   1  31   7 1105.23 41.8822   4
  -7  31  -1 1082.98 40.9104   4
  -3  31  -7 3678.41 129.731   4
 -31   7   3 3800.49 130.124   2
   7  31  -3 3688.50 130.255   4
   3  31  -7 3752.43 130.254   4
 -31   3   7 3772.09 129.959   2
  -3  31   7 3737.24 130.071   4
  -7  31   3 3723.24 129.782   4
  -7  31  -3 3739.76 129.501   4
  -5  31  -7 1389.40 50.9274   4
   7  31  -5 1415.79 51.8486   4
   5  31  -7 1389.90 51.8317   4
  -5  31   7 1440.84 51.6212   4
 -31   5   7 1360.77 51.4594   2
  -7  31   5 1351.66 51.1577   4
  -7  31  -5 1378.42 50.8307   4
 -31   7   5 1331.14 51.4538   2
   7  31   5 1418.87 51.8100   4
  -7  31  -7-0.33351 9.48329   4
 -31   7   7-9.30867 12.0136   2
   7  31  -7 5.80891 13.2119   4
  -7  31   7-6.84631 11.5202   4
   7  31   7 8.78911 12.6631   4
   9  31   1 9.29396 12.9431   4
  -1  31  -9 9.75589 10.6032   4
   1  31  -9 5.42323 11.0761   4
 -31   1   9 8.33305 11.2303   2
  -1  31   9-13.5038 12.0723   4
 -31   9   1 12.2411 11.6910   2
  -9  31   1 13.1367 10.2574   4
  -9  31  -1 10.1285 10.1669   4
  -9  31  -3 623.455 26.3079   4
   9  31   3 655.329 28.3982   4
  -3  31  -9 660.216 27.2896   4
   3  31  -9 673.146 27.9227   4
 -31   9   3 624.273 27.9622   2
 -31   3   9 674.868 27.9643   2
  -3  31   9 658.656 27.7763   4
  -9  31   3 627.454 27.1264   4
  -5  31  -9 860.741 34.1297   4
   5  31  -9 863.807 35.6562   4
  -5  31   9 879.721 35.0919   4
 -31   5   9 845.542 35.2897   2
  -9  31   5 936.699 34.9021   4
 -31   9   5 892.886 35.4015   2
   5  31   9 909.799 35.7969   4
  -9  31  -5 872.603 33.8069   4
   9  31   5 844.922 35.4669   4
  -7  31  -9 1830.01 65.8747   4
   9  31  -7 1821.19 67.2719   4
   7  31  -9 1912.26 67.4781   4
  -9  31   7 1792.90 66.4432   4
 -31   7   9 1808.99 67.0395   2
  -7  31   9 1856.63 66.8505   4
   7  31   9 1893.11 67.2764   4
   9  31   7 1840.17 67.1148   4
  -9  31  -7 1851.29 65.6929   4
 -31   9   7 1833.69 67.0929   2
  -9  31  -9 7.94116 8.49508   4
 -31   9   9 9.51728 13.5225   2
   9  31  -9-9.11071 14.0104   4
  -9  31   9 9.27651 11.8053   4
   9  31   9-6.56872 12.7845   4
  11  31   1 684.409 28.8591   4
  11  31  -1 690.910 29.2539   4
  -1  31 -11 637.378 28.0814   4
   1  31 -11 662.754 28.3317   4
 -11  31   1 630.004 27.0258   4
 -11  31  -1 670.338 26.9636   4
  -1  31  11 703.085 29.1751   4
  11  31   3 3.27672 12.9608   4
 -31  11   3-3.37572 12.0052   2
  -3  31 -11 5.83996 10.7874   4
  11  31  -3 24.4410 13.0487   4
   3  31 -11 3.28153 11.9766   4
 -31   3  11 18.3471 11.6745   2
 -11  31  -3 8.34280 9.34282   4
  -3  31  11-4.48133 12.5055   4
 -11  31   3 5.24964 10.3254   4
 -11  31   5 4105.08 141.481   4
  -5  31 -11 4079.98 141.364   4
 -31  11   5 4121.20 142.362   2
   5  31 -11 4259.48 142.451   4
 -31   5  11 4023.66 142.129   2
   5  31  11 4171.55 142.274   4
  -5  31  11 4115.17 142.195   4
 -11  31  -5 3975.32 140.859   4
  11  31   5 3973.78 142.199   4
  -7  31 -11 1075.31 41.1590   4
 -31  11   7 1109.97 43.2839   2
 -11  31   7 1089.17 41.8295   4
   7  31 -11 1107.41 42.9886   4
 -31   7  11 1095.79 43.1056   2
   7  31  11 1157.55 42.8314   4
 -11  31  -7 1104.75 40.7295   4
  11  31   7 1076.39 42.5831   4
  -7  31  11 1076.92 42.5407   4
  -9  31 -11 74.7824 9.88283   4
 -31  11   9 83.4403 14.7566   2
   9  31 -11 71.7683 14.8751   4
 -11  31   9 80.2626 12.7224   4
  -9  31  11 62.0151 13.1857   4
   9  31  11 75.9722 14.3341   4
  11  31   9 81.6574 13.3112   4
 -31   9  11 77.2188 14.6447   2
 -11  31  -9 84.5667 9.37258   4
 -31  11  11-6.44499 14.4439   2
 -11  31  11 7.96571 12.3275   4
  11  31 -11 10.3440 14.2815   4
  11  31  11-4.17764 12.6747   4
  13  31   1 6973.19 234.959   4
  13  31  -1 6780.93 234.891   4
  -1  31 -13 6978.33 234.518   4
   1  31 -13 6853.42 234.644   4
 -13  31   1 6764.39 233.787   4
 -13  31  -1 6732.02 233.657   4
  13  31   3 1681.54 62.3931   4
 -13  31  -3 1685.90 60.4709   4
  -3  31 -13 1667.60 61.4880   4
  13  31  -3 1699.71 62.4412   4
 -31   3  13 1681.06 62.2347   2
   3  31 -13 1704.30 62.1831   4
 -13  31   3 1732.91 61.0861   4
  -3  31  13 1691.93 62.3536   4
   3  31  13 1689.06 62.7327   4
  -5  31 -13 311.312 16.7346   4
  13  31  -5 319.542 19.6249   4
 -31   5  13 295.974 19.4327   2
   5  31 -13 310.444 18.9788   4
  -5  31  13 339.292 19.1436   4
 -31  13   5 306.127 19.8264   2
 -13  31  -5 284.980 15.0058   4
 -13  31   5 278.918 16.3082   4
   5  31  13 324.440 19.3408   4
  13  31   5 312.794 18.7422   4
  -7  31 -13 5386.90 188.255   4
   7  31  13 5498.87 189.499   4
 -31  13   7 5702.55 189.928   2
  13  31  -7 5354.02 189.826   4
   7  31 -13 5479.20 189.598   4
 -31   7  13 5611.93 189.769   2
 -13  31   7 5518.58 188.859   4
  -7  31  13 5439.23 189.337   4
  13  31   7 5442.32 189.363   4
 -31  13   9 7544.03 256.474   2
   9  31 -13 7327.30 256.099   4
  -9  31  13 7350.07 255.791   4
 -13  31   9 7401.63 255.471   4
   9  31  13 7785.41 256.068   4
 -31   9  13 7630.84 256.399   2
  13  31   9 7450.04 255.849   4
  -9  31 -13 7318.80 254.509   4
  11  31 -13 347.740 21.5874   4
 -31  11  13 328.300 21.2004   2
  11  31  13 362.532 20.1511   4
 -11  31  13 356.545 19.4926   4
 -13  31  11 330.393 19.2001   4
  13  31  11 328.780 19.9365   4
 -31  13  11 381.730 21.6260   2
 -13  31  13-0.41004 12.4984   4
  13  31  13-3.78007 12.8064   4
 -31  13  13-1.93035 15.0703   2
  15  31   1 10.6148 12.9201   4
  15  31  -1 18.4760 13.3368   4
  -1  31 -15 11.3552 11.3400   4
   1  31 -15 6.52792 12.1824   4
 -15  31  -1 7.27949 8.20749   4
 -15  31   1 8.84243 8.51977   4
   3  31  15 36.5737 14.2320   4
  15  31   3 40.3785 13.2444   4
  15  31  -3 40.7138 14.3526   4
  -3  31 -15 23.4784 11.0406   4
   3  31 -15 13.4735 12.2452   4
 -15  31   3 13.8530 9.77258   4
  -3  31  15 24.2992 14.2311   4
  -5  31 -15 608.614 26.1708   4
  15  31  -5 618.049 28.7117   4
 -31   5  15 648.935 28.7845   2
 -31  15   5 635.116 29.1433   2
  -5  31  15 616.898 28.3232   4
   5  31 -15 652.103 28.1865   4
 -15  31   5 612.104 25.9916   4
   5  31  15 588.953 27.9323   4
  15  31   5 661.193 27.7859   4
 -15  31   7 154.946 12.8176   4
 -31  15   7 154.039 17.0448   2
  -7  31 -15 131.534 11.8012   4
  15  31  -7 153.805 16.9995   4
   7  31 -15 148.326 16.0500   4
  -7  31  15 175.336 15.8382   4
 -31   7  15 140.093 16.9314   2
  31  15  -7 141.044 11.3865   4
   7  31  15 155.565 15.5497   4
  15  31   7 141.551 15.1819   4
  -9  31 -15 1325.96 49.7788   4
 -31  15   9 1404.08 53.0478   2
  15  31  -9 1409.74 52.7951   4
 -31   9  15 1376.70 52.8296   2
   9  31 -15 1315.41 52.4527   4
   9  31  15 1400.24 52.1518   4
 -15  31   9 1357.69 51.0234   4
  31  15  -9 1403.18 50.6416   4
  -9  31  15 1408.59 52.3514   4
  15  31   9 1418.58 52.0061   4
 -11  31  15 645.445 27.6813   2
  15  31 -11 694.764 31.4499   4
 -31  11  15 700.204 31.6374   2
 -11  31  15 675.808 30.2211   4
  11  31 -15 686.683 31.0600   4
  11  31  15 699.176 30.3381   4
 -15  31  11 688.997 28.9912   4
  15  31  11 706.287 29.3683   4
 -31  15  11 710.471 31.5377   2
 -31  15  13 190.132 18.9324   2
  13  31  15 201.486 16.5347   4
 -13  31  15 200.134 14.3785   2
  13  31 -15 192.158 18.0398   4
 -31  13  15 214.537 19.1550   2
  15  31  13 214.187 16.2586   4
  15  31  15 2.06704 13.2557   4
 -15  31  15-7.49294 11.3710   2
  17  31   1 278.194 18.2633   4
  17  31  -1 272.483 18.8865   4
  -1  31 -17 273.923 17.3600   4
   1  31 -17 281.444 17.8779   4
 -17  31   1 257.324 14.4321   4
   1  31  17 274.547 19.1656   4
  17  31   3 1836.31 67.7488   4
  17  31  -3 1923.86 68.3957   4
   3  31 -17 1811.99 67.8427   4
  -3  31 -17 1841.22 66.9116   4
 -17  31   3 1806.99 66.0619   4
   3  31  17 1976.93 68.3372   4
  -5  31 -17 1672.90 61.0058   4
  17  31  -5 1743.78 62.9970   4
   5  31 -17 1685.66 62.5561   4
 -17  31   5 1638.65 60.6671   4
  -5  31  17 1705.90 62.7080   4
   5  31  17 1716.85 62.6998   4
  17  31   5 1703.80 62.1022   4
  -7  31 -17 1752.01 63.1283   4
  17  31  -7 1789.53 65.5318   4
  -7  31  17 1810.76 65.3669   4
 -31  17   7 1780.65 65.9485   2
   7  31 -17 1780.17 65.2223   4
   7  31  17 1736.88 65.0348   4
 -17  31   7 1734.81 63.4688   4
  31  17  -7 1746.39 63.2756   4
  17  31   7 1789.29 64.6585   4
   9  31  17 170.082 16.2296   4
  17  31  -9 165.937 17.6134   4
 -31   9  17 145.627 18.0637   2
   9  31 -17 145.986 17.1058   4
  31  17  -9 148.236 13.1978   4
  -9  31  17 178.142 16.8864   4
  17  31   9 138.872 14.6435   4
 -31  17   9 150.533 17.9237   2
 -11  31  17 26.6906 9.47268   2
 -31  17  11 56.4940 16.3092   2
  17  31  11 30.7170 12.8541   4
  17  31 -11 23.3103 16.3970   4
  11  31  17 29.7604 13.4727   4
 -31  11  17 49.7128 15.9724   2
  31  17 -11 22.4335 11.8924   4
  11  31 -17 33.6590 15.2842   4
  17  31  13 83.7239 13.2346   4
  17  31 -13 83.2896 16.1775   4
 -13  31  17 83.1521 11.1195   2
  13  31  17 87.1793 14.3863   4
  31  17 -13 88.0270 13.5512   4
  13  31 -17 73.9541 17.2708   4
 -17  31  15 793.249 31.4397   2
  17  31 -15 697.245 33.0503   4
  15  31  17 709.779 31.0989   4
  17  31  15 740.668 30.7330   4
 -15  31  17 737.014 30.1422   2
 -17  31  17-11.1984 12.1153   2
 -31  17  17-17.7168 18.0524   2
  17  31  17-16.4048 12.6264   4
  19  31   1 1324.60 51.3068   4
  19  31  -1 1357.01 51.1213   4
  -1  31 -19 1329.55 50.5081   4
   1  31 -19 1351.60 50.8463   4
   1  31  19 1375.00 51.7782   4
  19  31   3 35.8713 13.5411   4
  19  31  -3 36.7237 13.8750   4
  -3  31 -19 32.2788 11.5749   4
   3  31 -19 28.7000 13.8087   4
   3  31  19 41.5641 14.7193   4
  19  31   5 9.18860 12.9310   4
  -5  31 -19 17.8989 10.3862   4
  19  31  -5 2.73030 15.2509   4
  31  19  -5 3.02705 8.75694   4
  -5  31  19 4.11345 15.1408   4
   5  31 -19 0.43933 14.1235   4
   5  31  19 32.3391 14.4561   4
  -7  31 -19 1121.32 41.9345   4
  19  31  -7 1185.98 44.9959   4
  31  19  -7 1099.48 42.4902   4
 -31  19   7 1164.16 45.5261   2
   7  31  19 1124.38 44.4061   4
   7  31 -19 1109.54 44.4453   4
  -7  31  19 1170.36 45.2012   4
  19  31   7 1117.48 43.5217   4
   9  31 -19 69.1069 16.1109   4
  19  31  -9 73.6972 16.8494   4
   9  31  19 69.0963 14.1156   4
 -31  19   9 59.2776 16.9356   2
  19  31   9 63.9915 13.7516   4
  31  19  -9 73.3599 12.0524   4
  11  31 -19 20.3914 16.1862   4
  31  19 -11 3.22595 11.5462   4
  19  31 -11 1.92584 15.9355   4
  11  31  19 26.2733 13.2173   4
  19  31  11 22.0059 12.2897   4
  31  19 -13 28.9288 13.2672   4
  13  31  19 0.41331 12.7669   4
  13  31 -19 7.24829 16.2338   4
  19  31 -13 20.3317 16.4961   4
  19  31  13 1.57237 11.6475   4
 -19  31  13-6.64284 13.4479   2
 -13  31  19 11.9329 9.76875   2
  15  31 -19 36.1648 16.7085   4
 -31  15  19 11.1478 17.4543   2
  19  31 -15 31.5628 16.4216   4
 -19  31  15 29.3877 13.4751   2
  19  31  15 19.5396 11.9399   4
  31  19 -15 23.4810 14.3905   4
  15  31  19 23.5234 12.6184   4
 -31  19  15 14.7668 18.0150   2
 -15  31  19 18.6070 10.5123   2
 -31  17  19 1980.44 74.2608   2
  19  31 -17 1955.40 74.0541   4
 -31  19  17 2144.21 74.5985   2
 -17  31  19 1976.13 71.9302   2
  19  31  17 1992.00 71.7378   4
  31  19 -17 2085.94 73.2645   4
  17  31  19 1932.59 71.8588   4
 -19  31  17 2005.82 72.3038   2
  19  31  19 9.59185 10.8325   4
 -31  19  19-8.53422 18.0007   2
 -19  31  19 1.20009 12.1451   2
  21  31   1 47.0826 14.2777   4
  21  31  -1 34.5898 14.0591   4
  -1  31 -21 36.7133 12.5185   4
   1  31 -21 46.6477 13.3851   4
   1  31  21 36.7649 15.2555   4
  -1  31  21 62.2252 16.4699   4
  21  31   3 479.713 22.7391   4
  21  31  -3 424.029 23.1824   4
  31  21  -3 440.483 19.9106   4
  -3  31 -21 429.763 21.2298   4
   3  31 -21 441.437 23.0503   4
   3  31  21 446.765 23.8183   4
  -5  31 -21 4515.65 159.155   4
  31  21  -5 4637.74 159.329   4
   5  31  21 4642.87 160.666   4
  21  31  -5 4713.97 160.756   4
   5  31 -21 4633.41 160.413   4
  21  31   5 4604.14 160.056   4
  21  31  -7 1616.25 61.2689   4
  31  21  -7 1696.92 59.7450   4
   7  31 -21 1626.85 61.1689   4
   7  31  21 1662.18 61.0691   4
 -31  21   7 1567.30 61.8165   2
  21  31   7 1623.63 60.1339   4
   9  31  21 866.711 36.2321   4
  21  31  -9 878.513 37.2531   4
  31  21  -9 888.533 34.6019   4
   9  31 -21 872.447 37.0505   4
  21  31   9 858.698 35.1199   4
  31  21 -11 158.537 15.0577   4
  21  31  11 175.646 14.8631   4
  21  31 -11 160.781 19.0388   4
  11  31  21 165.315 15.2557   4
  11  31 -21 146.263 18.1077   4
  21  31 -13 3092.24 110.285   4
 -21  31  13 3138.78 109.645   2
  31  21 -13 3209.27 109.308   4
  21  31  13 3046.11 108.479   4
  13  31  21 3124.13 109.174   4
 -31  21  13 2978.57 110.371   2
  13  31 -21 3079.17 110.304   4
  31  21 -15 63.4051 14.6406   4
 -21  31  15 62.2598 15.1280   2
 -15  31  21 56.2788 10.6910   2
  21  31 -15 75.2184 17.1766   4
  21  31  15 62.7312 11.8801   4
  15  31 -21 54.6540 17.7723   4
  15  31  21 57.9629 13.2369   4
 -31  21  15 53.2932 17.9763   2
 -31  17  21 1220.97 49.6259   2
 -17  31  21 1210.32 46.2946   2
  21  31 -17 1250.90 49.4536   4
  21  31  17 1218.07 46.0424   4
  17  31  21 1261.55 46.7374   4
  31  21 -17 1305.83 48.2560   4
 -21  31  17 1236.54 47.4237   2
 -31  21  17 1232.85 49.6415   2
 -31  19  21 1663.70 61.1105   2
 -31  21  19 1636.69 61.0970   2
  21  31 -19 1629.89 61.0638   4
  19  31  21 1549.13 57.8050   4
 -21  31  19 1631.10 59.0146   2
 -19  31  21 1545.62 58.0982   2
  21  31  19 1528.10 57.4631   4
  31  21 -19 1700.14 60.0906   4
 -31  21  21-34.0793 17.2767   2
  21  31 -21 8.04726 18.1389   4
  21  31  21 1.18733 9.10783   4
 -21  31  21-7.27692 12.0394   2
  31  21 -21 10.6753 15.1470   4
  23  31   1 1558.91 57.3639   4
  23  31  -1 1515.65 57.4467   4
  31  23  -1 1526.77 55.5711   4
  -1  31 -23 1538.66 56.6915   4
   1  31 -23 1583.62 57.1731   4
   1  31  23 1639.65 58.3605   4
  -1  23 -31 1451.76 56.3023   4
  23  31  -3 967.860 38.0024   4
  31  23  -3 880.528 35.3679   4
  -3  31 -23 931.692 35.9637   4
   3  31 -23 923.866 37.6401   4
  -3  23 -31 916.092 35.4915   4
   3  31  23 931.375 38.3759   4
  23  31   3 948.610 37.2016   4
  23  31  -5 633.323 30.5007   4
  31  23  -5 677.199 28.1084   4
   5  31 -23 640.633 30.1293   4
   5  31  23 720.634 31.1343   4
  -5  31 -23 693.739 27.6455   4
  23  31   5 692.210 29.2820   4
  31  23  -7 255.410 16.5953   4
  23  31  -7 269.692 19.7808   4
   7  31 -23 281.520 19.1536   4
  23  31   7 243.966 16.6760   4
   7  31  23 254.020 18.8487   4
  31  23  -9 275.553 17.2510   4
  23  31  -9 239.470 20.0744   4
  23  31   9 257.172 16.2078   4
   9  31 -23 262.866 20.1945   4
   9  31  23 272.805 19.0643   4
 -31  23  11 825.558 39.0410   2
  23  31 -11 957.979 38.6283   4
  31  23 -11 907.250 36.4597   4
  11  31 -23 914.520 38.4230   4
  23  31  11 903.153 35.5196   4
  11  31  23 905.132 36.3039   4
 -23  31  13 3250.76 113.702   2
  23  31 -13 3257.37 114.030   4
  13  31 -23 3138.47 113.917   4
  23  31  13 3188.37 111.919   4
  31  23 -13 3236.00 113.135   4
  13  31  23 3208.11 112.652   4
 -31  23  13 3206.02 114.136   2
 -23  31  15 235.170 18.5502   2
  15  31  23 250.028 15.8327   4
  23  31 -15 240.965 20.3998   4
  23  31  15 234.669 14.4496   4
  15  31 -23 254.099 21.2548   4
  31  23 -15 257.918 18.1282   4
 -31  23  15 234.004 21.0295   2
 -17  31  23 273.260 15.6784   2
  17  31  23 301.469 16.3684   4
  23  31 -17 293.551 20.9689   4
  23  31  17 292.788 15.3284   4
  31  23 -17 325.149 19.5607   4
 -23  31  17 285.698 18.3117   2
 -31  23  17 243.110 21.8775   2
 -19  31  23 248.750 15.7855   2
 -31  23  19 326.813 21.7500   2
  23  31 -19 275.145 21.2232   4
  31  23 -19 322.701 19.7385   4
  23  31  19 263.350 14.2331   4
 -23  31  19 262.939 18.1458   2
 -31  23  21 747.744 33.6050   2
  23  31 -21 707.116 34.0751   4
  31  23 -21 778.744 33.1747   4
  31  21 -23 775.860 33.3682   4
  31  23 -23-13.5717 15.3217   4
  23  31 -23 15.9956 16.9578   4
  25  31   1 631.385 28.4695   4
  25  31  -1 661.141 28.6366   4
  31  25  -1 636.563 26.3371   4
  -1  31 -25 638.836 27.2302   4
   1  31 -25 652.758 28.3122   4
  -1  25 -31 645.321 27.1892   4
   1  25 -31 644.619 27.7292   4
  31  25  -3 623.369 26.7543   4
  25  31  -3 622.599 28.7572   4
  -3  31 -25 662.628 26.9388   4
  -3  25 -31 610.848 26.1906   4
   3  25 -31 645.640 28.1352   4
   3  31 -25 662.188 28.8388   4
  25  31   3 653.315 27.7372   4
  -5  31 -25 194.335 13.1996   4
  31  25  -5 211.266 14.3273   4
  25  31  -5 204.636 17.6416   4
  25  31   5 227.148 14.8126   4
   5  31 -25 178.513 17.3477   4
  25  31  -7 278.736 20.1004   4
  31  25  -7 309.187 17.7843   4
   7  31 -25 294.908 19.1168   4
  25  31   7 282.120 16.9520   4
 -31  25   9 1850.79 70.5242   2
  25  31  -9 1897.34 69.5648   4
  31  25  -9 1964.18 68.7427   4
   9  31 -25 1901.84 69.8005   4
  25  31   9 1843.93 67.7419   4
 -31  25  11 1465.52 56.8210   2
  25  31 -11 1572.61 56.3852   4
  31  25 -11 1526.82 55.2053   4
 -25  31  11 1425.71 56.0850   2
  25  31  11 1437.24 53.5665   4
  11  31 -25 1427.92 55.9453   4
  25  31  13 585.248 25.2364   4
 -25  31  13 613.676 28.8550   2
  25  31 -13 654.248 30.1474   4
  31  25 -13 618.457 28.3405   4
  13  31 -25 648.517 30.4252   4
 -31  25  13 646.547 30.8956   2
 -25  31  15 116.015 15.2591   2
  25  31 -15 121.904 18.3523   4
  31  25 -15 105.696 15.0497   4
  25  31  15 103.442 10.2934   4
  15  31 -25 105.058 18.5057   4
 -31  25  15 132.325 17.9438   2
 -31  25  17 109.080 16.9891   2
  25  31 -17 86.2764 16.8135   4
  31  25 -17 102.791 15.7241   4
  17  31 -25 99.0600 18.8671   4
 -25  31  17 108.818 15.0195   2
 -31  25  19 560.421 27.7907   2
  25  31 -19 520.860 27.8627   4
  31  25 -19 579.583 26.6105   4
 -25  31  19 535.755 25.8868   2
 -31  25  21 735.293 32.6543   2
 -25  31  21 717.382 31.1689   2
  25  31 -21 788.027 33.5064   4
  31  25 -21 745.629 32.8987   4
  31  21 -25 789.080 33.2144   4
  25  31 -23 1322.38 50.7197   4
  23  31 -25 1336.35 50.9521   4
  31  25 -23 1282.55 50.2442   4
  31  23 -25 1306.86 50.3467   4
  25  31 -25-5.17766 15.9255   4
  31  25 -25 5.88485 14.7321   4
  25  25 -31 15.7432 16.5529   4
  31  27  -1 293.375 15.9337   4
  27  31  -1 298.069 17.3434   4
  27  31   1 318.169 17.2740   4
  -1  31 -27 274.157 16.3068   4
   1  31 -27 267.958 17.5873   4
  -1  27 -31 235.316 15.8907   4
   1  27 -31 279.425 17.3341   4
  31  27   1 272.745 15.0186   4
  27  31  -3 366.522 20.1741   4
  31  27  -3 343.653 18.1330   4
  -3  31 -27 390.714 18.0874   4
  -3  27 -31 316.888 17.0984   4
   3  31 -27 364.378 20.2731   4
   3  27 -31 404.138 20.0733   4
  27  31   3 327.717 18.7796   4
  27  31  -5 598.848 27.0776   4
  31  27  -5 562.517 25.1082   4
   5  31 -27 581.979 26.5043   4
   5  27 -31 571.131 26.9435   4
  27  31   5 592.198 24.9283   4
  27  31  -7 344.500 20.5541   4
  31  27  -7 375.652 19.0302   4
 -31  27   7 344.624 23.0995   2
   7  31 -27 322.611 20.7969   4
   7  27 -31 333.377 20.8238   4
  27  31   7 318.405 17.4023   4
 -31  27   9 828.038 37.2099   2
  27  31  -9 859.192 35.3433   4
  31  27  -9 865.496 34.3451   4
 -27  31   9 863.579 36.7357   2
   9  27 -31 828.670 35.5774   4
  27  31   9 792.002 32.3360   4
   9  31 -27 851.137 35.7386   4
 -31  27  11 1853.35 66.7753   2
 -27  31  11 1772.50 66.0790   2
  27  31 -11 1870.14 65.7066   4
  31  27 -11 1787.37 64.9742   4
  27  31  11 1652.14 62.7915   4
  11  27 -31 1757.82 65.8774   4
  11  31 -27 1833.98 65.9935   4
  27  31 -13 1581.05 56.7549   4
  31  27 -13 1554.85 56.1772   4
  13  31 -27 1471.64 56.6904   4
  13  27 -31 1438.33 56.9696   4
 -31  27  13 1440.26 57.3135   2
 -27  31  13 1478.74 56.9224   2
  15  27 -31 106.014 18.2888   4
 -27  31  15 120.356 16.2364   2
  27  31 -15 115.084 16.5553   4
  31  27 -15 131.382 15.8533   4
  15  31 -27 116.226 17.3428   4
 -31  27  15 115.778 16.9052   2
  27  31 -17 187.870 18.7063   4
  31  27 -17 202.743 17.4912   4
  17  31 -27 202.851 19.6358   4
 -31  27  17 198.480 18.4654   2
  17  27 -31 170.614 19.6708   4
 -27  31  17 206.712 17.5002   2
  27  31 -19 297.418 19.9988   4
  31  27 -19 253.794 18.2264   4
 -27  31  19 244.177 17.1068   2
  19  31 -27 258.762 20.4368   4
 -31  27  19 263.023 19.5390   2
  19  27 -31 245.495 20.9532   4
 -27  31  21 440.998 21.4021   2
  27  31 -21 423.921 23.8917   4
  31  27 -21 430.210 22.4481   4
  31  21 -27 405.269 23.2734   4
  27  31 -23 125.584 16.3192   4
  31  27 -23 97.1814 15.5408   4
  31  23 -27 105.018 16.0681   4
  25  27 -31 177.169 17.7865   4
  27  31 -25 159.661 16.8640   4
  25  31 -27 177.513 16.9206   4
  31  27 -25 175.844 16.0561   4
  31  25 -27 191.541 15.8462   4
  27  25 -31 162.249 17.2368   4
  27  31 -27 16.6560 13.2415   4
  31  27 -27 3.62922 12.2279   4
  27  27 -31-21.7016 13.9963   4
  29  31   1 2.44929 10.8196   4
  31  29  -1 16.5045 10.0484   4
  29  31  -1-2.90614 11.4264   4
  -1  31 -29 4.51545 10.5735   4
  -1  29 -31 4.39330 10.6200   4
   1  31 -29-13.8326 11.7629   4
   1  29 -31 2.54474 11.0627   4
  31  29   1 3.43501 9.50607   4
  31  29  -3 4.55631 11.0080   4
  29  31  -3-2.28430 12.4000   4
  -3  31 -29 14.7565 9.27843   4
   3  29 -31 7.75253 12.5221   4
   3  31 -29 13.7447 13.0219   4
  31  29   3 6.36826 8.68328   4
  29  31   3-11.1851 10.2679   4
  29  31  -5 269.909 17.9319   4
  31  29  -5 302.205 17.0414   4
   5  31 -29 296.524 18.5804   4
   5  29 -31 287.279 17.9771   4
  29  31   5 268.416 15.4325   4
  29  31  -7 5135.89 170.422   4
  31  29  -7 4987.77 170.035   4
 -31  29   7 4994.85 171.675   2
   7  31 -29 4954.59 170.560   4
   7  29 -31 5006.44 170.583   4
  29  31   7 4603.98 168.762   4
 -29  31   7 5026.31 171.580   2
   9  31 -29 10.7320 15.1420   4
  29  31  -9 16.0590 13.6781   4
  31  29  -9 3.52344 12.5587   4
 -29  31   9 3.80170 17.4319   2
   9  29 -31-0.86201 14.5110   4
 -31  29   9 12.0786 17.9241   2
  29  31 -11 165.602 16.2007   4
  31  29 -11 178.852 15.8678   4
 -31  29  11 192.831 19.4707   2
  11  31 -29 187.086 17.7196   4
  11  29 -31 143.839 17.5601   4
 -29  31  11 193.016 19.2218   2
  29  31 -13 1231.65 46.6657   4
  31  29 -13 1235.74 46.2021   4
 -29  31  13 1205.35 46.8201   2
  13  31 -29 1182.46 46.7463   4
 -31  29  13 1139.17 47.2919   2
  15  29 -31 1559.91 60.0357   4
  29  31 -15 1601.11 59.5913   4
  31  29 -15 1614.38 59.4173   4
  15  31 -29 1599.81 60.1923   4
 -29  31  15 1593.48 60.0408   2
 -31  29  15 1640.64 60.3473   2
  29  31 -17 1286.33 48.4138   4
  31  29 -17 1263.71 47.7105   4
 -31  29  17 1266.29 48.2482   2
  17  31 -29 1173.40 48.4510   4
  17  29 -31 1250.15 48.4834   4
 -29  31  17 1264.73 48.0708   2
  29  31 -19 76.7148 15.4456   4
  31  29 -19 88.4160 14.3535   4
 -31  29  19 66.6201 14.9816   2
 -29  31  19 64.0230 13.6692   2
  19  31 -29 60.8561 16.1355   4
  19  29 -31 85.7319 17.1117   4
  29  31 -21 160.101 16.2453   4
  31  29 -21 149.039 15.5915   4
  31  21 -29 159.545 16.8061   4
  29  31 -23 426.304 22.7176   4
  31  29 -23 460.048 22.6510   4
  29  23 -31 442.118 23.8571   4
  31  23 -29 460.147 23.3429   4
  29  31 -25 1400.62 49.9535   4
  31  29 -25 1333.46 49.6396   4
  25  31 -29 1331.83 50.1508   4
  31  25 -29 1353.86 49.9583   4
  25  29 -31 1276.61 49.9063   4
  29  25 -31 1321.92 50.0531   4
  29  31 -27 599.234 26.1041   4
  31  29 -27 643.832 26.3667   4
  27  31 -29 609.131 26.6450   4
  31  27 -29 605.099 26.0409   4
  27  29 -31 631.482 26.4140   4
  29  27 -31 611.548 26.6268   4
  29  31 -29 8.53869 10.8622   4
  31  29 -29 4.18104 10.2906   4
  29  29 -31 7.21776 10.9104   4
  31  31  -1-2.58642 10.1532   4
  -1  31 -31 1.55872 9.79632   4
   1  31 -31-2.06313 10.8121   4
  31  31   1-2.11118 9.28675   4
  31  31  -3 8.08019 10.6668   4
   3  31 -31-19.3769 11.8530   4
  31  31   3-6.79548 8.53502   4
  31  31  -5-3.17886 11.7475   4
   5  31 -31 5.71525 12.7251   4
 -31  31   5 10.4564 17.1074   2
  31  31  -7 1.45514 11.6773   4
 -31  31   7 31.7386 17.9285   2
   7  31 -31 21.2053 13.2492   4
  31  31  -9-9.29214 12.2837   4
   9  31 -31-4.00473 13.9879   4
 -31  31   9-20.5661 17.3832   2
  31  31 -11-1.88532 12.6946   4
 -31  31  11 1.75962 16.3524   2
  11  31 -31 19.7903 14.6278   4
 -31  31  13 7.67479 14.7676   2
  31  31 -13-1.13493 12.9780   4
  13  31 -31-6.05265 15.1610   4
  31  31 -15-18.3463 13.1049   4
  15  31 -31-0.39764 14.6428   4
 -31  31  15 5.27750 14.3083   2
 -31  31  17 1.51804 13.7955   2
  31  31 -17-10.5950 13.2249   4
  17  31 -31 5.02065 15.4120   4
  31  31 -19-1.06356 12.6065   4
 -31  31  19 12.0063 13.2666   2
  19  31 -31 7.78833 14.3724   4
  31  31 -21-12.1404 12.3805   4
  21  31 -31 1.05287 13.9699   4
  31  21 -31-10.8958 14.2163   4
  31  31 -23 1.25747 12.3497   4
  31  23 -31-22.8450 13.4042   4
  31  31 -25 2.58068 11.0803   4
  31  25 -31 15.0584 12.1091   4
  31  31 -27 5.84490 10.2316   4
  27  31 -31 6.12177 10.7060   4
  31  27 -31-1.03957 10.5683   4
  31  31 -29-3.66933 8.54342   4
  29  31 -31 5.17063 9.09009   4
  31  29 -31-4.66657 8.84392   4
  31  31 -31-11.3489 6.79845   4
 -32   0   0 13152.0 452.755   2
   0  32   0 13600.0 453.726   4
   2  32   0 3185.46 110.485   4
   0  32  -2 3194.19 110.456   4
 -32   0   2 3191.15 109.607   2
 -32   2   0 3121.45 109.585   2
   0  32   2 3130.05 110.467   4
  -2  32   0 3069.64 110.273   4
   2  32  -2 2310.12 81.1684   4
 -32  -2   2 2236.62 79.7436   2
 -32   2   2 2306.53 80.3349   2
 -32   2  -2 2307.36 79.9543   2
  -2  32   2 2256.26 80.8222   4
   2  32   2 2200.02 81.0635   4
  -2  32  -2 2252.43 80.7901   4
   4  32   0 154.447 14.3706   4
   0  32  -4 130.769 13.3859   4
 -32   4   0 130.819 11.8042   2
 -32   0   4 135.533 11.9818   2
   0  32   4 118.743 14.2767   4
  -4  32   0 149.766 13.5886   4
 -32   4  -2 2096.30 75.0732   2
  -2  32  -4 2130.51 75.7161   4
 -32   4   2 2110.78 75.3821   2
   4  32  -2 2157.27 76.1382   4
   2  32  -4 2183.49 76.1128   4
 -32   2   4 2071.11 75.2870   2
  -2  32   4 2099.80 75.8588   4
  -4  32   2 2063.30 75.5625   4
   2  32   4 2195.63 76.1063   4
  -4  32  -2 2112.01 75.5402   4
   4  32   2 2072.95 76.0313   4
 -32   4  -4 7906.56 270.440   2
   4  32  -4 7975.37 271.323   4
 -32   4   4 8125.25 271.080   2
  -4  32   4 7691.54 271.104   4
  -4  32  -4 7933.79 270.915   4
 -32   6   0 2540.86 88.0300   2
   0  32  -6 2479.21 88.2570   4
 -32   0   6 2545.71 87.9662   2
   0  32   6 2463.10 88.6353   4
  -6  32   0 2412.95 87.9732   4
  -2  32  -6 91.6135 12.4403   4
 -32   2   6 81.2043 12.0265   2
   6  32  -2 107.517 14.7995   4
   2  32  -6 81.6008 13.4440   4
 -32   6   2 75.0712 12.1732   2
 -32   6  -2 95.3329 11.5114   2
  -2  32   6 97.5116 12.9580   4
  -6  32   2 87.3975 12.2087   4
   2  32   6 93.0675 13.9793   4
  -6  32  -2 85.6741 11.9734   4
  -6  32  -4 161.073 12.9191   4
  -4  32  -6 150.326 13.4652   4
 -32   6   4 169.388 13.8745   2
   6  32  -4 135.172 14.8773   4
   4  32  -6 169.100 15.0161   4
 -32   4  -6 146.758 11.5112   2
 -32   6  -4 147.395 12.3553   2
  -4  32   6 159.617 14.2116   4
  -6  32   4 156.638 14.1143   4
 -32   4   6 134.991 13.6425   2
 -32   6   6 134.136 14.4402   2
   6  32  -6 165.520 15.3567   4
  -6  32   6 169.567 14.6669   4
 -32   6  -6 151.609 12.5345   2
  -6  32  -6 182.231 13.3021   4
   6  32   6 160.154 15.1464   4
  -8  32   0 215.414 14.6207   4
   0  32  -8 207.273 15.4184   4
 -32   0   8 206.614 15.0687   2
 -32   8   0 221.280 15.5151   2
   0  32   8 230.639 16.4912   4
  -8  32   2 2065.29 73.6644   4
  -2  32  -8 2083.91 73.9260   4
 -32   8   2 2044.13 73.9500   2
   2  32  -8 2125.13 74.3925   4
 -32   2   8 2021.16 73.8512   2
 -32   8  -2 2042.08 73.7418   2
  -2  32   8 2052.56 74.3441   4
  -8  32  -2 2049.25 73.3878   4
  -4  32  -8 710.805 28.9982   4
   4  32  -8 736.537 30.1237   4
 -32   4   8 681.664 29.7027   2
  -8  32   4 713.571 29.5954   4
 -32   8   4 665.182 29.8506   2
  -4  32   8 734.210 30.0807   4
  -8  32  -4 669.836 28.4016   4
   8  32   4 747.192 30.5001   4
  -6  32  -8 80.2916 11.4617   4
 -32   8   6 80.7422 13.8894   2
   8  32  -6 105.563 15.2664   4
   6  32  -8 99.9310 14.5891   4
  -8  32   6 89.7571 13.0667   4
  -6  32   8 84.2823 13.8618   4
 -32   6   8 103.042 13.7863   2
   6  32   8 83.4621 14.5390   4
  -8  32  -6 92.9135 11.2919   4
   8  32   6 87.2374 13.8235   4
   8  32   8 4901.67 172.639   4
   8  32  -8 5078.03 172.829   4
  -8  32   8 5066.03 172.351   4
 -32   8   8 5024.30 172.675   2
  -8  32  -8 4892.56 171.523   4
  10  32   0 852.371 34.8006   4
   0  32 -10 835.574 33.7185   4
   0  32  10 865.477 34.6246   4
 -10  32   0 814.145 32.6388   4
 -32  10   0 807.488 34.0090   2
  10  32   2 445.249 22.7006   4
  -2  32 -10 439.713 21.5922   4
   2  32 -10 421.596 22.2855   4
 -32   2  10 414.469 21.7867   2
 -32  10   2 479.343 22.2307   2
 -10  32   2 460.917 21.2440   4
  -2  32  10 448.595 22.6424   4
 -10  32  -2 472.590 20.6643   4
  10  32   4 30.6350 12.8278   4
  -4  32 -10 18.3600 10.7963   4
   4  32 -10 21.8368 12.6748   4
  -4  32  10 15.3239 12.7560   4
 -10  32   4 31.8395 11.4064   4
   4  32  10 31.7087 13.1462   4
 -32   4  10 30.4242 12.8277   2
 -10  32  -4 27.0397 10.2155   4
 -32  10   4 38.1814 12.9383   2
  10  32   6 2.10889 13.9241   4
  -6  32 -10 6.67664 10.1569   4
   6  32 -10 10.8110 13.5699   4
 -32  10   6-2.18608 13.0479   2
   6  32  10 18.2744 13.8788   4
 -10  32   6-3.03209 11.7293   4
  -6  32  10 15.9697 12.4585   4
 -32   6  10 3.01127 13.0141   2
 -10  32  -6 11.0810 9.54787   4
  -8  32 -10 140.434 12.2214   4
 -32  10   8 160.801 16.0485   2
   8  32  10 161.238 15.5353   4
   8  32 -10 162.762 16.1478   4
 -10  32   8 146.159 13.9926   4
  -8  32  10 135.451 14.8374   4
 -32   8  10 168.833 16.1590   2
  10  32   8 161.475 15.7925   4
 -10  32  -8 162.791 11.8286   4
 -32  10  10 118.361 16.0265   2
  10  32 -10 118.723 16.3261   4
 -10  32  10 114.618 13.5107   4
  10  32  10 140.410 15.0800   4
 -10  32 -10 120.828 10.4086   4
  12  32   0 726.067 31.5442   4
   0  32 -12 726.199 30.6899   4
 -12  32   0 730.323 29.3759   4
  12  32   2 4792.46 162.652   4
  12  32  -2 4518.39 162.560   4
  -2  32 -12 4792.31 162.103   4
   2  32 -12 4589.73 162.297   4
 -32  12   2 4632.09 162.637   2
 -12  32   2 4708.68 161.596   4
  -2  32  12 4809.86 162.670   4
 -12  32  -2 4643.29 161.295   4
  12  32   4 227.662 17.3134   4
  -4  32 -12 227.721 14.8986   4
  12  32  -4 239.584 18.1443   4
   4  32 -12 244.021 16.3214   4
 -32   4  12 191.617 16.5207   2
 -12  32   4 224.849 15.0067   4
  -4  32  12 218.761 17.2438   4
 -32  12   4 183.483 16.5454   2
 -12  32  -4 206.899 12.8874   4
   4  32  12 221.669 17.8664   4
  12  32   6 6.37618 12.9615   4
 -12  32   6 24.4784 11.3907   4
  -6  32 -12 30.1595 9.94157   4
 -12  32  -6 34.7779 8.82784   4
   6  32 -12 8.81347 14.0519   4
  -6  32  12 37.7205 13.8784   4
 -32   6  12 14.6472 13.4148   2
 -32  12   6 20.0097 13.7109   2
   6  32  12 25.0955 14.0132   4
 -12  32  -8 6129.38 214.855   4
   8  32 -12 6325.05 216.673   4
 -32   8  12 6381.39 216.744   2
 -12  32   8 6279.54 215.899   4
  -8  32  12 6435.21 216.354   4
   8  32  12 6435.60 216.582   4
  12  32   8 6366.16 216.381   4
 -32  12   8 6083.58 216.730   2
  -8  32 -12 6246.78 215.176   4
 -10  32 -12 30.3531 8.54440   4
 -32  12  10 35.3207 14.7269   2
  10  32 -12 25.8158 15.3479   4
 -10  32  12 15.8074 12.6299   4
 -12  32  10 29.9621 12.2688   4
  10  32  12 28.4866 14.0673   4
 -32  10  12 26.3288 15.4110   2
  12  32  10 27.4102 14.0599   4
  12  32  12 6529.75 224.486   4
 -12  32  12 6475.33 224.227   4
 -32  12  12 6570.96 225.058   2
  14  32   0 2737.97 99.0783   4
   0  32 -14 2826.63 98.7915   4
 -14  32   0 2805.44 97.6564   4
 -14  32   2 39.4611 10.2455   4
  14  32   2 30.7628 14.2620   4
  14  32  -2 26.9302 14.6659   4
  -2  32 -14 36.9402 11.5769   4
   2  32 -14 32.4921 13.5409   4
  -2  32  14 30.8630 14.3447   4
 -14  32  -2 35.8919 9.20186   4
   2  32  14 9.20728 14.2538   4
  14  32   4 802.937 33.8894   4
  -4  32 -14 820.286 32.0335   4
  14  32  -4 799.600 34.2469   4
   4  32 -14 822.461 33.5948   4
 -32  14   4 801.335 34.1463   2
  -4  32  14 826.324 33.9508   4
 -14  32  -4 761.197 30.8437   4
   4  32  14 793.941 34.2738   4
  14  32   6 26.1219 13.1936   4
 -14  32   6 24.3685 10.7339   4
  -6  32 -14 10.4540 10.1607   4
  14  32  -6-1.36087 14.7160   4
   6  32 -14-2.67942 13.5380   4
  -6  32  14 22.8644 14.0041   4
 -32  14   6-5.17787 14.7665   2
 -32   6  14 18.7937 14.4383   2
   6  32  14 20.7194 14.6810   4
  -8  32 -14 6.82035 9.06880   4
  14  32  -8 12.5666 15.5869   4
   8  32 -14-10.0219 14.6368   4
 -32  14   8 10.9801 15.2335   2
 -32   8  14-3.75718 15.0315   2
 -14  32   8-0.37935 11.2568   4
  -8  32  14-0.43222 14.1701   4
   8  32  14-5.26965 14.3721   4
  14  32   8 5.07303 13.0343   4
 -32  14  10 53.4877 15.9450   2
  10  32 -14 46.8780 15.8402   4
 -14  32  10 26.8639 12.2512   4
 -10  32  14 46.7627 13.3148   4
 -32  10  14 30.1499 15.7336   2
  10  32  14 16.1599 13.8617   4
  32  14 -10 15.5384 9.94424   4
 -10  32  14 22.8452 9.63951   2
  14  32  10 34.5600 13.6952   4
 -32  14  12-1.97082 15.3499   2
 -12  32  14 5.53264 13.3434   4
 -14  32  12 8.12939 12.7881   4
  12  32 -14 11.8148 15.6591   4
 -32  12  14 9.79519 15.5928   2
  12  32  14 7.79066 13.7093   4
  14  32  12 28.1173 13.5560   4
 -12  32  14 2.54011 10.5473   2
 -32  14  14 540.844 27.9386   2
  14  32  14 570.355 25.9749   4
 -14  32  14 534.910 24.4334   2
  16  32   0 801.703 34.2755   4
   0  32 -16 812.591 33.2830   4
 -16  32   0 807.163 31.0716   4
  16  32   2 49.3258 13.8468   4
  16  32  -2 65.6064 15.2208   4
  -2  32 -16 78.1120 12.9439   4
   2  32 -16 70.8849 14.3063   4
 -16  32   2 70.6929 10.2783   4
   2  32  16 60.9642 15.3963   4
  -4  32 -16 2367.95 83.1651   4
  16  32  -4 2343.56 84.5231   4
   4  32 -16 2382.73 84.2603   4
  -4  32  16 2342.75 84.4204   4
   4  32  16 2450.86 84.5235   4
 -16  32   4 2292.22 82.6908   4
 -32  16   4 2326.52 84.7851   2
  16  32   4 2264.61 83.9151   4
  16  32   6 8.11613 13.7012   4
 -32  16   6 12.1261 15.4772   2
  -6  32 -16 5.91153 9.56229   4
  16  32  -6 16.1071 14.8481   4
  -6  32  16 30.3055 14.9091   4
   6  32 -16 20.6994 14.7527   4
   6  32  16 11.0776 14.7006   4
 -16  32   6 1.78083 10.2338   4
  -8  32 -16 103.184 10.5398   4
   8  32 -16 107.441 16.2512   4
  16  32  -8 139.784 17.0502   4
 -32   8  16 105.611 17.0342   2
   8  32  16 107.629 15.0556   4
 -16  32   8 105.138 12.7511   4
  -8  32  16 104.826 15.8664   4
  32  16  -8 114.572 11.2270   4
 -32  16   8 95.7745 16.7388   2
  16  32   8 81.8463 13.8493   4
  16  32  10 311.777 19.5761   4
  16  32 -10 309.688 21.7894   4
 -32  10  16 307.604 21.8644   2
  10  32 -16 335.256 21.1013   4
 -16  32  10 334.740 18.2841   4
  32  16 -10 325.024 17.0968   4
  10  32  16 318.091 20.2040   4
 -10  32  16 294.985 19.6613   4
 -32  16  10 301.904 21.3938   2
 -32  16  12-6.00399 16.2735   2
 -32  12  16 14.9111 16.9419   2
  32  16 -12 23.9123 11.8164   4
 -12  32  16 13.2167 9.49996   2
  16  32 -12 35.7859 15.8758   4
  12  32  16 35.7329 14.4838   4
  16  32  12 26.0103 13.6193   4
  12  32 -16 40.3021 15.9521   4
 -14  32  16 655.923 28.2727   2
 -16  32  14 647.676 29.1795   2
  14  32  16 745.337 30.1492   4
  16  32  14 703.325 29.6222   4
 -16  32  16 1523.75 57.2031   2
  16  32  16 1591.98 57.5462   4
  18  32   0 1414.81 55.1481   4
   0  32 -18 1526.68 54.6096   4
   0  32  18 1432.55 55.4855   4
  18  32   2 1394.61 51.2319   4
  18  32  -2 1360.68 51.5712   4
  -2  32 -18 1340.88 50.3815   4
   2  32 -18 1326.47 50.9546   4
 -18  32   2 1327.37 48.8968   4
   2  32  18 1338.21 51.5941   4
  -4  32 -18 495.122 22.7607   4
  18  32  -4 489.175 25.4711   4
   4  32 -18 473.879 24.1152   4
  -4  32  18 503.347 25.8668   4
   4  32  18 529.601 25.4742   4
 -18  32   4 497.374 21.7852   4
  18  32   4 516.054 24.2207   4
  -6  32 -18 942.032 37.5000   4
  18  32  -6 1008.91 40.4377   4
  32  18  -6 963.722 37.1232   4
   6  32 -18 969.103 39.8040   4
 -32  18   6 1003.77 40.8525   2
  -6  32  18 1040.28 40.4602   4
   6  32  18 1000.88 40.0588   4
  18  32   6 1000.94 39.4748   4
  -8  32 -18 5650.70 201.947   4
 -32  18   8 5933.29 204.428   2
  18  32  -8 5858.78 204.075   4
   8  32 -18 5928.02 203.910   4
  -8  32  18 6009.29 204.032   4
   8  32  18 6103.26 203.719   4
  32  18  -8 5914.68 202.510   4
  18  32   8 5983.35 203.470   4
  32  18 -10 1004.53 37.4838   4
  18  32 -10 960.704 40.1685   4
  10  32 -18 922.750 39.5856   4
  10  32  18 941.363 38.9176   4
 -32  10  18 957.980 40.5143   2
  18  32  10 977.835 38.5847   4
 -32  18  10 952.047 40.3680   2
  18  32 -12 8216.53 276.132   4
  12  32 -18 8011.53 275.847   4
 -12  32  18 7587.79 273.963   2
  18  32  12 8066.92 275.090   4
  32  18 -12 8338.61 275.091   4
  12  32  18 8217.19 275.307   4
  18  32  14 548.928 24.4892   4
 -18  32  14 520.556 25.0042   2
  18  32 -14 538.015 27.8185   4
  14  32 -18 520.283 27.3359   4
  14  32  18 553.042 25.2930   4
 -14  32  18 500.432 22.9125   2
  32  18 -14 485.669 24.4940   4
 -18  32  16 812.536 34.0247   2
  18  32 -16 851.463 36.3898   4
  16  32  18 822.771 33.7154   4
  18  32  16 858.728 33.5410   4
  32  18 -16 841.239 34.7445   4
 -16  32  18 802.151 33.0343   2
 -32  18  18 5114.06 172.251   2
  18  32  18 4911.35 170.323   4
 -18  32  18 4840.36 170.465   2
  20  32   0 289.625 18.5953   4
   0  32  20 252.651 19.9801   4
   0  32 -20 260.837 17.7973   4
  20  32   2 293.909 19.2445   4
  20  32  -2 291.435 20.0707   4
  -2  32 -20 306.637 17.4431   4
   2  32 -20 325.907 18.6786   4
   2  32  20 320.246 21.0209   4
  20  32  -4 873.905 36.8772   4
  -4  32 -20 866.457 34.6546   4
   4  32 -20 896.108 36.4414   4
   4  32  20 885.520 36.9240   4
  20  32   4 892.711 35.9490   4
  -6  32 -20 652.874 26.5672   4
  20  32  -6 675.891 30.1576   4
  32  20  -6 647.897 26.6686   4
   6  32 -20 621.600 29.6606   4
 -32  20   6 660.841 30.9753   2
   6  32  20 682.090 29.9713   4
  -6  32  20 621.687 30.3674   4
  20  32   6 619.772 28.5029   4
 -32  20   8 1418.12 54.3031   2
  20  32  -8 1419.89 53.6264   4
  32  20  -8 1376.77 51.4913   4
   8  32 -20 1340.08 53.4675   4
   8  32  20 1434.81 53.3206   4
  20  32   8 1394.03 52.4827   4
  20  32 -10-18.9185 15.6424   4
  10  32 -20 5.17960 15.5568   4
  32  20 -10 23.0626 11.6141   4
  10  32  20 24.3610 14.5421   4
  20  32  10 14.4868 12.8782   4
  20  32 -12 2654.84 93.0696   4
  12  32 -20 2414.38 92.4957   4
  12  32  20 2503.08 91.6302   4
  32  20 -12 2683.84 91.4883   4
  20  32  12 2596.98 91.3418   4
 -14  32  20 0.33024 9.17884   2
  20  32  14 4.19316 12.1723   4
  14  32  20 0.40738 13.4631   4
  14  32 -20 5.30739 16.7206   4
 -20  32  14 17.5443 12.8881   2
  32  20 -14 12.3202 12.9717   4
  20  32 -14-2.44507 16.5827   4
 -20  32  16-0.42116 12.6919   2
 -32  16  20 11.1348 17.4653   2
  20  32 -16-11.6900 17.5223   4
  20  32  16 4.37719 10.8738   4
  16  32  20 25.5546 12.3519   4
  32  20 -16 14.5078 14.2297   4
 -32  20  16 14.7010 17.9961   2
 -16  32  20 13.3533 10.4903   2
 -32  18  20 643.890 30.6596   2
 -32  20  18 594.517 30.3938   2
  20  32 -18 561.161 29.7877   4
  20  32  18 603.523 25.2775   4
 -20  32  18 589.702 26.7685   2
  32  20 -18 632.676 28.0808   4
  18  32  20 556.156 25.6904   4
 -32  20  20 593.158 29.2554   2
  20  32 -20 520.477 28.0240   4
 -20  32  20 572.444 25.3777   2
  20  32  20 569.690 24.2287   4
  32  20 -20 572.734 27.4133   4
  22  32   0 45.3028 14.3517   4
   0  32 -22 63.0769 13.3318   4
   0  32  22 76.3598 16.6912   4
  22  32  -2 790.874 33.2552   4
  -2  32 -22 809.138 32.1126   4
   2  32 -22 805.762 33.1027   4
  -2  32  22 768.373 34.4548   4
  -2  22 -32 761.077 31.1405   4
   2  32  22 804.189 34.7080   4
  22  32   2 775.065 32.5398   4
  22  32  -4 498.490 24.2809   4
  -4  32 -22 462.728 21.2265   4
  32  22  -4 465.356 20.8594   4
   4  32 -22 450.277 23.9832   4
   4  32  22 477.712 25.0453   4
  22  32   4 484.425 23.6090   4
 -32  22   6 61.6580 17.2261   2
  -6  32 -22 61.3242 10.2153   4
  22  32  -6 63.3927 15.0090   4
  32  22  -6 43.1718 11.1335   4
   6  32 -22 52.6379 15.3193   4
   6  32  22 60.3352 15.5959   4
  22  32   6 56.2158 12.5354   4
  22  32  -8 28.1115 15.6255   4
  32  22  -8 23.0637 11.5036   4
   8  32  22 25.2678 14.4633   4
   8  32 -22 12.8991 15.7336   4
  22  32   8 6.71160 12.3099   4
  22  32  10 95.1936 13.5637   4
  22  32 -10 91.1816 16.9486   4
  32  22 -10 93.5530 13.0646   4
  10  32  22 101.748 15.0985   4
  10  32 -22 88.6005 16.6675   4
  22  32 -12 320.759 22.6565   4
 -22  32  12 348.609 20.5518   2
  12  32  22 327.685 20.0649   4
  32  22 -12 322.404 18.9416   4
  12  32 -22 331.548 22.3213   4
  22  32  12 315.303 18.0370   4
 -32  22  14 391.379 25.3070   2
 -22  32  14 409.452 21.3243   2
  22  32 -14 399.991 23.6992   4
  32  22 -14 376.778 21.3891   4
  22  32  14 384.343 19.6543   4
  14  32  22 408.929 20.7870   4
  14  32 -22 391.591 23.8153   4
 -16  32  22 253.846 15.7641   2
  16  32  22 328.471 18.1649   4
 -32  22  16 339.546 23.3458   2
  22  32  16 309.683 16.3941   4
  16  32 -22 318.650 22.6404   4
  22  32 -16 309.895 22.6934   4
 -22  32  16 327.749 19.4913   2
  32  22 -16 329.363 19.8310   4
 -18  32  22 9.12712 9.97824   2
  22  32 -18 20.8648 17.6515   4
  22  32  18 9.67294 9.71401   4
 -32  22  18 4.36075 17.4914   2
  32  22 -18 2.63796 14.2879   4
  18  32  22 8.80127 10.7200   4
 -22  32  18 2.45097 13.0417   2
  32  20 -22 145.241 16.9780   4
 -22  32  20 156.648 14.0724   2
 -20  32  22 138.574 13.1615   2
 -32  22  20 137.697 18.9212   2
  32  22 -20 183.713 16.8356   4
  22  32  20 148.297 11.2955   4
  22  32 -20 169.863 19.0346   4
 -22  32  22 152.640 13.4806   2
  22  32 -22 137.857 19.2939   4
  32  22 -22 167.551 17.0068   4
  24  32   0 3402.34 117.520   4
   0  32 -24 3188.76 116.933   4
   0  24 -32 3439.18 116.830   4
  24  32  -2 498.746 24.3029   4
  32  24  -2 468.593 21.1333   4
  -2  32 -24 489.264 22.6782   4
   2  32 -24 515.008 23.6637   4
  -2  24 -32 478.966 21.8270   4
   2  24 -32 465.296 23.5051   4
  24  32   2 497.472 23.4754   4
  24  32  -4 665.124 28.5775   4
  32  24  -4 597.997 26.2872   4
  -4  32 -24 632.314 26.3569   4
   4  32 -24 681.964 29.0575   4
  24  32   4 612.217 27.6908   4
  24  32  -6 281.012 19.6305   4
  32  24  -6 259.763 16.1373   4
   6  32  24 298.860 19.9771   4
   6  32 -24 275.152 19.4242   4
  24  32   6 269.904 17.2508   4
  24  32  -8 322.656 20.5365   4
  32  24  -8 305.468 17.8267   4
   8  32 -24 330.675 20.6583   4
   8  32  24 289.397 19.9120   4
  24  32   8 306.254 17.6861   4
  32  24 -10 286.553 17.8796   4
  24  32 -10 289.273 20.5212   4
  10  32  24 306.967 18.6215   4
  10  32 -24 300.280 20.6820   4
  24  32  10 289.815 16.9364   4
 -24  32  12 306.969 21.1252   2
 -32  24  12 315.683 23.4073   2
  24  32 -12 336.003 21.5429   4
  32  24 -12 346.472 19.4682   4
  12  32  24 327.008 18.8896   4
  12  32 -24 308.657 21.1629   4
  24  32  12 319.894 17.1869   4
 -32  24  14 70.7962 17.8818   2
  14  32 -24 77.1735 17.7518   4
 -24  32  14 55.9334 15.6496   2
  24  32 -14 84.1633 17.1313   4
  24  32  14 62.1743 10.2141   4
  32  24 -14 64.8387 14.3508   4
 -24  32  16 209.397 17.9720   2
  24  32 -16 284.579 20.8608   4
  24  32  16 221.585 13.5758   4
  32  24 -16 247.842 17.9895   4
 -32  24  16 253.780 21.7542   2
  16  32 -24 281.838 21.0378   4
 -32  24  18 11.1924 16.8142   2
  24  32 -18-5.53133 17.6487   4
  32  24 -18 14.4449 14.1788   4
 -24  32  18 21.1638 13.6171   2
  32  20 -24 233.618 19.2098   4
 -24  32  20 255.625 16.6980   2
 -32  24  20 218.749 19.6283   2
  24  32 -20 250.941 20.7007   4
  32  24 -20 248.459 18.6494   4
  24  32 -22 419.029 23.8549   4
  22  32 -24 407.517 24.1451   4
  32  24 -22 435.586 22.8009   4
  32  22 -24 426.911 23.1408   4
  24  32 -24 1117.80 45.0943   4
  32  24 -24 1163.49 44.4349   4
   0  32 -26 2158.41 76.0283   4
   0  26 -32 2091.64 75.6097   4
  26  32   0 2108.86 76.1169   4
  32  26  -2 470.079 20.7160   4
  26  32  -2 445.608 23.0714   4
  -2  32 -26 499.810 21.6788   4
   2  32 -26 470.063 22.9778   4
   2  26 -32 460.519 22.7413   4
  -2  26 -32 425.045 20.6556   4
  26  32   2 459.853 22.4759   4
  26  32  -4 689.502 30.6621   4
  32  26  -4 722.292 28.5953   4
   4  26 -32 694.990 30.0207   4
  -4  32 -26 666.040 28.0236   4
   4  32 -26 712.703 30.5104   4
  26  32   4 723.384 29.4011   4
  26  32  -6 1484.86 54.1120   4
  32  26  -6 1428.38 52.7378   4
   6  32 -26 1438.10 54.1928   4
   6  26 -32 1445.01 54.0113   4
  26  32   6 1379.14 52.4670   4
  26  32  -8 29.6845 15.1349   4
  32  26  -8 38.6773 11.9704   4
   8  26 -32 29.0088 15.1847   4
   8  32 -26 34.5024 15.3907   4
  26  32   8 18.4521 10.6007   4
 -32  26  10 442.814 25.9874   2
  26  32 -10 459.997 24.2449   4
  32  26 -10 475.475 22.7814   4
 -26  32  10 518.599 25.5242   2
  26  32  10 437.391 20.6389   4
  10  32 -26 463.997 24.3847   4
 -32  26  12 48.5680 17.4777   2
  26  32 -12 27.0184 16.2611   4
  32  26 -12 33.7116 13.4163   4
 -26  32  12 39.0955 15.2816   2
  12  32 -26 41.1979 16.2745   4
  26  32  12 33.6783 9.51878   4
  26  32 -14 364.649 21.9321   4
  32  26 -14 343.140 20.0169   4
  26  32  14 297.550 15.5229   4
  14  32 -26 364.068 22.2246   4
 -26  32  14 341.082 21.2133   2
 -32  26  14 357.238 23.3179   2
 -32  26  16-1.84842 16.7326   2
  26  32 -16-5.83177 16.2437   4
  32  26 -16-13.5593 14.1269   4
  16  26 -32-21.8805 16.3583   4
  16  32 -26-21.3957 16.8187   4
 -26  32  16 19.4409 14.4509   2
  26  32 -18 25.8840 16.4287   4
  18  32 -26 35.7992 17.3877   4
  32  26 -18 34.4940 13.8663   4
 -26  32  18 21.0487 13.5964   2
  18  26 -32 31.3880 16.9918   4
 -32  26  18 10.6205 16.5018   2
 -26  32  20 846.177 35.7904   2
  26  32 -20 934.795 37.8123   4
  32  26 -20 934.857 36.6845   4
  20  26 -32 926.852 38.1882   4
  32  20 -26 902.138 37.4281   4
  26  32 -22 669.685 30.5138   4
  32  26 -22 656.931 29.1507   4
  32  22 -26 687.649 30.0410   4
  26  24 -32 662.106 31.1801   4
  26  32 -24 717.425 30.8627   4
  24  32 -26 698.414 30.6381   4
  32  26 -24 695.519 29.8533   4
  32  24 -26 718.800 30.1525   4
  32  26 -26-6.08451 12.6350   4
  26  32 -26 1.41666 14.3130   4
  26  26 -32-7.93899 15.0058   4
   0  32 -28 842.705 33.5276   4
   0  28 -32 807.510 33.0111   4
  32  28   0 836.857 32.1693   4
  28  32   0 869.765 33.7287   4
  32  28  -2 1443.84 53.5458   4
  28  32  -2 1527.30 54.8469   4
  -2  32 -28 1488.00 53.7879   4
   2  32 -28 1522.16 54.9548   4
  -2  28 -32 1398.63 53.3920   4
   2  28 -32 1505.05 54.5607   4
  28  32   2 1501.32 54.2688   4
  32  28  -4 1865.10 66.7467   4
  28  32  -4 1852.87 67.7213   4
   4  32 -28 1864.28 67.8335   4
  28  32   4 1832.83 66.7147   4
   4  28 -32 1909.07 67.6711   4
  28  32  -6 324.314 19.8529   4
  32  28  -6 312.271 17.9127   4
   6  32 -28 350.177 20.3214   4
   6  28 -32 359.220 19.7664   4
  28  32   6 315.798 16.9114   4
  28  32  -8 29.8886 14.5951   4
  32  28  -8 24.8510 12.3986   4
   8  28 -32 41.8238 14.0145   4
   8  32 -28 26.2328 14.6432   4
 -32  28   8 32.2508 18.7447   2
  28  32   8 36.8761 9.57504   4
 -28  32   8 32.8441 17.3859   2
  28  32 -10 160.687 16.6169   4
  32  28 -10 156.220 14.7190   4
 -32  28  10 136.909 19.1339   2
  10  28 -32 119.524 16.4769   4
 -28  32  10 136.181 18.5508   2
  28  32  10 125.558 10.5607   4
  10  32 -28 135.698 16.5368   4
  28  32 -12 744.135 31.8887   4
  32  28 -12 736.149 30.8864   4
  12  28 -32 705.376 32.3744   4
 -32  28  12 765.629 33.5786   2
 -28  32  12 699.027 32.5179   2
 -28  32  14 225.234 18.5066   2
  28  32 -14 211.659 17.9865   4
  32  28 -14 232.023 16.8970   4
  14  32 -28 241.588 19.1333   4
  14  28 -32 199.166 19.0277   4
 -32  28  14 234.365 20.4934   2
  28  32 -16 1028.49 40.8876   4
  32  28 -16 1019.92 40.0853   4
 -32  28  16 1013.92 41.3238   2
  16  32 -28 968.658 40.9786   4
  16  28 -32 1024.73 41.3727   4
 -28  32  16 1028.36 40.6346   2
  28  32 -18 1025.56 41.0044   4
  32  28 -18 1056.47 40.4209   4
 -28  32  18 1003.66 40.1179   2
  18  32 -28 1020.20 41.4234   4
  18  28 -32 1005.67 41.4306   4
 -32  28  20 51.8171 14.8899   2
  28  32 -20 76.7375 15.9183   4
 -28  32  20 59.7370 12.6000   2
  20  32 -28 46.0656 16.2080   4
  32  28 -20 35.9952 13.9608   4
  20  28 -32 51.0260 16.1498   4
  32  20 -28 59.8283 14.7840   4
  28  32 -22 66.3452 15.3282   4
  32  28 -22 91.7429 14.4144   4
  32  22 -28 66.9517 14.8456   4
  28  22 -32 58.4395 16.0866   4
  28  32 -24 23.2915 13.9632   4
  32  28 -24 28.7510 12.8887   4
  28  24 -32-5.05259 13.7173   4
  32  24 -28 23.3027 12.9514   4
  28  32 -26 250.715 16.8652   4
  32  28 -26 285.183 16.2317   4
  32  26 -28 235.964 15.8660   4
  28  26 -32 233.047 16.2978   4
  26  28 -32 259.568 17.3309   4
  28  32 -28 448.449 20.9232   4
  32  28 -28 428.022 20.1300   4
  28  28 -32 442.471 20.9571   4
   0  32 -30 207.199 13.7557   4
   0  30 -32 177.888 13.3165   4
  32  30   0 162.476 12.1401   4
  30  32   0 189.525 13.4733   4
  -2  32 -30 1195.56 44.6956   4
  -2  30 -32 1188.39 44.5319   4
   2  32 -30 1218.83 45.8865   4
   2  30 -32 1283.63 45.7722   4
  30  32   2 1188.84 44.9797   4
  32  30  -2 1249.40 45.1001   4
  30  32  -2 1234.76 45.5893   4
  32  30  -4 463.865 20.1683   4
  30  32  -4 415.937 20.9162   4
   4  32 -30 422.336 21.4971   4
   4  30 -32 385.893 21.1233   4
  30  32   4 413.574 19.0708   4
  32  30  -6 627.976 26.0997   4
  30  32  -6 618.024 26.6279   4
 -32  30   6 597.848 30.6564   2
   6  32 -30 626.022 27.5724   4
 -30  32   6 637.735 29.4862   2
   6  30 -32 627.687 27.2773   4
  30  32   6 583.717 24.4089   4
  30  32  -8 78.7621 13.0640   4
  32  30  -8 47.3288 12.2990   4
   8  32 -30 73.9104 13.9503   4
 -32  30   8 35.3171 17.4918   2
 -30  32   8 58.6708 17.1665   2
   8  30 -32 55.0001 13.5693   4
  30  32 -10 68.6831 13.7067   4
  32  30 -10 52.8802 12.5572   4
 -32  30  10 66.3811 16.5621   2
 -30  32  10 59.1842 16.2759   2
  10  30 -32 57.4131 14.9273   4
  10  32 -30 58.6488 15.0055   4
  30  32 -12 1191.25 45.2659   4
  32  30 -12 1194.96 44.8892   4
  12  32 -30 1140.40 45.8163   4
 -32  30  12 1209.69 46.6643   2
  12  30 -32 1178.78 45.8258   4
 -30  32  12 1156.19 46.2662   2
  30  32 -14 4.98858 13.6872   4
  32  30 -14-15.4440 12.4791   4
  14  30 -32 18.0670 15.0361   4
  14  32 -30 9.16457 14.8964   4
 -32  30  14 10.0933 15.6184   2
 -30  32  14 1.64001 15.1584   2
  30  32 -16 53.4683 13.8967   4
  32  30 -16 38.7389 13.2519   4
  16  30 -32 35.8127 14.8944   4
 -32  30  16 49.3429 14.8833   2
  16  32 -30 31.2191 15.3271   4
 -30  32  16 27.3759 13.9647   2
  30  32 -18 1024.69 39.8852   4
  32  30 -18 1043.13 39.4504   4
 -32  30  18 1041.86 40.3235   2
 -30  32  18 1024.16 39.8544   2
  18  32 -30 961.142 40.4765   4
  18  30 -32 1008.90 40.3432   4
  30  32 -20 199.545 15.9337   4
  32  30 -20 196.457 15.4385   4
  20  32 -30 176.287 17.0566   4
  20  30 -32 158.264 16.7402   4
  32  20 -30 191.596 16.8330   4
  30  32 -22-4.60532 12.7194   4
  32  30 -22 13.8415 12.2221   4
  32  22 -30 31.6885 13.1721   4
  30  22 -32-3.17614 14.2677   4
  30  32 -24 251.675 16.1113   4
  32  30 -24 259.076 15.9634   4
  30  24 -32 292.727 17.0654   4
  32  24 -30 241.487 16.3695   4
  30  32 -26 987.973 38.2946   4
  32  30 -26 1041.85 38.2083   4
  26  32 -30 1052.41 38.7566   4
  26  30 -32 1034.24 38.6218   4
  32  26 -30 1000.09 38.2791   4
  30  26 -32 986.340 38.4563   4
  30  32 -28 92.5902 10.9191   4
  32  30 -28 83.9381 10.1695   4
  28  32 -30 98.7098 10.9204   4
  32  28 -30 100.604 10.5936   4
  28  30 -32 108.778 11.2687   4
  30  28 -32 103.103 11.1412   4
  30  32 -30 119.688 9.48475   4
  32  30 -30 97.7028 8.92136   4
  30  30 -32 97.5186 9.45689   4
   0  32 -32 236.316 14.2035   4
  32  32   0 259.404 13.9899   4
   2  32 -32 439.209 20.5225   4
  32  32   2 444.108 18.9031   4
  32  32  -2 444.677 19.9096   4
  32  32  -4 29.5774 10.3253   4
   4  32 -32 25.3816 11.5525   4
 -32  32   4 34.2781 17.4895   2
  32  32  -6 61.6525 11.3939   4
   6  32 -32 58.6122 12.3657   4
 -32  32   6 61.5827 16.4035   2
 -32  32   8 2700.08 95.9545   2
  32  32  -8 2719.12 94.2181   4
   8  32 -32 2626.39 94.6090   4
  32  32 -10 483.123 22.6092   4
  10  32 -32 478.189 23.6768   4
 -32  32  10 512.013 25.7093   2
  32  32 -12 2104.59 76.3489   4
  12  32 -32 2125.81 76.9775   4
 -32  32  12 2236.36 77.8468   2
  32  32 -14 340.973 18.7852   4
  14  32 -32 355.701 20.4286   4
 -32  32  14 357.072 21.0062   2
  32  32 -16 101.888 13.2067   4
  16  32 -32 118.564 15.1844   4
 -32  32  16 112.314 14.9928   2
  32  32 -18 4203.26 143.272   4
 -32  32  18 4096.43 143.355   2
  18  32 -32 4137.69 143.583   4
  32  32 -20 485.812 21.8655   4
  20  32 -32 470.509 23.4412   4
  32  20 -32 497.612 23.3882   4
  32  32 -22 143.162 12.7912   4
  22  32 -32 162.758 14.4937   4
  32  22 -32 149.961 13.8223   4
  32  24 -32 38.6674 10.9979   4
  32  32 -24 47.8508 10.4033   4
  32  32 -26 242.022 13.9332   4
  26  32 -32 270.433 14.8889   4
  32  26 -32 281.275 14.4473   4
  32  32 -28 307.425 14.0184   4
  28  32 -32 311.021 14.5196   4
  32  28 -32 306.545 14.2341   4
  32  32 -30 316.352 13.9248   4
  30  32 -32 385.300 14.4159   4
  32  30 -32 352.097 14.1368   4
   1  33   1 9.34666 12.9113   4
  -1  33  -1 4.36576 11.8333   4
 -33   1   1 22.5995 9.62068   2
 -33   1  -1-3.55252 9.20129   2
   1  33  -1 2.80832 12.4122   4
  -1  33   1 14.7304 12.3370   4
  -3  33  -1 38.7277 11.7442   4
   3  33   1 51.0768 13.3580   4
 -33   3  -1 56.1207 10.0035   2
  -1  33  -3 46.3413 12.3058   4
   3  33  -1 67.3094 13.7242   4
   1  33  -3 33.9037 13.2828   4
 -33  -1   3 46.8325 10.1826   2
 -33   1   3 52.8055 10.6748   2
  -1  33   3 55.5286 13.2714   4
  -3  33   1 35.3805 11.9810   4
 -33   3   1 42.6222 10.6030   2
   1  33   3 40.9837 13.2426   4
   3  33   3 9.11522 13.4836   4
  -3  33  -3 15.4370 11.9544   4
   3  33  -3-4.53573 13.0636   4
 -33   3  -3 2.63129 8.59546   2
 -33   3   3 4.45853 10.1575   2
  -3  33   3 15.0932 11.8698   4
  -1  33  -5 3198.98 113.325   4
   5  33  -1 3281.33 113.778   4
   1  33  -5 3327.33 113.517   4
 -33   1   5 3243.52 112.997   2
  -1  33   5 3262.22 113.658   4
  -5  33   1 3294.92 113.338   4
 -33   5   1 3223.38 113.019   2
   1  33   5 3092.49 113.587   4
  -5  33  -1 3223.68 113.090   4
 -33   5  -1 3220.82 112.855   2
   5  33   1 3201.22 113.652   4
 -33   5  -3 2561.82 91.4563   2
   5  33  -3 2599.67 92.7120   4
   3  33  -5 2602.36 92.5736   4
 -33   3   5 2593.52 91.9532   2
 -33   5   3 2609.08 92.0475   2
  -3  33   5 2611.30 92.3907   4
  -5  33   3 2672.73 92.2005   4
   3  33   5 2558.10 92.4954   4
  -5  33  -3 2620.25 91.9527   4
  -3  33  -5 2588.75 91.9783   4
  -5  33  -5 13.8375 11.1899   4
   5  33  -5-5.93119 13.7565   4
 -33   5  -5 17.1531 9.77422   2
  -5  33   5-0.39995 11.7631   4
 -33   5   5 10.8692 12.0774   2
 -33   7   1 2410.99 82.3226   2
  -1  33  -7 2336.83 82.3739   4
   1  33  -7 2310.60 82.5903   4
 -33   7  -1 2327.99 82.0429   2
 -33   1   7 2271.95 82.0131   2
  -1  33   7 2342.33 82.6912   4
  -7  33   1 2257.34 81.9702   4
   1  33   7 2247.36 82.7283   4
  -7  33  -1 2243.78 81.8630   4
  -3  33  -7 48.3706 12.4973   4
   7  33  -3 28.8577 13.7094   4
   3  33  -7 50.1451 13.7813   4
 -33   7   3 41.0125 12.3034   2
 -33   3   7 47.3927 11.5754   2
 -33   7  -3 43.8400 11.1725   2
  -3  33   7 23.9919 12.7425   4
  -7  33   3 61.3592 12.3339   4
  -7  33  -3 42.1225 11.5358   4
  -5  33   7 7950.49 264.559   4
   7  33  -5 7823.77 264.784   4
   5  33  -7 7575.57 264.631   4
 -33   5  -7 7503.00 263.443   2
 -33   7  -5 7773.25 263.972   2
 -33   5   7 7767.64 264.512   2
  -7  33   5 7714.45 264.323   4
 -33   7   5 7971.26 264.609   2
  -7  33  -5 7585.33 263.824   4
   7  33   5 7374.56 264.496   4
  -5  33  -7 7956.55 264.103   4
  -7  33  -7 7.15103 10.8861   4
   7  33  -7-2.63566 13.6413   4
  -7  33   7 12.9818 12.2274   4
 -33   7  -7 7.16607 9.91188   2
   7  33   7 10.2839 13.7324   4
 -33   7   7 2.15362 13.1868   2
   9  33   1 2111.48 78.5642   4
  -1  33  -9 2118.09 78.0299   4
   1  33  -9 2219.79 78.2821   4
 -33   9   1 2165.97 78.2970   2
 -33   9  -1 2145.00 78.1446   2
  -9  33  -1 2194.94 77.5324   4
  -9  33   1 2219.83 77.7853   4
  -1  33   9 2167.75 78.6143   4
   1  33   9 2253.74 78.6641   4
   9  33   3 196.549 16.7685   4
  -3  33  -9 200.206 15.1017   4
   3  33  -9 216.331 16.0312   4
 -33   3   9 197.173 15.9176   2
 -33   9   3 192.543 16.1028   2
  -3  33   9 179.443 16.1366   4
  -9  33   3 169.604 14.5778   4
  -9  33  -3 193.760 13.6748   4
 -33   9  -3 191.322 15.0201   2
  -5  33  -9 5015.63 177.201   4
   5  33  -9 5231.38 178.142   4
 -33   5   9 5027.26 177.872   2
  -5  33   9 5270.04 178.046   4
  -9  33   5 5212.35 177.598   4
   5  33   9 5031.95 178.043   4
  -9  33  -5 5145.30 176.999   4
 -33   9   5 5139.82 177.948   2
   9  33   5 5251.53 178.087   4
   9  33  -7 3561.39 122.238   4
   7  33  -9 3428.91 122.081   4
 -33   7   9 3364.64 121.925   2
   7  33   9 3493.48 122.013   4
  -7  33   9 3461.67 121.630   4
 -33   9   7 3539.08 122.019   2
  -9  33   7 3455.14 121.414   4
  -9  33  -7 3484.49 120.679   4
   9  33   7 3495.96 122.001   4
  -7  33  -9 3449.50 120.857   4
   9  33  -9-0.90768 14.4736   4
  -9  33   9 7.73900 12.9704   4
   9  33   9 7.43473 14.2064   4
 -33   9   9 3.19838 13.3390   2
  -9  33  -9 2.99296 9.01904   4
  11  33   1 3009.94 106.164   4
  11  33  -1 3023.72 106.245   4
  -1  33 -11 3040.76 105.672   4
   1  33 -11 2995.62 105.736   4
 -33  11   1 2951.55 105.948   2
  -1  33  11 2974.07 106.266   4
 -11  33   1 3028.54 105.167   4
 -11  33  -1 2979.45 104.835   4
 -33  11  -1 2996.18 105.925   2
  11  33   3 19.0792 14.5276   4
  -3  33 -11 25.4406 12.0552   4
   3  33 -11 6.41227 13.4612   4
 -33   3  11 12.5026 13.2733   2
 -33  11   3 22.6550 13.4876   2
 -11  33   3 31.1485 11.4926   4
  -3  33  11 30.6665 14.5854   4
 -11  33  -3 21.1483 10.2212   4
 -33  11   5 2204.29 83.5731   2
  -5  33 -11 2297.13 82.5073   4
   5  33  11 2426.35 83.8779   4
   5  33 -11 2380.13 83.6246   4
 -33   5  11 2306.40 83.4583   2
 -11  33   5 2393.20 82.7555   4
 -11  33  -5 2258.34 81.8598   4
  11  33   5 2382.00 83.5247   4
  -5  33  11 2286.01 83.2421   4
  -7  33  11 1302.00 49.1189   4
   7  33 -11 1371.60 49.8453   4
 -33   7  11 1234.94 49.4403   2
 -11  33   7 1266.17 48.4022   4
 -11  33  -7 1246.72 47.1692   4
   7  33  11 1284.90 49.6840   4
  11  33   7 1356.35 49.7479   4
 -33  11   7 1289.73 49.6793   2
  -7  33 -11 1289.05 47.5824   4
  -9  33 -11 21.0217 9.52284   4
 -33  11   9 0.94063 13.9679   2
   9  33 -11 10.7044 14.7724   4
  -9  33  11 2.51218 12.3047   4
 -33   9  11 11.2054 14.2334   2
   9  33  11-6.18171 13.8605   4
 -11  33  -9 3.45092 8.95152   4
  11  33   9 8.76265 13.8515   4
 -11  33   9 10.0507 12.4018   4
  11  33 -11 18.9162 16.3007   4
 -11  33  11 0.41655 12.8405   4
  11  33  11 1.76212 14.4398   4
 -33  11  11 11.0239 15.9779   2
 -11  33 -11 6.36043 8.29494   4
 -13  33   1 30.5189 10.4154   4
  13  33   1 16.4214 14.1109   4
  13  33  -1 33.4820 15.0890   4
  -1  33 -13 25.0373 12.7463   4
   1  33 -13 31.4211 12.1006   4
  -1  33  13 29.1830 15.4789   4
 -33  13   1 24.1255 13.7721   2
 -13  33  -1 17.8477 9.45272   4
  -3  33 -13 1347.32 50.4496   4
  13  33  -3 1380.89 52.0179   4
   3  33 -13 1415.02 51.6126   4
 -33  13   3 1421.01 52.2147   2
 -13  33   3 1332.88 49.9752   4
  -3  33  13 1337.92 51.6284   4
   3  33  13 1354.17 51.7882   4
 -13  33  -3 1331.51 49.5099   4
  13  33   3 1338.28 51.6053   4
  13  33   5 17.5696 14.0691   4
  -5  33 -13 37.7791 11.1767   4
  13  33  -5 12.8355 14.7171   4
   5  33 -13 19.2433 13.7818   4
 -33   5  13 22.3728 13.6018   2
 -33  13   5-1.87531 13.7215   2
 -13  33   5 24.3340 11.3752   4
   5  33  13 32.6897 14.7622   4
 -13  33  -5 8.47265 8.80697   4
  -5  33  13 26.5441 14.7894   4
  -7  33 -13 121.393 12.1845   4
 -13  33  -7 134.928 10.9146   4
 -33  13   7 166.592 16.8270   2
   7  33 -13 154.801 17.0810   4
 -33   7  13 137.439 16.3239   2
 -13  33   7 146.819 14.0904   4
  -7  33  13 138.411 16.2954   4
   7  33  13 124.821 16.0758   4
  13  33   7 138.303 15.7277   4
  -9  33 -13 73.6820 10.2100   4
 -33  13   9 90.8503 16.8193   2
   9  33 -13 98.7301 16.4377   4
  -9  33  13 70.5721 14.2408   4
 -33   9  13 90.3830 16.1746   2
   9  33  13 85.5098 15.2980   4
 -13  33   9 79.8095 12.8256   4
  13  33   9 81.3295 15.5702   4
  11  33 -13 3.80841 16.2120   4
 -13  33  11-0.41151 12.6434   4
 -11  33  13 7.70728 13.3511   4
 -33  11  13 10.7175 14.7709   2
  11  33  13 1.76981 14.2762   4
  33  13 -11-5.96853 10.1015   4
  13  33  11 15.3181 14.1383   4
 -33  13  11 25.5230 15.8181   2
 -13  33  13-3.79044 13.6200   4
  13  33  13-5.68453 14.0866   4
 -33  13  13-21.4261 16.2777   2
  15  33   1 51.4158 14.8588   4
  15  33  -1 74.3615 15.3053   4
  -1  33 -15 62.4734 13.2178   4
   1  33 -15 69.7930 13.2340   4
 -15  33   1 63.2647 10.0488   4
 -15  33  -1 65.1360 9.65907   4
  15  33  -3 325.437 21.3731   4
  -3  33 -15 346.963 18.6060   4
   3  33 -15 336.542 19.6185   4
 -33  15   3 340.854 21.2301   2
 -15  33   3 329.596 17.2215   4
  -3  33  15 325.483 21.0454   4
 -15  33  -3 332.359 15.9092   4
   3  33  15 343.285 21.4737   4
  15  33   3 309.666 19.9540   4
  15  33   5 37.8232 14.2027   4
  -5  33  15 29.9508 15.1611   4
  -5  33 -15 29.2255 10.3704   4
  15  33  -5 40.3976 15.2187   4
   5  33 -15 21.2503 14.1259   4
 -15  33   5 39.6238 11.0845   4
 -33  15   5 26.1087 15.7157   2
   5  33  15 33.3833 15.7983   4
  -7  33 -15 7.49075 9.29878   4
  15  33  -7 0.46934 16.0611   4
 -33   7  15 12.4831 15.2578   2
   7  33 -15 5.08330 15.2561   4
 -33  15   7-7.83693 15.3269   2
 -15  33   7 8.96401 10.7722   4
  -7  33  15 20.5683 14.3692   4
   7  33  15 6.30655 14.3202   4
  15  33   7 15.1410 13.7482   4
  15  33  -9 519.977 25.0833   4
 -33   9  15 473.664 25.3709   2
   9  33 -15 460.661 25.1092   4
  33  15  -9 449.968 20.6136   4
 -15  33   9 466.404 22.4698   4
  -9  33  15 517.555 24.6150   4
   9  33  15 430.252 23.8295   4
  15  33   9 479.234 23.5328   4
 -33  15   9 500.502 25.2711   2
  -9  33 -15 414.907 20.1388   4
 -33  15  11 32.5269 16.7547   2
  11  33  15-0.88425 14.4315   4
 -15  33  11 24.7490 12.5612   4
 -11  33  15 15.8026 13.5986   4
 -33  11  15 25.2525 16.4461   2
 -11  33  15 18.5479 9.57039   2
  11  33 -15 18.2098 16.4238   4
  33  15 -11 16.0581 10.5813   4
  15  33  11 9.07497 13.7642   4
 -13  33  15 310.793 17.3030   2
  13  33 -15 338.431 21.7633   4
 -33  13  15 336.470 21.9802   2
  13  33  15 318.369 20.1206   4
 -33  15  13 365.430 22.8995   2
  33  15 -13 325.491 18.2910   4
  15  33  13 323.927 19.2831   4
 -15  33  15-0.38475 11.2157   2
 -33  15  15-2.02700 17.0077   2
  15  33  15 5.07803 13.9523   4
  17  33   1 56.4887 14.4941   4
  17  33  -1 56.6245 15.5579   4
  -1  33 -17 60.0314 13.2009   4
   1  33 -17 50.4988 13.7356   4
 -17  33   1 53.9962 9.32732   4
   1  33  17 36.0669 15.6699   4
  17  33  -3 605.804 29.1523   4
  -3  33 -17 623.000 27.1143   4
   3  33 -17 637.829 28.1296   4
   3  33  17 632.929 29.2142   4
 -17  33   3 604.917 25.7931   4
 -33  17   3 667.166 29.8582   2
  17  33   3 637.349 28.7724   4
  17  33   5 4.81113 14.4503   4
  -5  33 -17 16.6273 10.4118   4
  17  33  -5-0.46773 15.5311   4
   5  33 -17-13.6193 14.6049   4
 -33  17   5 12.3948 15.6775   2
 -17  33   5 6.89747 10.0911   4
   5  33  17-4.98555 15.2250   4
  -5  33  17 8.71330 15.1555   4
  -7  33 -17 258.731 15.0835   4
  17  33  -7 285.394 20.1005   4
 -17  33   7 248.997 15.8653   4
 -33  17   7 272.850 20.9708   2
   7  33  17 290.422 19.2504   4
   7  33 -17 268.284 19.3583   4
  -7  33  17 245.938 19.7233   4
  17  33   7 256.309 17.7810   4
  17  33  -9 288.523 21.4989   4
  33  17  -9 291.420 16.2917   4
   9  33  17 271.995 19.1292   4
  -9  33  17 301.346 20.7514   4
   9  33 -17 294.400 20.9564   4
  17  33   9 291.233 18.9927   4
 -33  17   9 340.096 21.4873   2
 -33  11  17 331.351 22.8246   2
  17  33 -11 352.868 23.1864   4
  11  33 -17 347.250 22.5325   4
  33  17 -11 359.405 18.1054   4
  11  33  17 328.309 20.7768   4
  17  33  11 354.963 20.2267   4
 -33  17  11 347.501 23.5851   2
 -13  33  17 33.7075 10.2109   2
  13  33  17 46.1909 13.5540   4
  17  33 -13 36.8164 17.9193   4
 -33  13  17 51.1816 17.5209   2
  33  17 -13 51.3389 12.3796   4
  17  33  13 51.7825 14.5871   4
 -17  33  13 48.9533 13.4488   2
  13  33 -17 60.5282 17.8647   4
 -33  17  13 48.9834 17.9377   2
 -15  33  17 2.17594 10.5103   2
 -17  33  15 1.61029 12.2503   2
  17  33  15-2.03700 12.1141   4
  15  33  17 6.60918 12.7686   4
  33  17 -15-16.2736 12.9150   4
 -17  33  17 11.4224 11.5657   2
  17  33  17 8.64283 11.7813   4
  33  17 -17 0.86383 13.3790   4
  19  33   1 15.5395 14.6515   4
  19  33  -1 23.4702 14.3451   4
  -1  33 -19 25.7657 11.7138   4
   1  33 -19 41.7260 12.9857   4
   1  33  19 40.5396 15.2824   4
  19  33  -3 2709.12 96.2979   4
  -3  33 -19 2623.95 94.9997   4
   3  33 -19 2685.75 95.8583   4
   3  33  19 2749.06 96.4938   4
  19  33   3 2735.27 95.9417   4
  19  33   5 161.088 15.8027   4
  -5  33 -19 139.283 12.6899   4
  19  33  -5 177.647 17.2274   4
  -5  33  19 165.732 17.9206   4
 -33  19   5 138.304 19.1248   2
   5  33 -19 155.050 16.5243   4
   5  33  19 152.624 16.8862   4
  -7  33 -19 4107.22 149.936   4
 -33  19   7 4628.59 152.740   2
  19  33  -7 4394.66 152.185   4
  33  19  -7 4363.51 150.296   4
   7  33 -19 4403.30 152.033   4
   7  33  19 4536.21 151.910   4
  -7  33  19 4456.10 152.161   4
  19  33   7 4191.62 151.300   4
 -33  19   9 941.721 39.8083   2
  19  33  -9 945.852 39.2907   4
   9  33 -19 883.511 38.5585   4
  33  19  -9 933.167 35.9719   4
   9  33  19 938.300 38.1490   4
  19  33   9 923.316 37.4871   4
  19  33 -11 2925.09 101.987   4
  11  33 -19 2753.67 101.699   4
  33  19 -11 2879.56 100.139   4
  11  33  19 2917.57 101.071   4
  19  33  11 2819.21 100.596   4
 -33  19  11 2765.25 102.045   2
  19  33 -13 28.9296 17.8094   4
  13  33 -19 34.5952 16.6674   4
  33  19 -13 35.1630 12.3073   4
 -19  33  13 18.6050 13.0193   2
  19  33  13 46.0719 13.3273   4
  13  33  19 57.0526 13.7507   4
  19  33  15 2.31129 12.5682   4
  15  33 -19 6.75112 16.5764   4
  15  33  19 6.83507 12.5324   4
 -19  33  15 8.74158 12.9707   2
  19  33 -15 19.1231 17.7356   4
  33  19 -15-0.41818 12.8517   4
 -15  33  19 22.5090 10.0262   2
 -19  33  17-0.39436 12.2829   2
  19  33 -17 15.0417 17.9933   4
  19  33  17 16.9144 11.7434   4
 -33  19  17-1.99971 17.2327   2
  17  33  19 5.32756 12.1531   4
  33  19 -17 12.1218 13.4149   4
 -17  33  19 7.89987 10.7104   2
  19  33  19 2.11094 11.1710   4
 -33  19  19-0.49248 18.1186   2
  33  19 -19 10.5360 14.4678   4
 -19  33  19 12.2486 11.6948   2
  21  33   1 928.507 37.7781   4
  21  33  -1 961.305 37.9901   4
  -1  33 -21 892.258 36.5466   4
   1  33 -21 947.875 37.2735   4
  -1  33  21 900.370 39.1911   4
   1  33  21 930.017 39.0446   4
  21  33   3 160.708 15.4980   4
  21  33  -3 157.618 16.8869   4
  -3  33 -21 176.158 13.5807   4
   3  33 -21 174.834 16.1255   4
   3  33  21 166.084 18.5054   4
  -3  21 -33 143.293 12.2996   4
  -5  33 -21 3225.42 115.861   4
  21  33  -5 3369.46 117.795   4
  33  21  -5 3232.33 115.611   4
   5  33 -21 3488.83 117.716   4
 -33  21   5 3389.07 118.439   2
   5  33  21 3419.52 117.836   4
  21  33   5 3341.09 117.049   4
  21  33  -7 1297.77 51.0883   4
 -33  21   7 1299.49 51.5508   2
  33  21  -7 1256.65 48.3733   4
   7  33 -21 1341.51 50.8845   4
  21  33   7 1349.12 49.7014   4
   7  33  21 1359.71 50.7906   4
 -33  21   9 2382.05 89.6956   2
  21  33  -9 2509.72 89.3542   4
  33  21  -9 2521.06 87.4958   4
   9  33 -21 2407.62 89.0294   4
   9  33  21 2445.37 88.8485   4
  21  33   9 2521.63 87.9028   4
  21  33 -11 613.464 30.6508   4
  11  33 -21 615.181 29.7850   4
  33  21 -11 636.810 27.0480   4
  11  33  21 612.191 28.0502   4
  21  33  11 631.398 27.4367   4
 -21  33  13 1639.61 61.8696   2
  21  33 -13 1678.53 63.3248   4
  13  33 -21 1652.38 63.1186   4
  13  33  21 1684.75 61.9220   4
  33  21 -13 1744.23 61.5593   4
  21  33  13 1650.78 61.1619   4
 -21  33  15 60.8651 14.1553   2
  21  33  15 45.0606 12.0185   4
  21  33 -15 54.1079 17.9519   4
  33  21 -15 41.4448 13.3961   4
  15  33 -21 28.9206 17.5342   4
 -33  21  15 63.7915 18.9104   2
  15  33  21 65.4484 13.6780   4
 -21  33  17 37.8700 12.9901   2
  21  33 -17-2.39233 17.7042   4
  17  33  21 24.7117 11.4189   4
 -17  33  21 1.64266 9.72411   2
 -33  21  17 26.9448 18.3012   2
  33  21 -17 44.0516 14.2220   4
  21  33  17 11.4700 10.6061   4
  21  33  19 1358.07 52.8964   4
 -33  21  19 1514.68 56.5396   2
 -19  33  21 1429.81 53.2142   2
  21  33 -19 1554.46 56.6405   4
  19  33  21 1362.71 53.0550   4
 -21  33  19 1510.09 53.9551   2
  33  21 -19 1584.81 55.1748   4
  33  19 -21 1527.50 55.4792   4
 -21  33  21 7.58619 10.8737   2
  21  33 -21-25.8499 17.7061   4
  33  21 -21-9.35401 14.0272   4
  23  33  -1 569.979 27.4928   4
  -1  33 -23 571.874 25.9734   4
   1  33 -23 602.845 26.9745   4
   1  33  23 600.924 29.1520   4
  -1  23 -33 571.127 25.3318   4
  23  33   1 594.138 26.6626   4
  23  33   3 30.3363 13.3184   4
  23  33  -3 34.1741 15.1223   4
  -3  33 -23 21.2536 10.7039   4
   3  33 -23 67.1574 14.5340   4
  -3  23 -33 21.4736 9.56327   4
   3  33  23 38.3577 16.8749   4
  -5  33 -23 3021.01 108.687   4
  23  33  -5 3170.48 110.463   4
  33  23  -5 3107.00 108.793   4
   5  33 -23 3100.40 110.264   4
 -33  23   5 3128.72 111.515   2
   5  33  23 3280.81 110.941   4
  23  33   5 3147.81 109.896   4
  23  33  -7 64.9093 16.1632   4
  33  23  -7 70.1832 11.6360   4
   7  33 -23 92.3305 16.4201   4
   7  33  23 67.7425 15.8815   4
  23  33   7 81.0850 12.7852   4
  23  33  -9-9.79070 16.0037   4
  33  23  -9 16.8567 11.5922   4
   9  33  23 7.35753 14.9337   4
   9  33 -23 1.37559 15.7273   4
  23  33   9 6.44158 12.0929   4
  23  33 -11 42.7322 16.0912   4
  11  33  23 36.6253 14.2645   4
  23  33  11 24.7401 11.6789   4
 -23  33  11 35.8775 15.6106   2
  11  33 -23 37.9119 16.6062   4
  33  23 -11 63.0316 12.1655   4
 -33  23  13 89.8709 19.1095   2
  23  33 -13 92.8469 18.0235   4
  23  33  13 74.0433 11.8522   4
  13  33  23 88.8962 13.1211   4
  13  33 -23 109.098 17.4099   4
  33  23 -13 99.6628 14.0875   4
 -23  33  13 105.799 16.0563   2
  23  33 -15 279.514 20.9245   4
  33  23 -15 291.577 18.4625   4
  15  33  23 279.946 16.9418   4
  15  33 -23 288.194 21.6301   4
  23  33  15 290.270 15.6293   4
 -33  23  15 287.712 22.3849   2
 -23  33  15 274.887 18.5897   2
 -33  23  17 27.0302 17.8001   2
  23  33 -17 36.6547 17.2835   4
  17  33 -23 39.2948 18.0992   4
  23  33  17 24.1717 9.42365   4
  33  23 -17 20.5332 13.8103   4
 -23  33  17 20.5562 12.7233   2
 -23  33  19 191.376 15.8149   2
  23  33  19 210.887 12.3713   4
  23  33 -19 216.403 19.3465   4
  33  23 -19 223.998 17.4328   4
  33  19 -23 199.728 17.6169   4
 -33  23  19 212.538 19.8709   2
 -23  33  21 572.325 25.8431   2
  23  33 -21 620.678 29.5407   4
  33  23 -21 634.880 27.9676   4
  33  21 -23 646.565 28.3567   4
  33  23 -23 9.41424 13.9556   4
  23  33 -23 3.75187 16.3884   4
  25  33  -1 1056.37 40.8865   4
  -1  33 -25 1054.01 39.9523   4
   1  33 -25 1065.86 40.4662   4
  -1  25 -33 1012.70 39.4683   4
   1  25 -33 994.121 40.0334   4
  25  33   1 1056.10 40.8417   4
  25  33  -3 886.988 36.3238   4
  33  25  -3 839.954 33.8598   4
  -3  33 -25 866.324 34.5021   4
   3  33 -25 912.484 36.4515   4
   3  25 -33 936.407 36.1272   4
  25  33   3 924.584 35.7739   4
  -5  33 -25 8.47684 8.92037   4
  25  33  -5-4.37126 14.7946   4
  33  25  -5-5.63869 10.0159   4
   5  33 -25-16.4039 14.0628   4
   5  25 -33 2.54365 13.0580   4
  25  33   5 1.88896 11.4580   4
  25  33  -7 3026.90 105.127   4
  33  25  -7 2929.68 103.604   4
   7  33 -25 2957.02 104.951   4
  25  33   7 2948.84 103.821   4
  25  33  -9 2045.94 73.0796   4
  33  25  -9 2014.72 71.6868   4
   9  33 -25 2075.66 73.1745   4
  25  33   9 1897.66 71.2486   4
  25  33 -11 2283.41 80.2197   4
 -25  33  11 2165.19 80.4322   2
  33  25 -11 2304.14 79.2423   4
  11  33 -25 2120.10 80.1993   4
  25  33  11 2166.30 78.1563   4
 -33  25  11 2239.73 81.2480   2
 -25  33  13 591.403 26.9853   2
  25  33 -13 550.314 28.0250   4
  33  25 -13 581.615 25.6890   4
  13  33 -25 566.560 27.5410   4
  25  33  13 530.557 23.3919   4
 -33  25  13 560.673 29.3660   2
 -25  33  15 127.037 14.8081   2
  25  33 -15 130.955 17.5193   4
  33  25 -15 126.251 14.8283   4
  15  33 -25 132.312 17.8331   4
  25  33  15 132.188 10.5215   4
 -33  25  15 113.190 17.3993   2
  25  33 -17-4.88915 16.1849   4
  33  25 -17 15.8610 13.7327   4
  17  33 -25 0.43783 16.8735   4
 -33  25  17 18.9952 16.9319   2
 -25  33  17 6.35231 13.4072   2
 -33  25  19 789.514 34.8072   2
  25  33 -19 814.727 34.7512   4
 -25  33  19 782.849 32.6237   2
  33  25 -19 810.150 33.3228   4
  33  19 -25 828.921 34.0346   4
 -25  33  21 3845.57 142.065   2
  25  33 -21 4134.96 143.330   4
  33  25 -21 4352.12 142.965   4
  33  21 -25 4272.80 143.259   4
  21  25 -33 4034.46 143.552   4
  25  33 -23 1784.50 65.5368   4
  23  33 -25 1750.44 65.4163   4
  33  25 -23 1798.93 64.7192   4
  33  23 -25 1779.74 64.7831   4
  25  33 -25 4.73546 14.7582   4
  33  25 -25 8.20811 12.3644   4
  -1  33 -27 775.150 32.7919   4
   1  33 -27 889.366 33.6295   4
  -1  27 -33 822.821 32.4140   4
   1  27 -33 814.900 33.1771   4
  27  33   1 846.479 33.6256   4
  27  33  -1 861.935 33.9384   4
  33  27  -3 145.928 11.5929   4
  27  33  -3 170.198 15.3927   4
  -3  33 -27 146.098 12.0912   4
   3  33 -27 154.916 15.3094   4
   3  27 -33 141.558 14.5651   4
  27  33   3 134.027 13.5723   4
  27  33  -5 1492.79 54.4444   4
  33  27  -5 1414.43 52.7731   4
   5  33 -27 1480.78 54.2125   4
   5  27 -33 1446.61 54.2811   4
  27  33   5 1435.82 53.0679   4
  27  33  -7 46.9370 14.5200   4
  33  27  -7 51.4637 11.0824   4
   7  33 -27 54.0129 14.9633   4
   7  27 -33 36.6391 14.6464   4
  27  33   7 45.1759 10.7239   4
  27  33  -9 5.08706 14.3707   4
  33  27  -9-5.40758 11.5451   4
 -33  27   9 6.76869 18.5454   2
 -27  33   9-1.85167 16.2252   2
  27  33   9-0.30728 9.40943   4
   9  27 -33 12.9298 13.7528   4
   9  33 -27-13.2636 15.0638   4
 -27  33  11 853.020 35.9934   2
  27  33 -11 899.628 35.7278   4
  33  27 -11 876.836 34.2296   4
  11  33 -27 894.349 36.2139   4
  27  33  11 791.513 32.2122   4
  11  27 -33 841.298 35.5204   4
 -33  27  11 868.174 37.4032   2
 -27  33  13 15.8103 15.0363   2
  27  33 -13 19.1517 15.1609   4
  33  27 -13 18.5897 12.7334   4
  13  27 -33 33.5687 16.2248   4
  13  33 -27 22.2272 16.0563   4
 -33  27  13 25.8681 17.2314   2
  27  33 -15 667.543 30.2209   4
  33  27 -15 678.879 28.8938   4
  15  33 -27 656.723 30.3598   4
 -33  27  15 679.631 30.7365   2
 -27  33  15 655.295 29.1601   2
  15  27 -33 632.437 29.8676   4
  27  33 -17 170.723 17.7572   4
  33  27 -17 163.323 14.7301   4
 -33  27  17 171.739 17.4656   2
 -27  33  17 178.463 15.3694   2
  17  27 -33 168.108 18.7045   4
  17  33 -27 188.707 18.6139   4
  27  33 -19 317.046 19.8263   4
 -33  27  19 275.829 19.6221   2
 -27  33  19 257.381 17.2912   2
  33  27 -19 302.676 17.7823   4
  19  33 -27 276.912 20.2702   4
  19  27 -33 279.327 20.7670   4
  33  19 -27 263.924 18.9809   4
  27  33 -21 178.582 17.4147   4
  33  27 -21 186.745 15.7318   4
  21  27 -33 225.074 18.5396   4
  33  21 -27 191.662 16.6336   4
  27  33 -23 46.1424 14.8512   4
  33  27 -23 58.8868 12.6793   4
  27  23 -33 59.3435 15.3888   4
  33  23 -27 46.5391 12.5522   4
  27  33 -25 1169.32 44.0458   4
  25  33 -27 1133.23 43.9023   4
  33  27 -25 1164.09 43.1598   4
  33  25 -27 1148.83 43.3275   4
  27  25 -33 1135.54 44.0589   4
  27  33 -27 15.5219 12.1516   4
  27  27 -33 36.5975 12.1031   4
  -1  33 -29 314.124 16.7193   4
   1  33 -29 348.441 17.6852   4
  -1  29 -33 292.009 16.1565   4
   1  29 -33 306.477 17.1260   4
  29  33   1 340.977 17.5310   4
  33  29  -1 333.913 15.7541   4
  29  33  -1 343.713 18.1122   4
  33  29  -3 70.9162 10.4612   4
  29  33  -3 85.0950 12.5897   4
   3  33 -29 82.2224 13.3794   4
   3  29 -33 85.2394 12.8760   4
  29  33   3 80.9019 11.1749   4
  33  29  -5 2899.12 100.924   4
  29  33  -5 3024.05 101.931   4
   5  33 -29 3001.95 101.988   4
   5  29 -33 2830.86 101.690   4
  29  33   5 2759.33 100.555   4
  29  33  -7 309.219 18.4065   4
  33  29  -7 315.519 16.8398   4
   7  33 -29 294.811 19.1799   4
 -29  33   7 358.475 22.3660   2
 -33  29   7 333.578 23.0464   2
   7  29 -33 297.225 18.4985   4
  29  33   7 281.911 15.2516   4
  29  33  -9 430.911 22.2509   4
  33  29  -9 440.658 20.6634   4
 -29  33   9 425.749 24.6269   2
   9  33 -29 438.624 22.8713   4
   9  29 -33 427.842 21.8422   4
 -33  29   9 416.764 24.5431   2
  29  33 -11 1064.40 40.0833   4
  33  29 -11 1011.07 38.9231   4
  11  33 -29 968.947 40.3507   4
  11  29 -33 974.815 40.0887   4
 -33  29  11 996.620 41.4492   2
 -29  33  11 1029.89 40.6674   2
  29  33 -13 354.526 20.1854   4
  33  29 -13 358.309 19.2290   4
  13  33 -29 359.268 20.9340   4
 -33  29  13 345.471 22.4742   2
 -29  33  13 373.231 21.1124   2
  13  29 -33 361.786 21.5555   4
  29  33 -15 320.887 19.9153   4
  33  29 -15 301.213 18.1569   4
  15  33 -29 312.449 20.1508   4
 -33  29  15 321.988 21.1036   2
 -29  33  15 349.393 19.9742   2
  15  29 -33 339.762 20.7876   4
  29  33 -17 109.710 14.9456   4
  33  29 -17 108.325 13.7762   4
  17  33 -29 89.5547 16.0367   4
 -29  33  17 118.965 14.4530   2
  17  29 -33 116.801 16.2058   4
 -33  29  17 102.799 15.5845   2
  29  33 -19 1555.06 56.3079   4
  33  29 -19 1531.69 55.7614   4
 -33  29  19 1530.27 56.4292   2
 -29  33  19 1467.42 55.5572   2
  19  33 -29 1544.17 56.4219   4
  19  29 -33 1497.12 56.6110   4
  33  19 -29 1531.55 56.4741   4
  29  33 -21 146.557 14.9564   4
  33  29 -21 135.008 13.6083   4
  21  29 -33 140.989 15.7110   4
  33  21 -29 128.575 14.8698   4
  29  21 -33 144.753 16.2825   4
  29  33 -23 124.835 14.1322   4
  33  29 -23 135.820 12.8414   4
  29  23 -33 110.305 14.6515   4
  33  23 -29 126.827 13.6267   4
  29  33 -25 1131.10 42.1336   4
  33  29 -25 1148.37 41.8089   4
  25  33 -29 1112.35 42.5087   4
  33  25 -29 1100.05 41.8551   4
  29  25 -33 1132.97 42.3460   4
  27  29 -33 87.7443 11.6633   4
  29  33 -27 68.3032 11.1647   4
  27  33 -29 68.2242 11.3132   4
  33  29 -27 63.6322 10.0846   4
  33  27 -29 70.7400 10.4197   4
  29  27 -33 78.2906 11.6466   4
  29  33 -29 6.54294 9.00891   4
  33  29 -29-3.48871 7.94877   4
  29  29 -33-1.34452 8.99404   4
  -1  33 -31 299.064 14.5406   4
  -1  31 -33 258.760 14.0209   4
   1  33 -31 270.458 15.3148   4
   1  31 -33 268.003 15.2469   4
  31  33   1 262.888 14.7572   4
  33  31  -1 298.842 14.1922   4
  31  33  -1 264.493 15.1847   4
   3  33 -31 239.797 15.1787   4
   3  31 -33 231.497 15.1547   4
  31  33   3 219.831 13.1608   4
  33  31  -3 257.435 14.0702   4
  31  33  -3 236.231 14.6431   4
 -33  31   5 471.218 26.0604   2
   5  33 -31 513.840 22.4136   4
   5  31 -33 444.591 22.2117   4
 -31  33   5 456.410 26.0573   2
  33  31  -5 470.892 20.8931   4
  31  33  -5 478.005 21.8973   4
  33  31  -7 469.420 21.2673   4
  31  33  -7 489.770 22.0961   4
 -33  31   7 471.168 25.9132   2
 -31  33   7 483.201 25.6276   2
   7  33 -31 461.543 22.6153   4
   7  31 -33 480.002 22.8440   4
 -31  33   9 2620.09 91.6638   2
  31  33  -9 2529.80 90.3553   4
  33  31  -9 2505.24 89.9557   4
   9  33 -31 2547.59 90.7118   4
   9  31 -33 2568.55 90.6749   4
 -33  31   9 2645.94 91.9120   2
 -33  31  11 52.5627 16.5265   2
 -31  33  11 58.1436 16.1647   2
  31  33 -11 69.5014 12.7442   4
  33  31 -11 69.2194 11.9359   4
  11  33 -31 89.0210 14.2873   4
  11  31 -33 56.2227 13.5463   4
  31  33 -13 1161.27 44.7096   4
  33  31 -13 1189.36 44.2599   4
  13  33 -31 1190.72 45.2791   4
 -33  31  13 1187.48 45.9256   2
  13  31 -33 1145.41 45.0576   4
 -31  33  13 1214.47 45.5940   2
  31  33 -15 203.187 15.2706   4
  33  31 -15 176.193 14.4267   4
  15  33 -31 200.580 16.9077   4
  15  31 -33 180.808 16.4644   4
 -33  31  15 229.924 17.5438   2
 -31  33  15 255.868 17.0751   2
  31  33 -17 33.9110 12.2805   4
  33  31 -17 45.5850 11.5428   4
 -33  31  17 56.9064 13.9474   2
  17  33 -31 51.2260 14.0766   4
 -31  33  17 38.2795 12.4692   2
  17  31 -33 16.9846 13.8112   4
  31  33 -19 19.7745 12.0427   4
  33  31 -19 31.2641 11.0184   4
  19  33 -31 12.3163 12.5806   4
  19  31 -33 22.4298 12.9793   4
  33  19 -31 15.9475 12.8449   4
  31  19 -33 28.2748 13.7033   4
  31  33 -21 128.940 12.9473   4
  33  31 -21 123.393 12.2053   4
  21  33 -31 151.103 14.2150   4
  21  31 -33 139.538 14.3378   4
  33  21 -31 128.409 13.3965   4
  31  21 -33 122.780 14.5781   4
  31  33 -23 957.793 35.8009   4
  33  31 -23 885.697 35.3887   4
  33  23 -31 991.707 36.0516   4
  31  23 -33 942.473 36.3467   4
  31  33 -25 38.9714 9.74328   4
  33  31 -25 30.4567 9.28901   4
  31  25 -33 25.5029 10.1881   4
  33  25 -31 14.1235 9.70117   4
  31  33 -27 148.687 10.2102   4
  33  31 -27 131.445 9.82459   4
  27  33 -31 140.024 11.0063   4
  27  31 -33 150.413 11.5348   4
  33  27 -31 121.706 10.1598   4
  31  27 -33 133.450 10.7229   4
  31  33 -29 107.960 8.10806   4
  33  31 -29 92.1210 7.42391   4
  29  33 -31 112.232 8.40321   4
  33  29 -31 105.596 7.68822   4
  29  31 -33 97.4159 8.21100   4
  31  29 -33 96.3693 8.27010   4
  31  33 -31 0.84554 4.26054   4
  31  31 -33 2.84504 4.59410   4
   1  33 -33-1.03504 8.55465   4
  33  33  -1 9.48450 7.72414   4
   3  33 -33-5.73443 9.72240   4
 -33  33   3-5.03412 16.2956   2
  33  33  -3 3.87358 8.82423   4
  33  33  -5-5.47949 8.98460   4
   5  33 -33-0.62030 10.6203   4
 -33  33   5 10.7243 15.8186   2
  33  33  -7-0.56786 9.51114   4
 -33  33   7 2.00597 15.3699   2
   7  33 -33 2.58911 11.5767   4
  33  33  -9-15.5961 10.3162   4
 -33  33   9-14.3140 14.1036   2
   9  33 -33 10.8987 11.4497   4
  33  33 -11 2.04995 10.2670   4
  11  33 -33-2.99046 12.1734   4
 -33  33  11 5.59141 13.8524   2
  33  33 -13-0.58076 10.5688   4
  13  33 -33-12.8084 12.5485   4
 -33  33  13-1.05685 13.6096   2
  33  33 -15 15.0716 10.7052   4
 -33  33  15-0.32835 12.6280   2
  15  33 -33 0.32039 12.2683   4
  17  33 -33 17.2663 12.1681   4
  33  33 -17-13.7063 10.4004   4
 -33  33  17 0.60529 11.3863   2
  33  17 -33-7.08372 12.2474   4
  33  33 -19 3.09639 9.72927   4
  19  33 -33 13.3801 11.5067   4
  33  19 -33-7.48972 11.7416   4
  33  33 -21-8.08294 9.43077   4
  21  33 -33 7.55661 10.8759   4
  33  21 -33-7.21163 10.5123   4
  33  33 -23 4.25647 8.11253   4
  23  33 -33-2.19243 9.97895   4
  33  23 -33 2.80994 9.01043   4
  33  33 -25 2.19414 7.13711   4
  33  25 -33-2.41040 7.71295   4
  33  33 -27 7.02503 5.61177   4
  27  33 -33 2.42568 6.84424   4
  33  27 -33 0.79844 6.03121   4
  29  33 -33 1.39411 4.62641   4
 -34   0   0 331.639 16.4520   2
   0  34   0 324.915 19.6746   4
   2  34   0 84.8339 14.5065   4
   0  34  -2 114.749 14.2455   4
 -34   0   2 103.424 11.2076   2
 -34   2   0 110.104 11.1832   2
   0  34   2 98.8862 14.3368   4
  -2  34   0 97.7005 13.3804   4
   2  34  -2 3719.66 126.641   4
 -34   2   2 3577.43 125.639   2
 -34   2  -2 3555.48 125.248   2
  -2  34   2 3664.82 126.425   4
   2  34   2 3562.53 126.630   4
  -2  34  -2 3641.33 126.347   4
   0  34  -4 11153.1 383.887   4
 -34   0   4 10963.6 383.274   2
 -34   4   0 11181.4 383.411   2
   0  34   4 11435.0 384.074   4
  -4  34   0 11343.9 383.774   4
   4  34   0 11609.0 384.119   4
   4  34  -2 468.929 23.2843   4
   2  34  -4 411.159 22.6306   4
 -34   2   4 481.370 21.5138   2
 -34   4   2 433.655 21.0616   2
  -2  34   4 478.670 23.1569   4
 -34   4  -2 448.118 20.8490   2
  -4  34   2 439.927 22.3797   4
   2  34   4 445.462 23.1207   4
  -4  34  -2 434.319 21.8887   4
   4  34   2 412.212 23.2303   4
  -2  34  -4 465.944 22.5761   4
  -4  34  -4 45.5136 12.3175   4
   4  34  -4 34.3778 14.1933   4
 -34   4  -4 35.0328 9.75244   2
 -34   4   4 32.6033 12.1089   2
  -4  34   4 43.2311 13.3598   4
   4  34   4 26.5665 14.1250   4
   6  34   0 2136.32 79.0700   4
   0  34  -6 2120.18 78.6970   4
   0  34   6 2295.51 79.1703   4
  -6  34   0 2213.23 78.4505   4
 -34   6   0 2188.34 78.3089   2
  -2  34  -6 249.786 16.2482   4
   2  34  -6 247.924 17.1458   4
   6  34  -2 221.751 17.9064   4
 -34   2   6 221.966 15.9234   2
 -34   6   2 259.938 16.8409   2
  -6  34   2 237.906 16.6035   4
  -2  34   6 197.612 17.1800   4
  -6  34  -2 256.741 15.9903   4
   2  34   6 240.786 18.2609   4
 -34   6  -2 253.406 15.5642   2
 -34   6  -4 1341.45 49.3432   2
   6  34  -4 1320.20 50.8622   4
   4  34  -6 1306.06 50.7159   4
 -34   4   6 1314.08 50.0015   2
 -34   6   4 1355.76 50.2696   2
  -4  34   6 1341.10 50.6320   4
  -6  34   4 1347.90 50.0538   4
  -6  34  -4 1316.23 49.5313   4
  -4  34  -6 1322.87 49.9277   4
  -6  34  -6 52.9728 12.0919   4
   6  34  -6 36.2647 13.8282   4
 -34   6  -6 36.2238 9.83011   2
  -6  34   6 52.6861 12.8556   4
 -34   6   6 58.4585 13.4319   2
 -34   8   0 1502.84 55.8168   2
   0  34  -8 1500.33 56.0386   4
   0  34   8 1498.78 56.5880   4
  -8  34   0 1521.15 55.5469   4
  -2  34  -8 796.361 33.2742   4
   2  34  -8 820.832 33.7861   4
 -34   8  -2 794.882 32.8945   2
 -34   2   8 816.329 33.3402   2
  -2  34   8 806.912 33.9288   4
  -8  34   2 814.866 32.8080   4
  -8  34  -2 811.066 32.5164   4
 -34   8   2 798.613 33.2971   2
  -4  34  -8 496.055 22.8206   4
   8  34  -4 498.953 24.8937   4
   4  34  -8 491.983 24.2835   4
 -34   8  -4 475.738 22.3251   2
 -34   4   8 481.786 23.4122   2
  -4  34   8 480.382 24.3545   4
  -8  34   4 485.774 22.8208   4
 -34   8   4 472.604 23.7930   2
  -8  34  -4 473.952 22.3026   4
   8  34   4 481.593 24.6980   4
   8  34  -6 1194.51 46.7801   4
   6  34  -8 1171.16 46.6383   4
 -34   6  -8 1177.19 44.2174   2
 -34   8  -6 1174.10 45.0087   2
 -34   6   8 1233.97 46.3478   2
  -8  34   6 1244.30 45.8493   4
  -6  34   8 1190.42 46.1773   4
 -34   8   6 1177.77 46.2519   2
   6  34   8 1192.32 46.7421   4
  -8  34  -6 1223.47 44.8424   4
   8  34   6 1169.20 46.4818   4
  -6  34  -8 1183.77 45.0996   4
   8  34  -8 346.261 21.2905   4
 -34   8  -8 367.929 18.1334   2
 -34   8   8 354.124 21.1518   2
  -8  34   8 361.708 20.3207   4
   8  34   8 353.879 21.1944   4
  10  34   0 94.4702 15.1846   4
   0  34 -10 80.6575 13.8748   4
 -34  10   0 93.3208 13.8570   2
   0  34  10 82.0241 15.4549   4
 -10  34   0 92.0383 12.3114   4
 -34  10   2 555.219 26.4556   2
  -2  34 -10 577.596 25.8013   4
   2  34 -10 586.372 26.7223   4
 -34  10  -2 561.904 26.0614   2
  -2  34  10 558.686 27.2563   4
 -10  34   2 623.932 25.6548   4
 -10  34  -2 549.737 24.7429   4
  10  34   2 566.565 27.3744   4
  -4  34 -10 1040.11 40.2754   4
   4  34 -10 1004.96 41.0074   4
 -34   4  10 1018.78 41.0907   2
 -34  10  -4 1030.65 40.4437   2
 -10  34   4 1053.77 40.2597   4
  10  34   4 1008.28 41.3881   4
  -4  34  10 1092.19 41.4789   4
 -34  10   4 1036.75 41.2657   2
  -6  34 -10-2.57223 10.9008   4
 -34  10   6 0.91293 13.6397   2
   6  34 -10 13.9868 15.0981   4
 -34   6  10 17.1095 13.5417   2
 -10  34   6 11.5372 12.1270   4
  -6  34  10 2.57814 13.3299   4
   6  34  10 5.84042 14.8049   4
 -10  34  -6-0.68855 10.0802   4
  10  34   6-3.09435 14.7516   4
  -8  34 -10 30.7093 10.0268   4
 -34  10   8 24.7820 13.5778   2
 -10  34   8 34.5491 12.4265   4
  10  34  -8 20.4387 14.6715   4
   8  34 -10 21.1614 15.5596   4
 -34   8  10 14.8148 14.3130   2
  -8  34  10 24.9697 13.9718   4
   8  34  10 16.6568 14.4162   4
 -10  34  -8 30.1700 9.78058   4
  10  34   8 17.8785 14.5729   4
  10  34 -10 21.9740 15.3850   4
 -10  34  10-15.0818 13.3728   4
 -34  10  10 9.54567 15.6119   2
  10  34  10 0.89915 14.3549   4
 -10  34 -10 6.82601 9.00883   4
  12  34   0 1001.00 39.7854   4
   0  34 -12 937.515 38.5028   4
 -34  12   0 993.690 39.0441   2
 -12  34   0 957.779 37.4925   4
  12  34  -2 805.830 33.4771   4
  -2  34 -12 767.873 31.7230   4
   2  34 -12 744.169 32.0715   4
 -34  12   2 743.831 32.5380   2
 -12  34   2 753.694 30.6399   4
  -2  34  12 780.846 32.9551   4
 -34  12  -2 736.622 32.1009   2
 -12  34  -2 762.759 30.4516   4
  12  34   2 748.544 33.0237   4
  12  34   4 178.773 17.4302   4
  -4  34  12 204.832 17.7275   4
  -4  34 -12 194.291 15.0942   4
  12  34  -4 200.089 17.6139   4
   4  34 -12 190.613 16.9850   4
 -34  12   4 160.721 17.0226   2
 -12  34  -4 208.998 13.5014   4
   4  34  12 209.544 17.7634   4
 -12  34   4 196.192 14.8374   4
  -6  34 -12 1294.15 49.1314   4
   6  34 -12 1354.95 50.8008   4
 -34   6  12 1397.09 51.2008   2
  -6  34  12 1328.07 50.6101   4
   6  34  12 1289.38 50.8700   4
 -12  34  -6 1298.47 48.4218   4
 -12  34   6 1314.14 49.6817   4
  12  34   6 1337.95 50.6089   4
 -34  12   6 1345.09 51.2458   2
   8  34 -12 742.593 32.9217   4
 -34   8  12 738.472 32.9271   2
 -34  12   8 746.148 33.0385   2
 -12  34   8 727.920 30.9345   4
   8  34  12 713.149 32.7584   4
 -12  34  -8 763.983 29.2275   4
  -8  34  12 727.020 32.1758   4
  12  34   8 774.478 32.4472   4
  -8  34 -12 740.182 29.8211   4
  10  34 -12 6.17475 16.1922   4
 -12  34  10 7.84804 12.0629   4
 -10  34  12 8.20256 13.1853   4
 -34  10  12 0.96773 15.7586   2
  10  34  12 10.8401 15.1554   4
  12  34  10 8.94928 14.4160   4
 -10  34 -12-5.63477 8.87147   4
 -34  12  10 1.46554 15.8221   2
  12  34 -12 187.066 19.3943   4
 -12  34  12 236.359 17.4017   4
 -34  12  12 226.016 19.8559   2
  12  34  12 213.479 17.7671   4
  14  34   0 1339.75 52.5468   4
   0  34 -14 1376.04 51.7560   4
 -14  34   0 1362.37 50.2514   4
 -34  14   0 1425.50 52.7276   2
  -2  34 -14 264.231 17.1970   4
  14  34  -2 231.366 19.4865   4
   2  34 -14 257.718 18.0923   4
 -14  34   2 249.266 14.9213   4
 -14  34  -2 246.850 14.4916   4
  -2  34  14 274.950 19.2574   4
 -34  14   2 248.022 18.5424   2
  14  34   2 273.871 18.9815   4
  -4  34 -14 1093.76 42.5518   4
  14  34  -4 1115.01 44.1544   4
 -34  14   4 1151.69 44.8690   2
   4  34 -14 1101.30 43.8207   4
  -4  34  14 1156.75 44.1563   4
 -14  34   4 1105.25 42.2005   4
 -14  34  -4 1088.43 41.1367   4
   4  34  14 1118.72 44.1196   4
  14  34   4 1106.61 43.7859   4
  -6  34 -14 241.382 15.7579   4
  14  34  -6 276.767 20.0978   4
   6  34 -14 279.023 18.9962   4
 -34  14   6 271.831 20.0506   2
 -14  34   6 282.763 16.8759   4
  -6  34  14 256.442 19.6991   4
   6  34  14 273.289 20.0973   4
  14  34   6 288.972 19.3033   4
  14  34  -8 2482.25 97.9994   4
   8  34 -14 2884.91 98.4505   4
 -34   8  14 2754.40 98.2843   2
 -14  34   8 2685.87 97.0328   4
  -8  34  14 2828.18 98.1381   4
   8  34  14 2759.61 98.2546   4
  14  34   8 2827.04 97.8728   4
 -34  14   8 2825.61 98.5379   2
  -8  34 -14 2723.99 96.1555   4
 -34  14  10 273.729 20.3756   2
  10  34 -14 279.742 21.0218   4
 -10  34  14 277.119 19.0150   4
 -14  34  10 264.466 17.6107   4
  10  34  14 261.534 19.2550   4
 -34  10  14 260.807 20.8373   2
  14  34  10 266.228 19.1373   4
  14  34  12 1144.97 43.9956   4
  12  34 -14 1107.55 45.1384   4
 -12  34  14 1031.00 41.7085   2
 -34  12  14 1168.32 45.1894   2
 -12  34  14 1131.11 43.8044   4
 -14  34  12 1098.50 43.2562   4
 -34  14  12 1123.89 45.4231   2
  34  14 -12 1124.57 42.0742   4
  12  34  14 1157.37 44.1059   4
 -14  34  14 1012.40 41.2585   2
  34  14 -14 1133.33 41.6150   4
 -34  14  14 1125.21 44.7966   2
  14  34  14 1101.29 43.0740   4
  16  34   0 1755.39 65.3694   4
   0  34 -16 1786.95 64.3324   4
 -16  34   0 1740.89 62.8036   4
  16  34  -2 1213.75 48.0838   4
  -2  34 -16 1220.82 46.3043   4
   2  34 -16 1218.83 47.0203   4
 -34  16   2 1260.51 48.3367   2
 -16  34   2 1189.40 45.0966   4
   2  34  16 1200.36 47.8771   4
  16  34   2 1266.95 47.6080   4
  16  34   4 106.708 16.0963   4
  -4  34 -16 112.184 13.0503   4
  16  34  -4 131.288 16.9173   4
   4  34 -16 117.272 15.9704   4
 -16  34   4 117.169 11.9846   4
  -4  34  16 114.337 17.0043   4
 -34  16   4 119.633 16.3092   2
   4  34  16 118.796 17.5944   4
  -6  34 -16 760.128 31.0079   4
 -34  16   6 813.029 34.3279   2
  16  34  -6 757.339 34.1009   4
   6  34 -16 754.726 33.8165   4
 -16  34   6 767.939 31.3436   4
   6  34  16 791.860 33.6009   4
  -6  34  16 802.955 33.8268   4
  16  34   6 769.295 33.4171   4
  16  34  -8 390.497 23.9563   4
   8  34 -16 373.383 23.1731   4
  -8  34  16 432.983 23.0684   4
 -16  34   8 389.434 19.9805   4
   8  34  16 449.665 23.4673   4
  16  34   8 401.619 22.5562   4
 -34  16   8 377.750 23.7115   2
  -8  34 -16 407.173 18.7918   4
 -34  16  10 268.273 21.2769   2
  16  34 -10 226.982 20.0718   4
 -34  10  16 258.211 20.1827   2
  10  34 -16 289.693 20.3388   4
 -10  34  16 254.186 19.4776   4
  34  16 -10 240.931 14.8241   4
  16  34  10 245.222 18.2954   4
  10  34  16 264.692 18.5635   4
 -34  12  16 4491.69 149.925   2
  12  34 -16 4309.86 149.491   4
  34  16 -12 4381.43 147.918   4
  12  34  16 4237.31 148.764   4
 -34  16  12 4342.21 149.887   2
  16  34  12 4331.12 148.797   4
 -12  34  16 4001.17 147.208   2
 -16  34  14 1167.89 45.7858   2
  14  34 -16 1192.79 48.6207   4
 -34  14  16 1246.02 48.9576   2
  14  34  16 1280.66 47.3353   4
  34  16 -14 1256.56 46.1704   4
  16  34  14 1259.14 47.0783   4
 -34  16  14 1226.39 48.3333   2
 -14  34  16 1144.55 45.2753   2
  16  34  16 695.925 28.6343   4
  34  16 -16 660.814 28.4375   4
 -16  34  16 604.213 27.0937   2
  18  34   0 458.822 24.3762   4
   0  34 -18 441.010 22.6632   4
  18  34  -2 439.651 24.1630   4
  -2  34 -18 457.651 22.2877   4
   2  34 -18 469.291 22.8236   4
 -18  34   2 444.300 19.9826   4
   2  34  18 467.887 24.9335   4
 -34  18   2 457.507 25.4839   2
  18  34   2 443.675 24.0177   4
  -4  34 -18 391.092 19.9723   4
  18  34  -4 413.955 23.0727   4
   4  34 -18 426.911 22.7358   4
 -34  18   4 403.441 24.4634   2
  -4  34  18 426.123 24.4027   4
   4  34  18 429.473 24.0155   4
 -18  34   4 417.612 19.2688   4
  18  34   4 398.823 22.6546   4
  -6  34 -18 80.5163 11.2642   4
  18  34  -6 91.1260 16.5068   4
   6  34 -18 86.1296 16.2106   4
  -6  34  18 58.8867 16.4260   4
 -34  18   6 88.0779 17.1016   2
   6  34  18 102.411 16.5248   4
  18  34   6 82.2474 15.0460   4
  18  34  -8 290.576 21.2658   4
 -34  18   8 269.365 21.9689   2
   8  34 -18 294.795 20.7916   4
  -8  34  18 282.037 20.2957   4
  18  34   8 271.511 18.0991   4
   8  34  18 284.694 20.0327   4
  -8  34 -18 279.484 15.0109   4
 -34  18  10 109.078 18.3477   2
  18  34 -10 131.077 18.3853   4
  34  18 -10 123.660 11.9254   4
  10  34 -18 116.940 17.6490   4
  10  34  18 114.015 16.1417   4
  18  34  10 119.895 15.3959   4
  18  34 -12 18.5331 16.7646   4
  12  34 -18 29.4757 16.7691   4
  12  34  18 6.45326 14.0007   4
  34  18 -12 29.3892 11.6778   4
  18  34  12 13.2906 13.0054   4
 -34  18  12 10.7183 17.7520   2
 -18  34  14 516.464 23.4352   2
  18  34 -14 507.626 27.4714   4
  14  34 -18 432.285 26.7173   4
  14  34  18 515.372 24.2980   4
 -14  34  18 457.886 21.4015   2
  18  34  14 506.738 24.0870   4
  34  18 -14 504.102 23.1496   4
  16  34  18 323.495 18.1950   4
  34  18 -16 323.417 18.4706   4
  18  34  16 327.132 18.6541   4
 -16  34  18 296.772 16.8022   2
 -18  34  16 300.427 18.1997   2
  18  34  18 29.6329 12.4197   4
  34  18 -18 10.0919 13.0891   4
 -18  34  18 2.89702 11.1451   2
  20  34   0 2264.30 82.2492   4
   0  34 -20 2279.71 81.8077   4
   0  34  20 2317.18 83.2134   4
  20  34   2 66.5367 15.0848   4
  20  34  -2 61.0288 15.4203   4
  -2  34 -20 76.4370 12.8720   4
   2  34 -20 60.6065 14.4071   4
   2  34  20 58.6303 16.2755   4
  20  34  -4 451.636 25.4954   4
  -4  34 -20 498.221 22.1530   4
   4  34 -20 494.455 24.6308   4
 -34  20   4 451.930 26.0248   2
   4  34  20 519.365 25.5678   4
  20  34   4 478.928 23.9780   4
  -6  34 -20 1.97657 9.56941   4
  20  34  -6 6.57118 16.4026   4
   6  34 -20 10.0946 14.5225   4
   6  34  20 13.3056 15.9772   4
 -34  20   6 3.06255 16.8536   2
  20  34   6-0.84469 13.6475   4
  20  34  -8 25.2115 15.6575   4
  34  20  -8 24.9805 10.0310   4
 -34  20   8 35.7352 18.3770   2
   8  34 -20 20.5969 15.3780   4
   8  34  20 24.7748 14.6935   4
  20  34   8 9.16365 12.5706   4
 -34  20  10 227.706 21.3699   2
  20  34 -10 217.952 19.5678   4
  10  34 -20 204.100 19.6123   4
  34  20 -10 201.523 14.6147   4
  10  34  20 191.039 18.1771   4
  20  34  10 227.412 15.9731   4
  20  34 -12 291.441 22.0205   4
  34  20 -12 292.035 16.7811   4
 -20  34  12 254.334 17.9729   2
  12  34 -20 301.052 21.7135   4
  12  34  20 273.671 18.4851   4
  20  34  12 260.699 17.7960   4
 -20  34  14 390.255 21.4628   2
  20  34 -14 412.627 25.0554   4
  14  34 -20 416.859 24.7188   4
  14  34  20 433.331 21.7874   4
  20  34  14 376.821 20.3974   4
  34  20 -14 404.639 20.7726   4
 -16  34  20 279.169 15.5794   2
  20  34 -16 315.047 22.7384   4
  16  34  20 292.648 17.9892   4
  34  20 -16 325.410 18.6584   4
  20  34  16 308.183 17.3454   4
  16  34 -20 296.917 22.2998   4
 -20  34  16 308.920 18.1794   2
  20  34 -18 128.302 19.3190   4
  34  20 -18 114.465 14.8952   4
  20  34  18 120.842 12.3178   4
 -18  34  20 100.081 11.5488   2
 -34  20  18 120.982 18.7760   2
  34  18 -20 112.870 15.3013   4
 -20  34  18 101.218 13.0789   2
  18  34  20 112.144 12.3841   4
 -20  34  20 319.525 17.2193   2
  20  34  20 315.217 16.8438   4
  34  20 -20 342.429 19.8566   4
  22  34   0 1910.11 71.2200   4
   0  34 -22 1963.29 70.7151   4
   0  34  22 1994.92 72.2061   4
  22  34  -2 263.230 18.9630   4
  -2  34 -22 267.667 16.4287   4
   2  34 -22 253.591 17.5005   4
   2  34  22 261.929 20.7959   4
  -2  22 -34 254.992 15.2865   4
  22  34   2 264.785 18.7941   4
  22  34  -4 38.0785 15.4984   4
  -4  34 -22 15.8938 10.2735   4
   4  34 -22 48.8341 14.7517   4
   4  34  22 49.5036 16.4524   4
 -34  22   4 25.0356 18.0612   2
  22  34   4 22.0016 13.8011   4
  -6  34 -22 1149.48 44.2430   4
  22  34  -6 1173.12 47.2745   4
  34  22  -6 1179.48 44.4470   4
 -34  22   6 1197.01 48.7364   2
   6  34 -22 1278.94 47.5022   4
   6  34  22 1256.98 47.5775   4
  22  34   6 1261.85 46.1841   4
 -34  22   8 1744.03 64.2604   2
  22  34  -8 1653.49 63.1045   4
  34  22  -8 1691.68 60.8772   4
   8  34 -22 1692.63 62.9780   4
   8  34  22 1730.87 63.0190   4
  22  34   8 1631.46 61.8030   4
  22  34 -10 285.447 21.0339   4
  34  22 -10 281.929 16.7449   4
  10  34  22 305.850 19.7768   4
  10  34 -22 295.428 21.1535   4
  22  34  10 291.422 17.2674   4
  22  34 -12 210.713 19.8717   4
  34  22 -12 221.891 15.3762   4
  12  34 -22 216.841 19.8781   4
 -22  34  12 193.167 17.2518   2
  12  34  22 208.517 16.3719   4
  22  34  12 229.818 15.7342   4
 -22  34  14 1293.13 50.2551   2
  22  34 -14 1354.13 51.9190   4
  14  34 -22 1294.42 51.8627   4
  34  22 -14 1398.51 49.7056   4
  14  34  22 1377.88 49.8919   4
  22  34  14 1239.44 48.8345   4
  22  34 -16 891.109 36.3855   4
  16  34 -22 795.965 35.7795   4
 -34  22  16 834.197 36.1812   2
  16  34  22 775.212 32.4005   4
  22  34  16 752.832 31.5786   4
  34  22 -16 836.411 33.2437   4
 -22  34  16 807.631 33.1396   2
  22  34 -18 599.784 29.2501   4
 -34  22  18 623.219 29.5844   2
  22  34  18 541.189 24.2447   4
  34  22 -18 619.005 26.8816   4
 -22  34  18 596.666 26.1373   2
  34  18 -22 599.934 27.4147   4
  34  22 -20 1275.06 46.6001   4
  22  34 -20 1280.48 48.2641   4
 -22  34  20 1201.57 45.5044   2
  22  34  20 1133.93 44.1168   4
  34  20 -22 1291.47 46.9099   4
  22  34 -22 61.5911 17.5392   4
  34  22 -22 63.9512 13.6827   4
  24  34   0 45.1021 13.9162   4
   0  34 -24 57.6411 12.8804   4
   0  24 -34 52.8943 11.5378   4
  24  34   2 83.8219 13.7020   4
  24  34  -2 56.1812 14.0998   4
  -2  34 -24 56.5311 12.0142   4
   2  34 -24 62.8170 13.1898   4
  -2  24 -34 50.0747 10.1071   4
   2  24 -34 48.7223 12.5539   4
  24  34  -4 2594.66 93.0946   4
  -4  34 -24 2457.23 91.2338   4
   4  34 -24 2706.75 92.9978   4
 -34  24   4 2706.84 94.5220   2
  24  34   4 2669.29 92.4732   4
  24  34  -6 1472.67 55.6332   4
  34  24  -6 1421.89 53.1628   4
 -34  24   6 1548.07 57.4262   2
   6  34 -24 1491.99 55.3266   4
  24  34   6 1459.81 54.3982   4
  24  34  -8 16.1776 15.0963   4
  34  24  -8 20.0374 10.6181   4
   8  34 -24 34.7839 15.0344   4
  24  34   8 20.3112 11.9871   4
  24  34 -10 4.53112 15.7098   4
  34  24 -10 14.2950 11.1489   4
  10  34 -24 11.6941 16.3039   4
  24  34  10 33.1385 11.0435   4
 -24  34  10 16.3522 15.4515   2
 -24  34  12 340.114 20.4494   2
  24  34 -12 365.684 22.4719   4
  34  24 -12 370.879 19.0090   4
  12  34 -24 324.126 22.2004   4
  24  34  12 333.838 17.6514   4
 -24  34  14-23.6862 13.9896   2
  24  34 -14 0.89554 16.6703   4
  34  24 -14-2.28445 12.3722   4
  14  34 -24-12.9864 16.8482   4
  24  34  14 0.61167 9.63302   4
 -34  24  14 5.72807 18.0759   2
  24  34 -16 730.742 30.8568   4
  16  34 -24 648.418 31.4566   4
  34  24 -16 692.563 28.7595   4
 -34  24  16 670.303 31.8008   2
  24  34  16 619.758 26.3772   4
 -24  34  16 693.072 28.9833   2
  24  34 -18 1361.12 49.7213   4
 -34  24  18 1311.97 49.7361   2
  18  34 -24 1282.41 49.6906   4
  34  24 -18 1308.61 48.0034   4
  24  34  18 1168.84 45.4459   4
 -24  34  18 1249.52 47.4830   2
  34  18 -24 1329.15 48.6463   4
  24  34 -20 777.349 34.6575   4
 -24  34  20 753.309 31.7586   2
  34  24 -20 827.142 32.9337   4
  34  20 -24 850.483 33.6113   4
  24  34 -22 305.677 20.7362   4
  34  24 -22 302.357 18.1413   4
  34  22 -24 287.234 18.2093   4
  24  34 -24 166.103 16.7516   4
  34  24 -24 183.412 14.6577   4
   0  34 -26 2411.18 86.1853   4
   0  26 -34 2359.10 85.7153   4
  26  34   0 2563.20 86.8644   4
  -2  34 -26 1348.12 49.7069   4
   2  34 -26 1356.99 50.7647   4
  -2  26 -34 1267.62 49.0044   4
  26  34   2 1421.08 50.6730   4
   2  26 -34 1367.94 50.3094   4
  26  34  -2 1410.90 51.1540   4
  34  26  -4 890.433 34.3192   4
  26  34  -4 910.530 36.7621   4
  -4  34 -26 852.006 34.2336   4
   4  34 -26 946.822 36.8146   4
 -34  26   4 1001.65 39.3730   2
   4  26 -34 907.348 36.2875   4
  26  34   4 918.231 35.8861   4
  26  34  -6 519.450 24.5171   4
  34  26  -6 495.219 22.0083   4
   6  34 -26 506.006 24.9741   4
   6  26 -34 516.336 24.5281   4
  26  34   6 512.114 22.8584   4
   8  26 -34 11.8492 14.0669   4
  26  34  -8 11.0641 15.0418   4
  34  26  -8-0.99686 10.2683   4
   8  34 -26-2.13716 14.8385   4
  26  34   8 4.66741 10.5286   4
 -26  34   8-13.3435 16.4113   2
  26  34 -10 14.5584 15.5261   4
  34  26 -10 19.4259 11.2666   4
  10  34 -26 31.8309 15.7024   4
 -26  34  10 19.1526 14.9246   2
  26  34  10 24.3351 10.0606   4
  10  26 -34 12.4845 14.9765   4
  26  34  12 613.373 26.3373   4
 -26  34  12 684.355 30.0201   2
  26  34 -12 669.442 30.3332   4
  34  26 -12 691.494 28.0608   4
  12  34 -26 664.005 30.2466   4
 -34  26  12 684.794 32.0152   2
  12  26 -34 712.788 30.7120   4
 -26  34  14 28.4255 14.1241   2
  26  34 -14 50.8883 15.5347   4
  34  26 -14 38.7663 12.3194   4
  14  34 -26 22.9891 16.4708   4
  26  34  14 34.3439 8.22386   4
  14  26 -34 25.8889 16.5755   4
 -34  26  14 25.4508 16.1551   2
  26  34 -16 708.211 31.1888   4
  34  26 -16 706.530 29.4903   4
  16  34 -26 664.703 31.1087   4
 -34  26  16 769.666 32.1471   2
 -26  34  16 690.817 29.8428   2
  16  26 -34 650.868 31.4420   4
  34  18 -26 43.1815 14.3622   4
  26  34 -18 43.5312 15.5899   4
  34  26 -18 24.9337 12.7494   4
 -34  26  18 43.9595 16.5473   2
  18  34 -26 31.7288 15.7392   4
  18  26 -34 39.8165 16.5522   4
 -26  34  18 28.5200 12.3640   2
 -26  34  20 211.914 14.8623   2
  26  34 -20 224.521 18.8046   4
  34  26 -20 236.905 15.5967   4
  20  26 -34 228.140 19.1341   4
  34  20 -26 191.913 16.5377   4
  26  34 -22 155.305 16.7134   4
  34  26 -22 158.577 14.2356   4
  34  22 -26 163.482 14.8848   4
  26  34 -24 894.751 36.5637   4
  24  34 -26 898.171 36.6163   4
  34  26 -24 885.390 35.4096   4
  34  24 -26 953.838 35.7226   4
  26  24 -34 923.684 36.8003   4
  26  34 -26 1121.09 42.6317   4
  34  26 -26 1118.57 41.7821   4
  26  26 -34 1126.22 42.8468   4
   0  34 -28 3922.63 137.869   4
   0  28 -34 3879.86 137.584   4
  28  34   0 4198.49 138.396   4
  -2  34 -28 500.148 21.9487   4
   2  34 -28 529.381 23.5858   4
   2  28 -34 478.778 22.9151   4
  28  34   2 521.232 22.9888   4
 -34  28   2 536.889 28.1569   2
  28  34  -2 545.692 24.1093   4
  34  28  -4 68.7741 9.68205   4
  28  34  -4 71.5853 13.6996   4
   4  34 -28 70.2834 13.3259   4
  28  34   4 93.6193 11.6811   4
   4  28 -34 77.8391 13.1074   4
  34  28  -6 903.901 33.9999   4
  28  34  -6 908.013 35.8013   4
   6  34 -28 878.183 35.7134   4
  28  34   6 838.367 33.7735   4
   6  28 -34 896.364 35.3528   4
  28  34  -8 787.486 32.6275   4
  34  28  -8 797.780 30.8067   4
   8  34 -28 820.109 32.8744   4
 -28  34   8 742.242 34.1114   2
   8  28 -34 753.248 32.4313   4
  28  34   8 760.687 30.1254   4
  34  28 -10 212.216 13.9921   4
 -34  28  10 219.482 19.7228   2
  28  34 -10 166.721 16.5856   4
  10  34 -28 197.999 17.5021   4
 -28  34  10 191.892 17.9107   2
  28  34  10 180.965 11.6893   4
  10  28 -34 153.710 16.4694   4
  12  28 -34 331.792 20.6439   4
  28  34 -12 356.769 20.0222   4
  34  28 -12 360.306 18.2455   4
  12  34 -28 349.774 20.9546   4
 -34  28  12 326.828 21.1514   2
 -28  34  12 322.947 20.6651   2
  28  34 -14 1452.81 53.2809   4
  34  28 -14 1394.20 52.1743   4
  14  34 -28 1409.16 53.4891   4
 -34  28  14 1408.23 54.1301   2
  14  28 -34 1430.49 53.5323   4
 -28  34  14 1409.64 52.9694   2
  28  34 -16 111.453 15.3721   4
  34  28 -16 124.509 13.4476   4
  16  34 -28 137.079 16.4482   4
 -34  28  16 142.433 16.4106   2
  16  28 -34 123.765 15.9382   4
 -28  34  16 109.647 14.1008   2
  34  18 -28 459.055 22.7370   4
  28  34 -18 476.751 23.0683   4
  34  28 -18 434.397 21.4076   4
 -34  28  18 470.119 23.4795   2
 -28  34  18 429.241 21.5381   2
  18  34 -28 452.523 23.8352   4
  18  28 -34 457.063 23.4062   4
  28  34 -20 220.109 16.7630   4
  34  28 -20 215.017 15.2381   4
  20  34 -28 216.136 17.3061   4
  20  28 -34 198.996 17.3799   4
  34  20 -28 198.230 16.2903   4
  28  34 -22 74.2894 13.6767   4
  34  28 -22 75.1485 12.1694   4
  34  22 -28 101.566 13.0544   4
  22  28 -34 97.6544 14.9840   4
  28  22 -34 67.4262 14.0380   4
  28  34 -24 579.436 25.2174   4
  34  28 -24 590.700 24.4356   4
  34  24 -28 566.016 24.4533   4
  28  24 -34 574.543 25.7658   4
  28  34 -26 419.371 20.3899   4
  26  34 -28 465.287 20.4644   4
  34  28 -26 421.867 19.4299   4
  34  26 -28 436.934 19.6583   4
  28  26 -34 457.352 20.6735   4
  34  28 -28 167.828 10.9171   4
  28  34 -28 149.045 11.9803   4
  28  28 -34 164.868 12.1759   4
   0  34 -30 3.82000 9.36282   4
   0  30 -34 13.8377 9.25894   4
  30  34   0 4.03847 10.0526   4
   2  34 -30 26.7159 10.7736   4
   2  30 -34 15.3458 10.2394   4
  30  34   2 24.5618 9.70586   4
  30  34  -2 18.2825 10.8395   4
   4  34 -30 279.503 17.1866   4
   4  30 -34 285.682 16.7568   4
  30  34   4 300.857 15.2139   4
  34  30  -4 286.581 14.8938   4
  30  34  -4 306.579 17.1193   4
  34  30  -6 82.9881 10.4055   4
  30  34  -6 95.2891 12.6299   4
   6  34 -30 90.2830 13.1958   4
   6  30 -34 91.9095 12.9563   4
  30  34   6 80.0889 9.45248   4
 -30  34   6 84.4327 16.4400   2
  34  30  -8 241.397 14.2548   4
  30  34  -8 262.840 16.3893   4
 -34  30   8 231.959 19.7544   2
   8  34 -30 225.639 16.9090   4
 -30  34   8 239.599 19.4586   2
   8  30 -34 209.638 16.1127   4
 -34  30  10 109.175 17.4240   2
  30  34 -10 110.898 13.1938   4
  34  30 -10 113.385 11.9377   4
 -30  34  10 112.364 16.0298   2
  10  34 -30 123.610 14.9669   4
  10  30 -34 116.088 14.5993   4
  30  34 -12 373.262 20.0745   4
  34  30 -12 393.686 18.8934   4
  12  34 -30 377.755 21.1046   4
 -34  30  12 366.542 21.8482   2
 -30  34  12 380.485 21.7112   2
  12  30 -34 393.176 20.7122   4
  30  34 -14 229.282 16.2088   4
  34  30 -14 235.941 14.9099   4
  14  34 -30 209.169 17.5059   4
 -34  30  14 221.094 18.2575   2
  14  30 -34 250.136 17.3687   4
 -30  34  14 214.893 16.5917   2
  30  34 -16 192.939 15.3967   4
  34  30 -16 205.507 14.2969   4
  16  34 -30 193.483 16.9780   4
  16  30 -34 204.847 16.8434   4
 -30  34  16 223.178 15.6964   2
 -34  30  16 198.128 17.2914   2
  30  34 -18 50.1177 12.4676   4
  34  30 -18 29.0674 10.7541   4
 -34  30  18 30.3063 13.4046   2
 -30  34  18 49.2565 11.6246   2
  18  34 -30 28.9534 13.8253   4
  18  30 -34 24.6727 13.4732   4
  34  18 -30 20.1300 12.8393   4
  30  20 -34 46.0423 13.3615   4
  30  34 -20 56.8505 12.0930   4
  34  30 -20 40.8720 11.0699   4
  20  34 -30 48.2713 13.3776   4
  20  30 -34 42.7661 13.3178   4
  34  20 -30 24.1789 11.8371   4
  30  34 -22 829.094 32.7298   4
  34  30 -22 836.179 32.0116   4
  22  30 -34 822.256 33.0376   4
  34  22 -30 863.672 32.6139   4
  30  22 -34 825.688 33.3813   4
  30  34 -24 562.423 23.5973   4
  34  30 -24 540.573 22.9346   4
  34  24 -30 602.532 23.3942   4
  30  24 -34 550.767 24.1275   4
  30  34 -26 176.438 11.7296   4
  34  30 -26 172.060 10.7237   4
  26  34 -30 162.537 12.3056   4
  34  26 -30 171.419 11.2657   4
  30  26 -34 162.293 11.8875   4
  30  34 -28 189.653 10.7335   4
  34  30 -28 169.856 9.88199   4
  28  34 -30 199.419 11.0286   4
  34  28 -30 164.252 10.1398   4
  28  30 -34 197.619 11.3379   4
  30  28 -34 191.412 10.9705   4
  30  34 -30 21.8982 5.45352   4
  34  30 -30 23.1468 4.82097   4
  30  30 -34 16.9749 6.16056   4
   0  34 -32 13.6778 8.02210   4
  32  34   0 3.81858 8.37984   4
   2  34 -32 270.561 15.2302   4
   2  32 -34 305.448 15.0909   4
 -32  34   2 326.798 21.4161   2
  32  34   2 279.918 14.0308   4
  32  34  -2 295.294 15.0742   4
   4  34 -32 182.209 13.4293   4
   4  32 -34 186.507 13.1819   4
 -32  34   4 169.084 17.3728   2
  34  32  -4 185.337 11.5644   4
  32  34  -4 174.565 12.6222   4
  34  32  -6 18.0496 8.67247   4
  32  34  -6 31.8860 10.2469   4
   6  34 -32 27.6697 11.1733   4
 -34  32   6 27.3546 16.0918   2
   6  32 -34 59.4775 11.7742   4
 -32  34   6 29.1249 15.6286   2
   8  34 -32 357.344 19.1211   4
   8  32 -34 353.420 18.9082   4
 -34  32   8 368.864 22.0685   2
 -32  34   8 387.598 21.8609   2
  34  32  -8 353.951 17.3156   4
  32  34  -8 382.861 18.1909   4
 -34  32  10 103.780 15.8342   2
  34  32 -10 93.2456 10.9161   4
  32  34 -10 111.400 12.1574   4
 -32  34  10 115.639 15.6561   2
  10  34 -32 90.8376 13.0574   4
  10  32 -34 90.9479 12.6022   4
  34  32 -12-2.23166 9.99079   4
  32  34 -12-1.81560 10.9538   4
  12  34 -32-12.5839 12.3449   4
  12  32 -34 5.23815 11.9036   4
 -34  32  12-0.36726 14.2720   2
 -32  34  12-3.57235 13.5188   2
  32  34 -14 83.0717 11.8864   4
  34  32 -14 82.1290 10.7658   4
  14  34 -32 62.0822 12.9821   4
  14  32 -34 82.1361 13.4795   4
 -34  32  14 62.6556 14.1214   2
 -32  34  14 76.1465 13.5803   2
  32  34 -16 589.602 24.0064   4
  34  32 -16 536.313 23.4706   4
 -34  32  16 563.995 24.9754   2
  16  34 -32 580.963 25.3301   4
 -32  34  16 544.759 24.4233   2
  16  32 -34 560.586 24.5777   4
  32  34 -18 111.078 11.7343   4
  34  32 -18 103.805 11.3603   4
  18  34 -32 129.251 13.5679   4
  18  32 -34 111.393 13.2422   4
  34  18 -32 116.469 12.9019   4
  32  18 -34 132.153 13.7941   4
  32  20 -34 77.9897 12.2435   4
  32  34 -20 57.2616 10.6299   4
  34  32 -20 74.4264 10.1027   4
  20  34 -32 98.9977 12.4060   4
  20  32 -34 72.8225 11.3943   4
  34  20 -32 65.8294 11.2090   4
  32  34 -22 354.136 16.2634   4
  34  32 -22 318.001 15.8994   4
  22  34 -32 352.275 17.4246   4
  22  32 -34 342.499 17.4706   4
  32  22 -34 357.860 17.1734   4
  34  22 -32 345.778 16.7705   4
  32  34 -24 358.432 15.8353   4
  34  32 -24 338.705 15.3194   4
  34  24 -32 368.617 16.0955   4
  32  24 -34 366.174 16.5691   4
  32  34 -26 174.676 9.57458   4
  34  32 -26 155.571 9.24650   4
  34  26 -32 161.826 9.78324   4
  32  26 -34 204.809 10.5313   4
  32  34 -28 83.8545 6.12434   4
  28  34 -32 91.1235 6.84942   4
  34  28 -32 70.6107 5.81514   4
  28  32 -34 87.4431 6.77857   4
  32  28 -34 93.8531 6.48118   4
   2  34 -34 80.9154 8.34268   4
   4  34 -34 27.0561 8.75732   4
 -34  34   4 36.8563 14.7994   2
  34  34  -4 29.7609 7.92074   4
   6  34 -34 1067.39 40.2103   4
  34  34  -6 1055.66 39.3237   4
 -34  34   6 1196.25 42.8561   2
  34  34  -8 106.661 10.2230   4
 -34  34   8 131.238 15.1543   2
   8  34 -34 98.6304 11.4655   4
  34  34 -10 44.0738 8.79202   4
  10  34 -34 10.0010 10.7098   4
 -34  34  10 39.4018 13.0477   2
  12  34 -34 1105.66 40.4174   4
 -34  34  12 1099.45 41.2161   2
  34  34 -12 1040.53 39.1771   4
  34  34 -14 1042.60 38.6269   4
  14  34 -34 1071.93 39.5836   4
 -34  34  14 1063.38 40.1992   2
  34  34 -16 250.184 13.3411   4
 -34  34  16 236.068 14.6816   2
  16  34 -34 248.097 14.9895   4
  34  16 -34 235.479 15.1590   4
  34  34 -18 1075.86 40.9038   4
  18  34 -34 1192.63 41.9682   4
  34  18 -34 1169.13 41.9444   4
  34  34 -20 479.523 20.7562   4
  20  34 -34 559.785 22.2156   4
  34  20 -34 572.337 21.9490   4
  34  34 -22 86.2958 7.50135   4
  22  34 -34 115.440 9.66854   4
  34  22 -34 99.1668 8.92938   4
  34  34 -24 52.1487 5.70787   4
  24  34 -34 78.3262 7.90093   4
  34  24 -34 72.9544 6.98322   4
  -1  35  -1-3.78389 13.3509   4
   1  35  -1 9.89206 14.4112   4
 -35   1   1-6.70586 9.83546   2
 -35   1  -1 7.34240 9.49010   2
  -1  35   1 4.63012 13.3704   4
   1  35   1-2.57399 13.4641   4
 -35   1   3 680.795 27.9735   2
 -35   3   1 675.796 28.0408   2
 -35   3  -1 649.214 27.5181   2
  -1  35   3 660.033 29.6627   4
  -3  35   1 702.957 29.3003   4
   1  35   3 685.275 30.0009   4
  -3  35  -1 680.242 29.3039   4
   3  35   1 594.107 29.5484   4
  -1  35  -3 672.766 29.4764   4
   3  35  -1 679.045 29.8262   4
   1  35  -3 680.272 29.3895   4
  -3  35  -3 9.38995 12.7822   4
   3  35  -3 5.66380 13.7301   4
  -3  35   3 2.95811 12.8860   4
 -35   3  -3 1.02418 9.43567   2
   3  35   3 11.3502 14.8313   4
   5  35   1 34.7411 15.4049   4
 -35   5  -1 14.1149 10.9864   2
  -1  35  -5 22.4045 12.3736   4
   5  35  -1 24.7444 14.4970   4
   1  35  -5 34.1957 13.8687   4
 -35   1   5 36.0446 11.8706   2
  -1  35   5 20.0065 14.1843   4
  -5  35   1 22.4950 12.6660   4
   1  35   5 24.1688 14.2560   4
  -5  35  -1 29.7501 12.0125   4
 -35   5   1 32.3782 11.9126   2
   5  35  -3 221.145 18.1655   4
   3  35  -5 209.477 17.6544   4
 -35   5   3 236.044 15.9383   2
 -35   3   5 231.260 15.8059   2
 -35   5  -3 233.599 14.7096   2
  -3  35   5 219.455 17.1604   4
  -5  35   3 231.316 16.9678   4
  -5  35  -3 220.489 15.7332   4
   3  35   5 225.012 18.2800   4
  -3  35  -5 223.666 16.2787   4
   5  35  -5 2.22973 14.1395   4
 -35   5  -5-3.49486 9.37794   2
 -35   5   5 5.87687 12.3118   2
  -5  35   5-3.39213 13.0816   4
  -5  35  -5-8.61393 12.4827   4
  -1  35  -7 343.140 19.7463   4
   1  35  -7 335.182 19.8834   4
  -1  35   7 324.184 20.5058   4
  -7  35   1 357.315 19.3820   4
   1  35   7 333.813 20.8410   4
  -7  35  -1 342.648 18.9149   4
 -35   7   1 334.996 19.1162   2
 -35   7  -1 359.069 18.7950   2
   7  35  -3 2607.94 91.9670   4
   3  35  -7 2594.18 91.7371   4
 -35   3   7 2584.14 91.2569   2
 -35   7   3 2574.12 91.4163   2
  -3  35   7 2633.13 91.7549   4
  -7  35   3 2619.89 91.4238   4
  -7  35  -3 2422.68 90.7536   4
  -3  35  -7 2545.71 91.1590   4
 -35   7  -3 2561.03 90.8157   2
 -35   7  -5 1239.83 47.4619   2
   7  35  -5 1236.90 49.3940   4
   5  35  -7 1325.69 49.2619   4
 -35   5   7 1223.36 48.1966   2
 -35   7   5 1308.10 48.7592   2
  -5  35   7 1347.10 49.2291   4
  -7  35   5 1273.83 48.7011   4
  -7  35  -5 1277.18 47.7108   4
  -5  35  -7 1252.71 47.9597   4
   7  35  -7 0.45757 14.8142   4
 -35   7  -7 13.0834 9.94641   2
  -7  35   7 18.2586 13.6264   4
 -35   7   7 4.47865 13.5641   2
   7  35   7-2.27074 15.0908   4
  -7  35  -7 13.3468 11.0171   4
  -1  35  -9 307.398 19.3612   4
 -35   9  -1 325.884 18.9994   2
   1  35  -9 334.949 19.5058   4
  -1  35   9 325.749 20.5576   4
  -9  35   1 329.112 18.2658   4
  -9  35  -1 317.364 18.2399   4
   1  35   9 300.731 20.4740   4
 -35   9   1 318.380 18.9612   2
   9  35   3 1.36547 15.0501   4
  -3  35  -9 0.80279 12.1585   4
   3  35  -9 5.29228 13.6510   4
 -35   9   3-13.6525 12.6659   2
 -35   3   9 10.4115 12.5273   2
  -9  35   3 17.6063 11.9653   4
 -35   9  -3 7.02696 11.6919   2
  -3  35   9 25.8320 14.4298   4
  -9  35  -3-5.59083 10.7515   4
   5  35  -9 556.642 26.0446   4
 -35   9  -5 542.934 24.5436   2
 -35   5   9 528.388 25.7289   2
  -9  35   5 556.852 24.9076   4
  -5  35   9 493.997 25.7374   4
 -35   9   5 550.299 26.1697   2
  -9  35  -5 514.966 23.4439   4
   9  35   5 562.078 26.7002   4
  -5  35  -9 549.881 24.3743   4
 -35   7  -9 238.998 14.7386   2
   9  35  -7 267.830 19.6087   4
   7  35  -9 263.234 19.8776   4
 -35   9  -7 262.581 15.8085   2
 -35   7   9 246.919 17.6555   2
 -35   9   7 274.821 18.2391   2
  -9  35   7 261.418 17.6816   4
  -7  35   9 256.746 17.9718   4
  -9  35  -7 269.000 15.6491   4
   9  35   7 284.901 19.3001   4
   7  35   9 236.188 19.1795   4
  -7  35  -9 252.865 15.5166   4
   9  35  -9 5.17076 15.2072   4
  -9  35   9 8.01497 13.0320   4
 -35   9   9 0.47173 15.0214   2
 -35   9  -9-0.37536 10.6662   2
   9  35   9 8.69216 14.7522   4
  -9  35  -9 5.87868 10.0412   4
  11  35   1 86.9914 16.2678   4
  -1  35  11 91.9253 16.4689   4
  11  35  -1 98.4366 15.7924   4
  -1  35 -11 96.1863 14.1128   4
   1  35 -11 109.336 15.3461   4
 -35  11   1 116.507 15.2034   2
 -35  11  -1 92.6473 14.3237   2
 -11  35  -1 115.331 12.5848   4
 -11  35   1 106.583 13.0686   4
  11  35   3 149.710 17.4229   4
  -3  35  11 158.937 17.0632   4
  -3  35 -11 152.456 14.4512   4
   3  35 -11 133.004 15.6981   4
 -35  11   3 115.607 15.8594   2
 -11  35   3 146.331 13.8638   4
 -35  11  -3 102.965 14.7757   2
 -11  35  -3 130.518 12.5954   4
  -5  35 -11 172.018 14.5619   4
 -35  11   5 176.919 16.2075   2
   5  35 -11 159.843 17.2471   4
 -35   5  11 160.594 15.9978   2
 -11  35   5 161.106 14.0347   4
  -5  35  11 155.834 16.6060   4
   5  35  11 190.803 18.0001   4
 -11  35  -5 177.929 13.2396   4
 -35  11  -5 152.784 15.3254   2
  11  35   5 170.295 16.8083   4
  -7  35 -11-7.97367 10.2620   4
 -35  11   7 7.62861 14.4142   2
   7  35 -11-6.50117 15.2824   4
 -35   7  11 35.2845 14.7905   2
  -7  35  11 4.37456 14.0537   4
 -11  35   7 18.5828 12.0773   4
   7  35  11 10.1426 15.7265   4
 -11  35  -7 12.0485 9.90297   4
  11  35   7 3.18077 14.5105   4
   9  35 -11 2.36204 15.8473   4
 -11  35   9 3.74258 13.0072   4
   9  35  11-1.83728 14.6486   4
  -9  35  11 22.0773 14.0211   4
 -35   9  11-14.3655 15.3681   2
 -35   9 -11 0.35792 9.72363   2
 -11  35  -9 9.36317 9.26894   4
  11  35   9 9.56715 15.0768   4
 -35  11   9 4.35337 15.7082   2
  -9  35 -11 5.68556 9.95637   4
  11  35 -11 0.95648 16.0998   4
 -11  35  11-4.69355 13.2834   4
 -35  11  11 2.94164 15.4838   2
  11  35  11 6.38424 15.6813   4
 -11  35 -11 10.5110 8.79542   4
  13  35   1 57.7741 15.6916   4
  13  35  -1 45.5662 16.0785   4
  -1  35 -13 57.0245 12.7528   4
   1  35 -13 61.9854 14.5496   4
 -13  35  -1 68.6791 11.0788   4
 -35  13   1 56.6329 13.8317   2
 -13  35   1 52.3502 10.9382   4
  -1  35  13 75.2674 16.3085   4
 -35  13  -1 75.1155 14.0806   2
  -3  35 -13 535.261 24.9254   4
 -35  13   3 539.121 26.6958   2
  13  35  -3 534.741 27.3438   4
   3  35 -13 512.325 26.0841   4
 -13  35   3 543.726 24.2587   4
  -3  35  13 536.853 26.9405   4
 -13  35  -3 549.892 23.4111   4
 -35  13  -3 560.454 26.4213   2
  13  35   3 568.862 26.8840   4
 -13  35  -5 5.82183 9.62346   4
  -5  35 -13 13.1689 10.9841   4
  13  35  -5 25.4727 16.1160   4
   5  35 -13 14.6110 15.0220   4
 -35  13   5 9.12269 14.9903   2
   5  35  13 22.7534 15.1245   4
  -5  35  13 6.31987 15.4514   4
 -13  35   5 19.4443 11.2856   4
  13  35   5 4.52212 14.7250   4
  -7  35 -13 30.4885 10.9077   4
 -35  13   7 38.9128 16.0677   2
   7  35 -13 29.3279 15.2411   4
 -35   7  13 29.7901 15.1545   2
 -13  35   7 20.1519 12.2970   4
  -7  35  13 25.5745 14.7634   4
   7  35  13 30.6507 15.9953   4
 -13  35  -7 28.7514 9.30266   4
  13  35   7 36.2005 15.2523   4
   9  35 -13 226.896 18.9336   4
 -35   9  13 205.096 18.0190   2
 -13  35   9 219.514 16.2470   4
  -9  35  13 203.671 18.0021   4
   9  35  13 202.550 18.8509   4
  13  35   9 184.354 17.6464   4
  -9  35 -13 176.195 13.1363   4
 -35  13   9 213.024 19.2692   2
  11  35 -13 126.355 17.4727   4
 -13  35  11 107.768 14.2983   4
 -11  35  13 125.256 16.1615   4
 -35  11  13 121.044 17.9523   2
  11  35  13 109.655 15.7433   4
  13  35  11 108.961 16.5435   4
 -11  35  13 124.275 11.5930   2
 -35  13  11 101.518 18.0051   2
 -13  35  13-8.77566 10.3617   2
  13  35 -13-5.34462 17.1995   4
 -35  13  13 8.52629 17.0748   2
 -13  35  13 2.96819 13.1870   4
  13  35  13-0.89371 14.1726   4
  35  13 -13 2.80263 9.75880   4
  15  35   1 22.4679 15.1856   4
  15  35  -1 9.78449 15.8823   4
  -1  35 -15 5.77309 12.8090   4
   1  35 -15 7.75290 13.0721   4
 -15  35   1 29.4244 10.2313   4
 -15  35  -1 16.7927 9.42622   4
 -35  15   1 9.14843 14.2707   2
 -35  15  -1-0.47557 14.3300   2
  -3  35  15 107.177 16.5262   4
  15  35   3 107.063 16.7346   4
  -3  35 -15 100.846 13.0287   4
  15  35  -3 73.7142 16.1654   4
   3  35 -15 75.6711 14.4377   4
 -15  35  -3 96.1265 10.3918   4
 -15  35   3 86.7197 11.7936   4
 -35  15   3 98.5558 17.1888   2
   3  35  15 89.3568 17.0905   4
  -5  35 -15 144.451 13.3595   4
  15  35  -5 177.217 17.9914   4
   5  35 -15 153.189 16.5633   4
 -35  15   5 161.142 17.9116   2
 -15  35   5 152.071 13.6593   4
  -5  35  15 157.195 17.5646   4
   5  35  15 144.503 17.8705   4
  15  35   5 122.728 15.9849   4
  -7  35 -15 25.7652 10.4739   4
 -35  15   7 18.3136 15.7643   2
  15  35  -7-2.87285 16.9243   4
   7  35 -15 10.7340 15.7959   4
 -15  35   7 35.8518 11.5276   4
  -7  35  15 5.94666 15.7630   4
   7  35  15 10.6114 15.5023   4
  15  35   7 22.8495 14.0192   4
 -35  15   9 36.6579 16.0099   2
  15  35  -9 25.1071 16.4665   4
   9  35 -15 23.8453 16.1704   4
 -35   9  15 24.3682 16.6236   2
 -15  35   9 50.4791 12.5734   4
  -9  35  15 35.8266 15.6124   4
   9  35  15 24.1933 15.1541   4
  15  35   9 24.0711 14.5585   4
  -9  35 -15 21.3937 8.78316   4
  11  35 -15 17.9115 17.0974   4
 -35  11  15-4.00783 16.5814   2
 -11  35  15 14.1516 14.6133   4
  11  35  15 16.1624 15.5610   4
  15  35  11 9.70772 14.5069   4
 -35  15  11 1.51518 17.3969   2
  13  35 -15 39.2032 17.0082   4
 -35  13  15 54.6092 17.1414   2
 -13  35  15 52.1843 10.3463   2
  13  35  15 53.4686 14.2473   4
  35  15 -13 48.1585 10.9605   4
 -35  15  13 38.9532 17.2228   2
  15  35  13 35.6920 14.2945   4
 -15  35  13 56.2540 12.1882   2
 -15  35  15-5.07970 10.7554   2
 -35  15  15 1.51479 18.1828   2
  15  35  15-6.77693 13.4667   4
  35  15 -15 2.65975 11.5626   4
  17  35  -1 604.945 28.4608   4
  -1  35 -17 559.463 26.7115   4
   1  35 -17 613.629 26.8949   4
 -35  17   1 652.625 28.9308   2
 -17  35   1 579.396 24.4463   4
  17  35   1 587.451 28.5320   4
  17  35   3 15.4154 14.7530   4
  17  35  -3-17.2993 16.1021   4
  -3  35 -17 11.2072 11.5311   4
   3  35 -17-15.9223 13.8464   4
 -17  35   3 3.98501 9.72578   4
  -3  35  17 2.81847 16.1735   4
   3  35  17 11.1735 15.3283   4
 -35  17   3-18.9137 16.3268   2
  -5  35 -17 554.116 24.5718   4
 -35  17   5 607.016 28.5098   2
  17  35  -5 542.847 28.1778   4
   5  35 -17 550.173 27.0457   4
  -5  35  17 604.566 28.3970   4
   5  35  17 533.382 27.3034   4
 -17  35   5 525.874 24.1347   4
  17  35   5 581.929 26.9862   4
  -7  35 -17 156.352 12.5177   4
  17  35  -7 133.984 18.2176   4
 -35  17   7 155.515 18.9892   2
   7  35 -17 157.847 18.1168   4
  -7  35  17 149.524 18.1180   4
   7  35  17 149.408 17.9974   4
  17  35   7 156.686 16.0672   4
  17  35   9 353.633 21.8025   4
  17  35  -9 387.843 24.2257   4
   9  35 -17 417.356 24.1458   4
  -9  35  17 399.065 23.1476   4
   9  35  17 416.186 22.7956   4
 -35  17   9 397.155 24.0052   2
  17  35 -11 22.2246 16.0726   4
  11  35 -17 31.8443 17.7854   4
  35  17 -11 36.9733 9.96788   4
  11  35  17 27.7492 14.9900   4
  17  35  11 32.9997 13.9301   4
 -35  17  11 46.2734 17.9207   2
  17  35 -13 551.926 28.9264   4
 -35  13  17 587.624 29.1837   2
 -17  35  13 542.336 25.8992   2
  13  35 -17 566.543 29.2867   4
  35  17 -13 614.594 25.2040   4
  17  35  13 599.745 26.7108   4
  13  35  17 565.465 27.1437   4
 -35  17  13 606.863 28.9573   2
  15  35 -17 251.392 22.4106   4
 -35  15  17 261.980 22.4884   2
  15  35  17 271.706 18.6309   4
  35  17 -15 282.142 17.0727   4
  17  35  15 298.316 18.5949   4
 -35  17  15 309.128 22.1414   2
 -15  35  17 286.145 15.9961   2
 -17  35  15 306.875 16.9231   2
 -17  35  17 2.81500 10.7891   2
  17  35  17 5.02415 12.2200   4
  35  17 -17-3.16451 11.9166   4
  19  35  -1 354.071 21.8215   4
  -1  35 -19 322.813 19.4507   4
   1  35 -19 352.457 20.1306   4
   1  35  19 382.301 23.1102   4
 -35  19   1 317.122 22.4910   2
  19  35   1 360.339 21.1303   4
  19  35   3 136.019 16.4984   4
  19  35  -3 114.728 17.3863   4
  -3  35 -19 133.272 13.3826   4
   3  35 -19 126.884 15.9941   4
   3  35  19 121.443 18.0556   4
 -35  19   3 111.294 18.5045   2
  -5  35 -19 347.355 18.4600   4
  19  35  -5 375.221 22.9934   4
 -35  19   5 432.214 24.4570   2
   5  35 -19 363.235 21.7270   4
  -5  35  19 367.146 23.3549   4
   5  35  19 379.000 22.9693   4
  19  35   5 355.537 21.3193   4
  -7  35 -19 15.6140 9.21638   4
  19  35  -7 8.05452 15.4622   4
 -35  19   7 15.2022 17.9336   2
   7  35 -19 20.0449 15.3574   4
   7  35  19 0.91114 15.4528   4
  19  35   7 5.57672 14.0450   4
 -35  19   9 48.5208 17.8133   2
  19  35  -9 38.2290 16.8545   4
   9  35 -19 52.8118 16.2762   4
   9  35  19 50.7173 14.8219   4
  19  35   9 51.3304 13.6740   4
 -35  19  11 83.1541 18.0412   2
  19  35 -11 83.7468 18.2871   4
  11  35 -19 95.0652 17.8284   4
  35  19 -11 106.618 11.6640   4
  11  35  19 85.5781 15.1194   4
  19  35  11 125.143 14.1126   4
  19  35 -13 37.7574 17.1415   4
  13  35 -19 40.9757 17.2835   4
  35  19 -13 35.6140 11.3253   4
 -19  35  13 43.4836 13.3454   2
  19  35  13 24.9974 12.8663   4
 -35  19  13 22.1643 18.0626   2
  13  35  19 27.5129 14.2026   4
 -19  35  15 30.5390 11.7352   2
  19  35 -15 29.0247 17.9572   4
  15  35 -19 21.8199 17.5626   4
  15  35  19 44.8100 12.6467   4
  35  19 -15 34.3426 11.9161   4
  19  35  15 26.5288 12.0358   4
  19  35  17 86.8728 12.1319   4
  35  19 -17 76.9809 13.1126   4
 -17  35  19 68.2283 10.5337   2
  17  35  19 99.0641 13.5453   4
  35  17 -19 78.3335 14.0357   4
 -19  35  17 79.8593 12.3942   2
 -19  35  19 9.19815 10.2360   2
  35  19 -19 19.2484 12.4921   4
  19  35  19-2.36649 11.0832   4
  21  35  -1 380.939 21.1524   4
  -1  35 -21 312.365 18.9544   4
   1  35 -21 352.097 20.1963   4
   1  35  21 356.197 22.6319   4
 -35  21   1 346.495 23.1645   2
  21  35   1 368.896 20.5855   4
  21  35  -3 348.005 21.7012   4
  -3  35 -21 333.838 18.0474   4
   3  35 -21 329.682 20.1552   4
 -35  21   3 367.317 23.3942   2
   3  35  21 366.897 22.1899   4
  21  35   3 348.466 20.7234   4
  -5  35 -21 250.766 14.8128   4
  21  35  -5 256.299 19.9511   4
   5  35 -21 242.490 18.8077   4
   5  35  21 231.656 20.1503   4
 -35  21   5 243.880 21.5489   2
  21  35   5 242.741 17.8774   4
  21  35  -7 311.253 21.1638   4
   7  35 -21 290.555 20.5540   4
 -35  21   7 275.102 22.2166   2
   7  35  21 303.096 21.0222   4
  21  35   7 279.665 18.2508   4
 -35  21   9 68.1543 18.9325   2
  21  35  -9 43.9741 17.3087   4
  35  21  -9 63.0727 10.3704   4
   9  35 -21 59.5685 16.0888   4
   9  35  21 63.9077 15.8597   4
  21  35   9 68.2632 13.7181   4
  21  35 -11 10.3132 15.9577   4
  11  35 -21 24.1706 16.8910   4
  35  21 -11 27.7906 10.7640   4
  11  35  21 30.8170 14.9819   4
  21  35  11 10.8303 12.3473   4
 -21  35  11 17.7899 13.8630   2
 -21  35  13 1043.42 42.4063   2
  21  35 -13 1127.05 44.2355   4
  13  35 -21 1096.30 43.8752   4
  35  21 -13 1134.06 41.4140   4
  13  35  21 1036.72 42.3121   4
  21  35  13 1093.14 41.7089   4
 -21  35  15 21.0077 12.8916   2
  21  35 -15 27.6598 17.4667   4
  21  35  15 22.8363 11.5999   4
  15  35 -21 9.68870 16.7505   4
  35  21 -15 7.73431 11.7394   4
  15  35  21 20.8508 12.3255   4
  21  35 -17 271.457 21.9120   4
  17  35 -21 309.904 22.2903   4
  17  35  21 291.032 17.2434   4
  21  35  17 317.649 16.3928   4
 -21  35  17 254.883 17.1171   2
  35  17 -21 290.243 18.4615   4
  35  21 -17 316.837 17.8041   4
  21  35 -19 5.33861 17.7193   4
 -19  35  21-1.45911 8.88900   2
  19  35  21-0.92989 10.2111   4
  21  35  19 0.59908 9.56979   4
  35  21 -19 9.83275 12.2269   4
 -21  35  19-13.8986 10.4987   2
  35  19 -21 4.30398 13.2355   4
 -21  35  21 8.26993 9.29575   2
  35  21 -21-17.5262 12.7623   4
  23  35   1 13.9117 13.8854   4
  23  35  -1 41.4068 15.2042   4
  -1  23 -35 29.1326 10.4004   4
  -1  35 -23 36.0708 11.7394   4
   1  35 -23 14.2355 12.9622   4
   1  23 -35 32.7393 11.7049   4
 -35  23   1 34.0028 17.7183   2
  23  35  -3 95.6275 14.9707   4
  -3  35 -23 75.8343 11.5132   4
   3  35 -23 86.1636 14.1820   4
   3  35  23 85.9830 17.3790   4
 -35  23   3 94.8932 18.6817   2
  23  35   3 85.8571 14.7764   4
  -5  35 -23 133.939 11.3775   4
  23  35  -5 144.535 16.9815   4
   5  35 -23 150.131 15.8288   4
   5  35  23 130.653 17.8300   4
 -35  23   5 154.535 19.5093   2
  23  35   5 143.368 14.9036   4
  23  35  -7 106.917 16.8384   4
  35  23  -7 111.785 10.8155   4
   7  35 -23 127.838 16.4868   4
 -35  23   7 85.3598 18.5372   2
   7  35  23 100.823 16.1410   4
  23  35   7 103.700 13.1411   4
  23  35  -9 132.820 16.8424   4
  35  23  -9 139.050 12.0598   4
   9  35 -23 149.891 17.6231   4
   9  35  23 154.441 16.4616   4
  23  35   9 138.987 13.4380   4
  23  35 -11 8.60204 16.4264   4
  11  35 -23 10.7908 16.0907   4
  11  35  23 3.63068 14.0301   4
 -23  35  11 30.2789 14.0261   2
  23  35  11 2.48724 11.4863   4
  23  35 -13 50.3144 16.9912   4
  35  23 -13 44.1470 11.7528   4
  13  35 -23 52.9255 16.8950   4
 -23  35  13 53.2593 12.9434   2
  13  35  23 58.5187 13.3192   4
  23  35  13 62.0454 11.3457   4
 -23  35  15 55.1551 13.6098   2
  23  35 -15 83.1021 17.1891   4
  15  35 -23 58.0988 17.4199   4
  35  23 -15 70.4436 12.3763   4
  23  35  15 51.6318 10.3123   4
 -35  23  15 61.0069 16.1001   2
  17  35 -23 332.220 22.1098   4
 -35  23  17 351.208 22.8289   2
  23  35 -17 345.265 22.0053   4
  35  23 -17 345.059 18.6083   4
  23  35  17 270.784 15.7173   4
 -23  35  17 312.638 18.1407   2
  35  17 -23 346.421 19.6246   4
  23  35 -19 24.3817 16.1289   4
  23  35  19 19.3211 8.11635   4
  35  23 -19 11.8107 12.0538   4
 -23  35  19 19.3591 10.9428   2
  35  19 -23 30.2886 13.3438   4
  23  35 -21 256.522 19.3598   4
  35  23 -21 240.881 16.3857   4
  35  21 -23 218.327 16.3556   4
  23  35 -23 2.65166 15.4348   4
  35  23 -23-6.68991 11.9914   4
  25  35   1 99.4764 14.2248   4
  25  35  -1 77.0771 13.4826   4
  -1  35 -25 51.8677 11.8516   4
   1  35 -25 70.0218 12.9658   4
  -1  25 -35 69.1718 10.5489   4
   1  25 -35 81.1537 11.9446   4
 -35  25   1 77.5562 18.1734   2
  25  35  -3 7.83376 14.2331   4
   3  25 -35-9.85657 12.2319   4
  -3  35 -25-10.0969 9.82604   4
   3  35 -25 3.14156 13.0102   4
 -35  25   3 10.8213 17.7885   2
  25  35   3-7.98023 12.3155   4
  25  35  -5 95.3968 14.7369   4
   5  35 -25 62.7824 14.3096   4
 -35  25   5 74.0064 18.6421   2
   5  25 -35 87.3866 14.0815   4
  25  35   5 62.1561 12.8479   4
  25  35  -7-2.98204 14.4892   4
  35  25  -7 22.1198 9.23351   4
   7  35 -25 6.77009 14.4183   4
   7  25 -35 12.8182 13.3861   4
  25  35   7 7.07744 11.4309   4
  25  35  -9 16.2925 14.8679   4
  35  25  -9 6.65396 9.87302   4
   9  35 -25 30.3769 15.1444   4
  25  35   9 23.5790 11.1200   4
 -25  35   9 14.1670 14.9339   2
   9  25 -35 16.4770 14.3407   4
  25  35 -11 477.572 24.5469   4
 -25  35  11 476.902 23.7665   2
  35  25 -11 448.672 20.7069   4
  25  35  11 425.246 20.3351   4
  25  35 -13 14.4837 15.6330   4
 -25  35  13 11.6778 13.4423   2
  35  25 -13 7.17319 10.8088   4
  13  35 -25-19.6402 16.2136   4
  25  35  13 10.3192 9.28834   4
 -35  25  13-4.59628 17.7710   2
 -25  35  15 15.6093 12.6192   2
  25  35 -15-2.92880 15.5427   4
  35  25 -15 10.8366 11.6822   4
  15  35 -25 18.9265 16.2149   4
  25  35  15 19.2457 8.36656   4
 -35  25  15 22.1093 17.5540   2
  35  25 -17 246.280 15.7814   4
  25  35 -17 239.062 18.8036   4
  17  35 -25 191.835 19.1457   4
 -25  35  17 222.672 15.6280   2
 -35  25  17 254.496 19.3550   2
  35  17 -25 235.272 16.7586   4
  17  25 -35 228.387 19.4441   4
  25  35 -19 23.4126 15.5955   4
  19  35 -25 38.7259 16.1712   4
  35  25 -19 35.1086 12.2930   4
 -25  35  19 24.2164 11.1537   2
  35  19 -25 3.67311 12.9926   4
  19  25 -35 34.2428 15.8306   4
  25  35 -21 29.5708 14.7719   4
  21  25 -35 55.0011 15.5065   4
  35  25 -21 39.6827 12.3901   4
  35  21 -25 49.6106 12.6712   4
  25  35 -23-3.46616 13.3679   4
  35  25 -23 1.23816 11.4751   4
  35  23 -25 7.53301 11.7677   4
  25  35 -25 1.89909 13.1030   4
  35  25 -25 4.57451 10.5804   4
  27  35  -1 14.2124 12.4192   4
  -1  35 -27 6.65157 10.0831   4
   1  35 -27 25.2417 11.4220   4
  -1  27 -35 14.0374 9.11607   4
   1  27 -35 15.0671 10.2297   4
 -35  27   1 16.1396 17.7750   2
  27  35   1 2.50904 11.7591   4
  -3  35 -27 258.316 14.4028   4
   3  35 -27 288.071 16.8714   4
   3  27 -35 291.544 16.5459   4
 -35  27   3 300.015 22.2260   2
  27  35   3 270.861 16.4501   4
  27  35  -3 252.658 17.6237   4
  27  35  -5 22.6691 13.1138   4
   5  35 -27 22.2585 13.3499   4
   5  27 -35 16.3301 12.5593   4
  27  35   5 19.9060 10.6751   4
  35  27  -7 378.626 17.5563   4
  27  35  -7 384.157 20.8345   4
   7  35 -27 379.142 21.0814   4
 -27  35   7 334.469 22.4889   2
   7  27 -35 364.960 19.5991   4
  27  35   7 369.353 18.1751   4
  27  35  -9 301.952 18.5044   4
  35  27  -9 267.700 15.2865   4
   9  35 -27 286.049 18.7201   4
   9  27 -35 277.459 17.8522   4
 -27  35   9 267.366 19.3660   2
  27  35   9 261.909 14.9626   4
 -27  35  11 622.296 28.7089   2
 -35  27  11 627.592 30.2564   2
  27  35 -11 645.681 28.4094   4
  35  27 -11 638.528 25.9310   4
  11  35 -27 642.055 28.2774   4
  27  35  11 599.895 24.7649   4
  11  27 -35 617.850 28.0492   4
 -27  35  13 172.271 15.5763   2
  27  35 -13 140.279 16.1967   4
  35  27 -13 187.937 13.3980   4
 -35  27  13 144.930 18.3903   2
  13  35 -27 176.634 17.4435   4
  13  27 -35 157.466 16.6252   4
  27  35 -15 1.54528 14.6631   4
  35  27 -15 1.61236 10.9740   4
  15  35 -27 1.96065 15.0667   4
 -35  27  15 8.65209 15.9253   2
  15  27 -35 32.7969 14.6907   4
 -27  35  15 13.8459 12.6366   2
  35  27 -17 286.657 15.9980   4
  27  35 -17 252.161 18.1691   4
 -27  35  17 237.938 16.1890   2
  17  35 -27 252.648 19.2617   4
 -35  27  17 258.001 19.4124   2
  17  27 -35 220.309 18.2940   4
  35  17 -27 249.732 17.4552   4
  27  35 -19 139.193 15.3436   4
  35  27 -19 110.582 12.4666   4
  19  35 -27 115.941 15.9599   4
 -27  35  19 102.933 12.1459   2
  19  27 -35 122.948 15.9619   4
  35  19 -27 108.484 13.7501   4
  27  35 -21 14.8039 13.4485   4
  35  27 -21 34.2535 11.0214   4
  35  21 -27 45.6110 11.8138   4
  21  27 -35 21.1781 14.2387   4
  27  35 -23 24.3075 12.9110   4
  35  27 -23 16.4696 10.4945   4
  35  23 -27 13.4588 10.7298   4
  27  23 -35 8.30742 12.9053   4
  27  25 -35 14.4075 12.2140   4
  27  35 -25 33.0239 11.7747   4
  25  35 -27-0.85193 11.7790   4
  35  27 -25 39.5285 9.80029   4
  35  25 -27 17.9988 10.1506   4
  27  35 -27 14.9292 10.1675   4
  35  27 -27 4.17234 8.67340   4
  27  27 -35 4.59226 10.4843   4
  -1  35 -29 29.1663 9.13948   4
   1  35 -29 13.3159 10.2115   4
   1  29 -35 40.2954 9.82309   4
 -35  29   1 49.2019 16.5951   2
  29  35   1 35.5489 10.9809   4
  29  35  -1 24.3608 10.9622   4
  29  35  -3-8.94631 11.8779   4
   3  35 -29 10.3289 11.0600   4
   3  29 -35 4.76248 10.2711   4
  29  35   3-1.20686 9.86033   4
  35  29  -5 85.3206 9.31215   4
  29  35  -5 88.3407 13.1427   4
   5  35 -29 82.9511 13.2088   4
   5  29 -35 81.4132 12.5871   4
  29  35   5 96.5878 10.5455   4
 -29  35   5 82.3254 16.6641   2
  35  29  -7 358.050 17.0985   4
  29  35  -7 387.154 20.0677   4
 -29  35   7 358.478 22.0547   2
   7  35 -29 388.190 20.1687   4
   7  29 -35 374.412 19.6278   4
  29  35   7 381.106 16.9815   4
 -35  29   9 15.3710 16.9976   2
  35  29  -9 19.7874 9.74692   4
  29  35  -9 11.1739 12.3441   4
   9  35 -29 13.7183 12.8425   4
   9  29 -35 15.5289 12.8198   4
 -29  35   9 15.0715 14.2081   2
  35  29 -11 205.922 13.6861   4
  29  35 -11 202.291 15.6537   4
 -29  35  11 223.134 17.4990   2
  11  35 -29 237.098 17.0371   4
  11  29 -35 228.771 16.0105   4
 -35  29  11 214.722 18.8504   2
  29  35 -13 626.666 26.4490   4
  35  29 -13 573.237 24.7145   4
  13  35 -29 617.422 26.8174   4
 -35  29  13 601.226 27.7799   2
  13  29 -35 598.089 26.8306   4
 -29  35  13 588.020 27.0464   2
  29  35 -15 17.9627 12.9035   4
  35  29 -15 11.4339 10.3777   4
  15  35 -29 25.4600 13.3076   4
 -35  29  15 13.5840 14.4930   2
  15  29 -35 29.8504 13.8795   4
 -29  35  15 27.9709 12.5955   2
  29  35 -17 79.8604 13.5910   4
  35  29 -17 48.6116 10.8543   4
  17  35 -29 51.5970 14.5227   4
 -35  29  17 63.9030 14.3758   2
 -29  35  17 59.7369 12.0001   2
  17  29 -35 59.8861 13.9587   4
  35  17 -29 66.2852 12.9297   4
  29  35 -19 21.8756 12.1097   4
  35  29 -19 23.9942 10.4322   4
  19  35 -29 29.3466 12.9900   4
  19  29 -35 16.7294 12.4642   4
  35  19 -29 23.7907 11.4610   4
  29  35 -21-11.2225 11.7101   4
  35  29 -21 4.40546 9.84856   4
  21  35 -29-3.68807 12.3143   4
  21  29 -35 6.12050 12.5632   4
  35  21 -29 4.00138 10.9702   4
  29  21 -35 2.25906 13.3570   4
  29  35 -23 147.072 12.9331   4
  35  29 -23 152.357 11.5403   4
  35  23 -29 146.947 11.9253   4
  23  29 -35 160.615 13.6790   4
  29  23 -35 161.514 13.9616   4
  29  35 -25 15.6487 9.41776   4
  35  29 -25 19.2564 7.99172   4
  29  25 -35 5.55429 10.2585   4
  29  35 -27 52.3029 8.74009   4
  27  35 -29 51.1697 9.08800   4
  35  29 -27 41.4794 7.12575   4
  35  27 -29 47.6127 7.39505   4
  27  29 -35 63.7613 9.31723   4
  29  35 -29-3.51493 6.62464   4
  35  29 -29-4.80874 4.94301   4
  29  29 -35-0.35123 6.62077   4
   1  35 -31 24.7598 9.33945   4
   1  31 -35 20.5567 8.56167   4
 -35  31  -1 25.5716 16.6368   2
  31  35   1 31.8383 9.06830   4
  31  35  -1 40.1404 9.69504   4
   3  35 -31 66.3036 10.7095   4
   3  31 -35 46.8689 10.2122   4
  31  35   3 72.1628 8.58003   4
 -31  35   3 60.3258 16.3015   2
  31  35  -3 54.8212 10.3560   4
  31  35  -5 41.4944 10.7336   4
   5  35 -31 28.7613 10.9130   4
   5  31 -35 51.2217 10.8351   4
 -31  35   5 49.3135 15.8331   2
  35  31  -5 40.8874 7.85603   4
  35  31  -7 38.7948 8.75548   4
  31  35  -7 19.1464 10.9372   4
 -35  31   7 19.2505 15.4354   2
   7  35 -31 47.2618 11.8402   4
   7  31 -35 19.2525 11.4656   4
 -31  35   7 20.8554 15.2462   2
 -35  31   9 27.0875 15.4828   2
  35  31  -9 14.2035 8.57422   4
  31  35  -9 10.2488 10.8484   4
 -31  35   9 23.6687 14.5876   2
   9  35 -31 16.1454 11.8087   4
   9  31 -35 10.3312 11.1334   4
 -31  35  11 194.257 16.2514   2
  35  31 -11 164.331 12.0794   4
  31  35 -11 203.588 14.3028   4
  11  35 -31 179.332 14.7870   4
  11  31 -35 175.029 14.5806   4
 -35  31  11 215.057 18.0070   2
  31  35 -13 180.010 13.6500   4
  35  31 -13 158.082 11.8870   4
  13  35 -31 182.369 15.0165   4
  13  31 -35 155.856 14.4509   4
 -35  31  13 176.310 16.2823   2
 -31  35  13 167.663 14.5847   2
  31  35 -15-1.48912 11.0022   4
  35  31 -15 11.0812 9.27340   4
  15  35 -31 9.93724 12.6214   4
 -35  31  15 17.1878 13.3609   2
  15  31 -35 6.26370 12.4505   4
 -31  35  15 10.5872 11.5288   2
  31  35 -17 2.56902 10.6118   4
  35  31 -17 0.50021 9.15043   4
  17  35 -31 7.99693 12.0364   4
 -31  35  17 9.34997 10.3727   2
  17  31 -35 9.95532 11.6889   4
  35  17 -31 7.29841 11.2420   4
  31  35 -19 0.53791 10.2893   4
  35  31 -19-11.3203 8.70225   4
  19  35 -31-3.16229 12.0665   4
  19  31 -35 5.72601 11.6160   4
  35  19 -31 0.55386 10.6499   4
  31  19 -35-8.55927 12.5751   4
  31  35 -21 34.3510 9.87704   4
  35  31 -21 11.4944 8.51209   4
  21  35 -31 24.8508 11.1153   4
  35  21 -31 25.5176 9.86516   4
  31  21 -35 29.4559 11.1917   4
  21  31 -35 11.4499 11.0442   4
  31  35 -23 31.2192 8.93393   4
  35  31 -23 16.1890 7.30827   4
  23  31 -35 8.91257 9.98682   4
  31  23 -35 20.8205 9.69931   4
  35  23 -31 21.8379 8.50526   4
  31  35 -25-0.19030 7.47919   4
  35  31 -25-0.32547 6.10595   4
  35  25 -31 15.8096 6.75792   4
  31  25 -35 3.92361 8.16732   4
  31  35 -27 47.1669 6.44458   4
  35  31 -27 38.6650 5.07323   4
  27  35 -31 31.6156 6.62350   4
  35  27 -31 46.5811 5.42562   4
  31  27 -35 47.1495 7.07036   4
  29  35 -31-2.28947 4.26660   4
  29  31 -35-0.12544 4.44165   4
  31  29 -35 3.58481 4.30201   4
   1  35 -33 247.260 12.3665   4
 -33  35   1 287.531 19.1468   2
  33  35  -1 234.881 12.2807   4
   3  35 -33 196.083 12.0690   4
   3  33 -35 199.864 11.8351   4
 -33  35   3 220.246 18.0717   2
  33  35  -3 228.021 12.0025   4
 -35  33  -3 216.820 18.0641   2
   5  35 -33 61.3080 10.0450   4
 -35  33   5 68.2974 15.3628   2
   5  33 -35 52.9817 9.39874   4
 -33  35   5 50.1273 15.0140   2
  33  35  -5 52.6105 8.87748   4
   7  35 -33 391.540 18.3981   4
   7  33 -35 376.632 18.2226   4
 -35  33   7 429.756 21.2608   2
 -33  35   7 436.817 21.0948   2
  35  33  -7 350.921 16.3920   4
  33  35  -7 399.201 17.5957   4
  35  33  -9 18.1180 7.92507   4
  33  35  -9 6.60007 9.17760   4
 -33  35   9 12.3590 13.5865   2
   9  35 -33 32.9203 10.3565   4
   9  33 -35 16.1078 10.3256   4
 -35  33   9 10.1544 13.8787   2
  35  33 -11-3.81398 8.02182   4
  33  35 -11 13.3887 9.48368   4
  11  35 -33 8.51679 10.5644   4
  11  33 -35 2.27409 10.4790   4
 -35  33  11-3.66354 13.0345   2
 -33  35  11-0.65005 12.3184   2
  35  33 -13 7.76382 7.63164   4
  33  35 -13-1.98363 9.14980   4
  13  35 -33 9.27846 10.6565   4
  13  33 -35 17.4280 11.0896   4
 -35  33  13 11.2284 11.5624   2
 -33  35  13 5.13703 11.4818   2
  35  33 -15 55.5894 8.39621   4
  33  35 -15 61.3601 9.68072   4
  15  35 -33 65.1836 11.3546   4
  15  33 -35 57.0887 11.2904   4
 -35  33  15 55.9567 11.9091   2
 -33  35  15 62.4496 11.4503   2
  35  15 -33 55.7431 11.1950   4
  35  33 -17 75.1812 8.51814   4
  33  35 -17 83.6429 9.57439   4
  17  35 -33 96.8514 11.5042   4
  17  33 -35 69.8645 11.3263   4
  35  17 -33 80.0359 10.9946   4
  33  17 -35 116.115 12.0367   4
  35  33 -19 70.9245 7.92205   4
  33  35 -19 112.750 9.40800   4
  19  35 -33 93.6354 10.5890   4
  19  33 -35 88.8962 11.0420   4
  35  19 -33 106.158 10.5226   4
  33  19 -35 90.7967 10.9649   4
  35  33 -21 165.193 10.0693   4
  33  35 -21 203.929 11.0416   4
  21  35 -33 234.117 12.6836   4
  21  33 -35 224.378 12.6114   4
  35  21 -33 198.220 11.7542   4
  33  21 -35 227.753 12.2407   4
  35  33 -23 95.4837 6.95934   4
  33  35 -23 108.169 7.73874   4
  23  35 -33 131.166 9.21168   4
  23  33 -35 118.363 9.19445   4
  35  23 -33 112.682 8.28124   4
 -35  33 -23 76.8202 6.02606   2
  33  23 -35 107.966 8.74779   4
  33  35 -25 38.4131 5.04227   4
  35  25 -33 39.4454 5.16025   4
  33  25 -35 50.7094 6.34419   4
  27  35 -33 6.49861 4.35219   4
 -35  35   3-8.32533 12.7020   2
 -35  35   5-10.0688 13.1925   2
   5  35 -35 2.00632 6.83469   4
 -35  35  -5-14.1652 13.2801   2
 -35  35   7 7.90261 12.4208   2
   7  35 -35 6.13426 7.90260   4
  35  35  -7-1.19936 6.01030   4
   9  35 -35 12.8043 8.66297   4
 -35  35   9 5.44040 11.9550   2
  35  35  -9 7.43473 6.16461   4
  11  35 -35 10.4296 8.76576   4
 -35  35  11 13.0224 11.3891   2
  35  35 -11-3.21683 6.55452   4
  13  35 -35 9.85183 8.65897   4
 -35  35  13-11.5467 10.5730   2
  35  35 -13-2.83460 6.13303   4
  35  35 -15-2.87515 6.25385   4
  15  35 -35 4.64774 8.64848   4
  35  15 -35-13.3961 9.26255   4
  35  35 -17 6.70539 5.73071   4
  17  35 -35-1.88132 8.11216   4
  35  17 -35 11.5367 8.32802   4
  35  35 -19-1.91737 4.86612   4
  19  35 -35 1.33912 7.48997   4
  35  19 -35 8.31548 6.91593   4
  21  35 -35 4.22450 6.42147   4
  35  21 -35 6.02792 5.74630   4
 -35  35 -21 4.86387 4.80036   2
  23  35 -35-3.34723 5.31733   4
   0  36   0 5772.61 199.213   4
   2  36   0 214.081 17.8693   4
   0  36  -2 208.473 17.7127   4
 -36   2   0 238.854 14.0417   2
   0  36   2 223.640 17.7546   4
  -2  36   0 214.930 16.6685   4
 -36   2   2 1022.50 38.5698   2
 -36   2  -2 990.903 37.6534   2
  -2  36   2 939.125 39.9603   4
   2  36   2 975.329 40.1876   4
  -2  36  -2 1023.35 39.4057   4
   2  36  -2 1001.18 40.0034   4
 -36   4   0 602.012 25.7655   2
  -4  36   0 580.961 27.1239   4
   0  36   4 575.133 27.7710   4
   4  36   0 626.472 28.2640   4
   0  36  -4 609.340 27.2276   4
 -36   2   4 805.761 32.4943   2
 -36   4   2 789.833 32.3893   2
 -36   4  -2 833.251 31.9897   2
  -2  36   4 791.486 33.6748   4
  -4  36   2 767.991 33.4879   4
   2  36   4 793.048 34.3388   4
  -4  36  -2 805.690 33.3062   4
   4  36   2 801.927 34.2785   4
  -2  36  -4 754.909 33.3528   4
   4  36  -2 822.857 34.3963   4
   2  36  -4 806.536 33.7621   4
   4  36  -4 274.574 19.0783   4
 -36   4   4 252.658 17.1730   2
 -36   4  -4 254.760 15.0144   2
  -4  36   4 273.254 18.1902   4
  -4  36  -4 277.874 17.2880   4
   4  36   4 292.636 19.6442   4
   6  36   0-1.82912 15.0690   4
   0  36  -6 0.42921 13.5341   4
   0  36   6 4.05473 14.7578   4
  -6  36   0 6.97822 12.5537   4
 -36   6   0 6.85562 11.7008   2
   6  36  -2 1386.75 52.1281   4
   2  36  -6 1357.66 51.7611   4
 -36   2   6 1304.23 50.7379   2
 -36   6   2 1382.38 50.9934   2
 -36   6  -2 1346.55 50.4385   2
  -2  36   6 1395.85 51.8981   4
   2  36   6 1355.81 52.1057   4
  -6  36  -2 1354.35 50.8559   4
  -6  36   2 1303.05 50.9901   4
  -2  36  -6 1365.98 51.0787   4
   6  36  -4 1487.34 56.7840   4
   4  36  -6 1566.73 56.8947   4
 -36   4   6 1504.14 56.2127   2
 -36   6   4 1454.45 56.1441   2
  -4  36   6 1491.38 56.6115   4
  -6  36   4 1561.02 56.3563   4
 -36   6  -4 1517.54 55.2003   2
  -6  36  -4 1536.59 55.5653   4
  -4  36  -6 1440.69 55.8234   4
   6  36  -6 49.5683 15.7706   4
 -36   6  -6 25.5435 9.99603   2
 -36   6   6 29.4431 13.2741   2
  -6  36   6 22.9662 13.8236   4
  -6  36  -6 25.6319 11.7436   4
   0  36  -8 2941.53 103.542   4
   0  36   8 2935.39 103.826   4
  -8  36   0 2872.58 102.926   4
 -36   8   0 2942.67 103.241   2
   2  36  -8 1338.06 52.8070   4
  -2  36   8 1509.60 53.3291   4
  -8  36   2 1397.73 52.2079   4
 -36   8   2 1377.65 52.4562   2
   2  36   8 1399.48 53.1905   4
  -8  36  -2 1388.43 51.7781   4
 -36   8  -2 1369.86 51.9557   2
  -2  36  -8 1352.04 52.1330   4
   8  36  -4 806.705 35.5250   4
   4  36  -8 842.242 35.3084   4
 -36   4   8 796.901 34.3109   2
  -4  36   8 850.214 35.5051   4
 -36   8   4 841.110 34.6428   2
  -8  36   4 864.098 34.4864   4
  -8  36  -4 859.530 33.7752   4
  -4  36  -8 827.447 33.9703   4
 -36   8  -4 837.483 33.5509   2
 -36   8  -6 1233.06 46.5845   2
   8  36  -6 1258.95 48.5634   4
   6  36  -8 1222.66 48.5506   4
 -36   6   8 1248.45 48.1240   2
 -36   8   6 1308.67 47.9317   2
  -8  36   6 1194.66 47.5610   4
  -8  36  -6 1217.98 46.4388   4
   8  36   6 1234.97 48.6363   4
  -6  36  -8 1231.05 46.7252   4
  -6  36   8 1241.92 47.8968   4
 -36   8  -8 615.417 26.4660   2
   8  36  -8 662.153 30.3466   4
 -36   8   8 657.157 29.4425   2
  -8  36   8 666.490 28.6652   4
   8  36   8 670.358 29.9568   4
  -8  36  -8 602.689 26.7920   4
   0  36 -10 657.311 29.4031   4
   0  36  10 674.317 31.0003   4
 -10  36   0 681.377 28.8292   4
 -36  10   0 672.135 29.4775   2
  10  36   2 26.9764 14.7928   4
  -2  36 -10 25.2757 12.7475   4
   2  36 -10 41.1444 14.5992   4
 -36  10   2 36.8148 13.9303   2
 -36  10  -2 28.5334 13.2490   2
 -10  36   2 45.7358 12.6469   4
  -2  36  10 17.8511 14.6998   4
 -10  36  -2 25.1605 11.4256   4
  -4  36 -10 19.0488 12.5364   4
 -36  10   4 22.1315 14.4185   2
   4  36 -10 7.70375 15.1113   4
 -36  10  -4 15.1388 12.5639   2
 -10  36   4 6.82945 11.5051   4
  -4  36  10 15.3354 15.0241   4
 -10  36  -4 0.36572 10.9062   4
  10  36   4 30.3474 15.3073   4
  -6  36 -10 80.9104 12.1561   4
   6  36 -10 64.7654 16.2494   4
   6  36  10 77.5195 16.7390   4
 -36   6  10 80.5575 14.8068   2
 -10  36   6 65.1432 12.9498   4
  -6  36  10 83.8877 15.2664   4
 -10  36  -6 67.4304 11.3850   4
 -36  10  -6 87.1062 12.5402   2
  10  36   6 88.1712 16.9352   4
 -36  10   6 84.1837 15.2629   2
  10  36  -8 126.302 17.1550   4
   8  36 -10 114.505 17.7893   4
 -36   8  10 128.285 16.5648   2
 -10  36   8 103.727 14.7875   4
  -8  36  10 115.113 16.3680   4
 -36  10  -8 119.592 13.2161   2
 -36  10   8 160.923 17.7655   2
   8  36  10 131.114 16.9537   4
 -10  36  -8 130.341 12.1351   4
  10  36   8 141.638 16.8359   4
  -8  36 -10 118.186 12.2352   4
  10  36 -10 356.532 22.2319   4
 -36  10 -10 385.227 18.6264   2
 -36  10  10 385.199 22.3754   2
 -10  36  10 361.292 21.1716   4
  10  36  10 382.061 21.9689   4
 -10  36 -10 338.826 17.8645   4
   0  36 -12 561.778 26.2351   4
 -36  12   0 535.471 26.7555   2
 -12  36   0 596.422 24.7252   4
   0  36  12 540.208 27.3027   4
  12  36   0 576.746 28.2349   4
  12  36   2 76.5127 16.2172   4
  12  36  -2 30.6533 16.0062   4
  -2  36 -12 47.0886 13.0751   4
   2  36 -12 37.5304 14.4930   4
 -36  12   2 45.6669 15.1858   2
 -36  12  -2 50.3549 13.7954   2
  -2  36  12 74.6381 16.6022   4
 -12  36  -2 65.8439 11.0287   4
 -12  36   2 71.5422 11.9448   4
  -4  36 -12 2341.17 86.2524   4
   4  36 -12 2506.56 87.4654   4
 -36  12  -4 2436.57 86.9245   2
 -12  36   4 2457.57 86.3548   4
  -4  36  12 2465.25 87.5233   4
   4  36  12 2288.80 87.4706   4
 -12  36  -4 2370.60 85.5847   4
 -36  12   4 2460.82 87.4813   2
  12  36   4 2577.98 87.8291   4
  -6  36 -12 81.8936 12.1939   4
 -36  12   6 102.684 15.5265   2
   6  36 -12 78.9141 16.3185   4
 -12  36   6 73.0293 12.9534   4
  -6  36  12 95.5523 15.8887   4
   6  36  12 59.1010 16.8218   4
 -12  36  -6 79.8614 10.8630   4
 -36  12  -6 69.8504 13.8385   2
  12  36   6 63.8808 15.9580   4
   8  36 -12 70.3891 16.8834   4
 -36   8  12 53.6905 15.7250   2
 -12  36   8 50.3580 12.6243   4
  -8  36  12 71.3835 15.6295   4
   8  36  12 60.6854 15.7867   4
 -12  36  -8 58.8960 9.64340   4
 -36  12  -8 65.9537 13.1773   2
  12  36   8 45.0658 15.9516   4
 -36  12   8 55.7883 16.7891   2
  -8  36 -12 69.7058 11.2842   4
 -10  36  12 22.7725 13.8820   4
  10  36 -12 16.2729 15.7358   4
 -12  36  10 11.2921 13.0328   4
 -36  10  12 3.93899 16.1740   2
 -36  10 -12 8.46389 9.85051   2
  10  36  12 3.23529 16.0246   4
 -36  12  10 15.3061 16.6342   2
  12  36  10 4.11418 15.5632   4
 -10  36 -12 13.3047 9.19515   4
 -36  12  12 127.982 17.3556   2
  12  36 -12 103.244 16.8861   4
 -12  36  12 112.323 15.3929   4
  12  36  12 111.796 16.4942   4
  14  36   0 179.158 18.0798   4
   0  36 -14 175.370 16.1394   4
 -36  14   0 189.619 17.4025   2
 -14  36   0 166.349 12.9340   4
  14  36   2 1.39616 15.2948   4
  14  36  -2 30.6934 16.4824   4
  -2  36 -14 0.81308 12.9114   4
   2  36 -14 17.5840 13.0576   4
 -36  14   2 11.0564 15.2299   2
 -14  36   2 29.2444 10.6725   4
  -2  36  14 20.8315 15.2830   4
 -14  36  -2 19.7664 9.62485   4
 -36  14  -2 19.0846 13.3890   2
  -4  36 -14 9.62615 11.9733   4
  14  36  -4 4.73942 16.1582   4
   4  36 -14-1.81206 15.2889   4
 -36  14   4 18.9136 15.7729   2
 -14  36   4 15.2021 11.4010   4
  -4  36  14-0.92278 15.2787   4
 -14  36  -4 8.81987 8.94644   4
   4  36  14 8.89643 16.0394   4
 -36  14  -4-0.45604 13.8517   2
  14  36   4-0.45723 15.3139   4
  14  36  -6 3168.06 109.773   4
   6  36 -14 3132.72 109.574   4
   6  36  14 3104.04 109.635   4
  -6  36  14 3057.74 109.541   4
 -36  14   6 3138.75 109.835   2
  14  36   6 3110.75 109.510   4
 -14  36   6 3018.10 108.252   4
  -6  36 -14 3025.02 107.954   4
   8  36 -14 2440.78 86.1153   4
 -14  36   8 2316.55 84.6666   4
  -8  36  14 2438.74 85.7398   4
   8  36  14 2364.76 85.9965   4
 -36  14   8 2491.12 86.4393   2
  14  36   8 2392.35 85.8640   4
  -8  36 -14 2284.57 83.6585   4
  10  36 -14 30.4961 15.9860   4
 -36  10  14 52.6933 17.4264   2
 -10  36  14 32.9945 15.3794   4
  10  36  14 32.9484 16.0851   4
  14  36  10 33.6981 14.6574   4
 -14  36  10 31.8861 13.0095   4
 -36  14  10 42.5648 16.4989   2
 -12  36  14 1082.19 44.0734   2
  12  36 -14 1235.05 47.9849   4
 -36  12  14 1218.66 48.2911   2
 -36  14  12 1219.12 47.7908   2
 -12  36  14 1255.89 46.5649   4
  12  36  14 1262.14 47.2027   4
  14  36  12 1238.95 47.1195   4
 -14  36  12 1194.72 45.0787   2
 -14  36  14 1387.74 51.2120   2
 -36  14  14 1437.85 54.4999   2
  36  14 -14 1380.58 51.0304   4
  14  36  14 1384.60 53.0052   4
   0  36 -16 2141.68 75.6661   4
 -36  16   0 2062.00 76.6071   2
 -16  36   0 2075.38 74.1855   4
  16  36   0 2110.43 76.6526   4
  16  36  -2 338.162 22.0982   4
  -2  36 -16 370.073 20.0106   4
   2  36 -16 372.978 20.9163   4
 -36  16   2 399.676 22.6656   2
 -36  16  -2 351.384 21.5781   2
 -16  36   2 345.126 17.9658   4
 -16  36  -2 348.872 16.9089   4
   2  36  16 377.837 22.2588   4
  -2  36  16 359.882 22.5892   4
  16  36   2 376.595 22.7770   4
  -4  36 -16 116.843 13.4575   4
  16  36  -4 132.332 18.0187   4
   4  36 -16 134.941 16.3709   4
 -36  16   4 120.262 17.1709   2
 -16  36   4 120.624 12.3321   4
  -4  36  16 126.424 18.1529   4
   4  36  16 141.537 17.9852   4
  16  36   4 113.880 16.7000   4
  16  36  -6 3209.79 111.018   4
   6  36 -16 3072.63 110.625   4
  -6  36  16 3280.96 110.963   4
   6  36  16 3181.05 110.712   4
 -16  36   6 3161.13 109.154   4
  16  36   6 3088.11 110.377   4
 -36  16   6 3066.76 111.154   2
  -6  36 -16 2985.16 108.806   4
  16  36  -8 696.452 31.9405   4
   8  36 -16 721.323 31.7307   4
  -8  36  16 679.663 31.6251   4
   8  36  16 712.819 31.0583   4
 -36  16   8 700.191 32.5483   2
  16  36   8 672.597 30.9534   4
  -8  36 -16 667.474 27.4885   4
  16  36 -10 152.332 18.9124   4
  10  36 -16 155.483 18.7254   4
 -10  36  16 148.839 17.3679   4
  10  36  16 146.591 17.4277   4
  16  36  10 173.975 17.0698   4
 -36  16  10 153.908 19.3136   2
  12  36 -16 1600.94 59.9690   4
 -36  12  16 1581.44 60.1707   2
 -36  16  12 1646.69 60.2901   2
  12  36  16 1598.99 59.2593   4
  16  36  12 1478.53 58.7522   4
 -16  36  12 1582.29 57.8786   2
  14  36 -16 3559.15 125.773   4
 -36  14  16 3773.26 126.237   2
 -36  16  14 3657.10 126.068   2
  36  16 -14 3515.37 123.539   4
  14  36  16 3578.75 124.715   4
  16  36  14 3615.82 124.764   4
  36  14 -16 3608.79 123.858   4
 -14  36  16 3352.93 123.141   2
 -36  16  16 3814.85 129.397   2
  36  16 -16 3720.39 127.227   4
  16  36  16 3693.78 127.765   4
 -16  36  16 3489.35 126.730   2
  18  36   0 144.765 17.8123   4
   0  36 -18 146.790 15.5031   4
 -36  18   0 158.421 17.6164   2
  18  36   2 172.230 17.8108   4
  18  36  -2 167.787 18.0982   4
  -2  36 -18 176.079 14.8721   4
   2  36 -18 184.623 16.4611   4
   2  36  18 175.800 18.3866   4
 -36  18   2 157.432 17.8718   2
 -36  18  -2 178.531 18.1883   2
  -4  36 -18 475.370 23.1454   4
 -36  18   4 524.883 27.1719   2
  18  36  -4 535.213 27.1018   4
   4  36 -18 524.440 25.8114   4
  -4  36  18 511.647 27.2032   4
   4  36  18 528.055 26.7996   4
  18  36   4 528.186 25.7434   4
  -6  36 -18 22.9384 9.84712   4
  18  36  -6 22.7063 16.1065   4
 -36  18   6 0.50114 16.2606   2
   6  36 -18-4.98907 15.3282   4
  -6  36  18 32.5592 16.9371   4
   6  36  18 14.2553 16.4512   4
  18  36   6-4.81789 14.8226   4
 -36  18   8 123.000 18.7048   2
  18  36  -8 101.517 18.2391   4
   8  36 -18 114.224 17.7031   4
   8  36  18 102.907 16.8310   4
  18  36   8 109.676 15.5961   4
  18  36 -10 195.673 18.6134   4
  10  36 -18 195.457 18.4589   4
  10  36  18 187.232 17.9463   4
  18  36  10 192.547 16.8999   4
 -36  18  10 179.205 19.3541   2
  12  36 -18 361.612 22.7484   4
  18  36 -12 321.349 23.0988   4
 -18  36  12 343.282 19.7799   2
  36  18 -12 348.279 17.3323   4
  12  36  18 348.589 21.0490   4
  18  36  12 379.783 20.1502   4
 -36  18  12 345.551 23.6772   2
 -18  36  14 2239.98 84.1129   2
  18  36 -14 2386.64 85.9028   4
  14  36 -18 2447.40 86.1758   4
 -36  18  14 2410.92 86.2865   2
  36  18 -14 2329.86 83.6958   4
  14  36  18 2340.97 84.7924   4
  18  36  14 2424.55 84.7902   4
  36  14 -18 2450.13 84.3786   4
 -16  36  18 259.038 14.8224   2
  16  36  18 284.984 17.7086   4
  18  36  16 281.570 17.0959   4
  36  18 -16 282.232 16.5328   4
  36  16 -18 325.729 16.9846   4
 -18  36  16 254.952 16.0841   2
  36  18 -18 208.960 15.1557   4
 -18  36  18 208.113 13.8032   2
  18  36  18 194.046 15.0198   4
   0  36 -20 1009.48 40.1115   4
 -36  20   0 1043.64 42.3149   2
   0  36  20 1025.08 41.9433   4
  20  36   0 1005.64 40.8486   4
  20  36   2 39.6469 14.4372   4
  20  36  -2 43.8357 16.4345   4
  -2  36 -20 43.2404 12.0951   4
   2  36 -20 52.0160 13.9701   4
   2  36  20 38.3708 17.3882   4
 -36  20   2 49.2728 17.4217   2
  -4  36 -20 929.614 36.3469   4
  20  36  -4 943.864 39.0434   4
 -36  20   4 946.392 39.6268   2
   4  36 -20 975.544 38.4716   4
   4  36  20 954.213 39.9306   4
  20  36   4 916.029 38.4476   4
  20  36  -6 258.577 20.0965   4
   6  36 -20 228.816 18.9358   4
 -36  20   6 260.230 20.9697   2
   6  36  20 218.315 20.0039   4
  20  36   6 226.728 17.8519   4
  -6  36 -20 229.185 13.7937   4
  20  36  -8 868.817 36.9002   4
   8  36 -20 825.549 36.3140   4
   8  36  20 911.141 36.4146   4
  20  36   8 854.315 35.1420   4
 -36  20   8 816.002 37.5539   2
 -36  20  10 44.3661 18.4156   2
  20  36 -10 55.9222 17.7987   4
  10  36 -20 72.8092 16.9912   4
  10  36  20 65.9557 15.7918   4
  20  36  10 57.3849 13.9168   4
  20  36 -12 438.544 24.8818   4
 -20  36  12 397.127 21.4895   2
  12  36 -20 413.966 24.1578   4
  36  20 -12 420.994 19.6150   4
 -36  20  12 421.145 25.8189   2
  12  36  20 424.917 22.1322   4
  20  36  12 428.986 21.5591   4
  20  36 -14 79.0447 18.5967   4
 -20  36  14 79.6730 13.0277   2
  14  36 -20 68.7257 17.9165   4
  36  20 -14 75.7845 11.2639   4
  14  36  20 50.2029 14.1323   4
  20  36  14 58.9195 12.5641   4
 -20  36  16 222.396 15.6146   2
  20  36 -16 238.559 20.8396   4
  16  36 -20 252.838 20.4658   4
  36  20 -16 239.542 15.0769   4
  16  36  20 214.072 16.0957   4
  20  36  16 230.807 15.3338   4
  36  16 -20 251.111 16.4384   4
  20  36 -18 36.8551 17.7071   4
 -18  36  20 20.4214 8.70591   2
 -20  36  18 31.0679 10.5817   2
  18  36  20 9.01970 11.1937   4
  20  36  18 21.9288 10.8525   4
  36  20 -18 46.1055 12.0762   4
  36  18 -20 38.4944 12.3336   4
 -20  36  20 1127.81 44.1045   2
  20  36  20 1197.05 44.4370   4
   0  36 -22 1121.46 42.4439   4
 -36  22   0 1139.05 44.8849   2
   0  22 -36 1034.59 41.6422   4
  22  36   0 1154.38 43.7092   4
  22  36  -2 579.924 27.5752   4
  -2  36 -22 554.150 24.7796   4
   2  36 -22 542.514 26.0149   4
 -36  22   2 600.318 29.0232   2
   2  36  22 583.823 28.2939   4
  22  36   2 561.118 26.6808   4
  -4  36 -22 19.5974 10.2623   4
  22  36  -4 15.9860 15.5664   4
   4  36 -22 14.2520 12.5642   4
   4  36  22 13.5586 16.6882   4
 -36  22   4 32.7496 18.1864   2
  22  36   4 39.6912 13.2387   4
  22  36  -6 107.252 17.4113   4
   6  36 -22 130.568 15.5017   4
 -36  22   6 97.4338 18.2599   2
   6  36  22 111.248 17.2657   4
  22  36   6 136.319 15.1055   4
  22  36  -8 1094.62 42.6920   4
   8  36 -22 983.563 41.9661   4
   8  36  22 1091.00 41.9988   4
  22  36   8 1026.97 40.9165   4
 -36  22   8 1060.32 43.1895   2
 -36  22  10 3.90439 17.5666   2
  22  36 -10 11.2441 16.5570   4
  36  22 -10 0.91678 9.38233   4
  10  36 -22 7.57169 15.7317   4
  10  36  22-14.5267 13.6419   4
  22  36  10 6.35224 12.4241   4
 -22  36  10 2.56241 13.6728   2
 -22  36  12 1130.58 44.6464   2
  22  36 -12 1145.01 46.2745   4
  36  22 -12 1139.81 43.0629   4
  12  36 -22 1219.58 46.0333   4
  12  36  22 1176.18 44.6417   4
  22  36  12 1143.55 43.7014   4
 -22  36  14 178.638 15.5914   2
  22  36 -14 214.203 19.5447   4
  14  36 -22 217.109 18.9822   4
  36  22 -14 206.919 14.1378   4
  14  36  22 180.571 15.8079   4
  22  36  14 206.366 14.0994   4
  22  36 -16 218.997 19.3990   4
  36  22 -16 208.516 14.5244   4
  16  36 -22 228.394 20.2510   4
  16  36  22 184.688 14.8198   4
  22  36  16 187.111 13.4604   4
  36  16 -22 201.452 15.5638   4
 -22  36  16 206.173 15.3088   2
  22  36 -18 294.112 20.8484   4
 -36  22  18 276.298 21.1557   2
  36  22 -18 272.561 16.3058   4
 -22  36  18 279.535 15.9249   2
  22  36  18 245.457 14.4885   4
  36  18 -22 279.830 17.3299   4
  22  36 -20 377.314 22.6609   4
 -22  36  20 341.952 17.8806   2
  36  22 -20 411.162 19.6364   4
  36  20 -22 432.736 20.0678   4
  22  36 -22 26.1790 15.7710   4
  36  22 -22 33.2167 11.4965   4
   0  36 -24 1377.87 50.1720   4
 -36  24   0 1455.35 53.0348   2
   0  24 -36 1287.78 49.4570   4
  24  36   0 1342.17 51.0829   4
  24  36  -2 57.0739 14.6122   4
   2  24 -36 50.0621 11.7231   4
  -2  36 -24 47.5560 10.7715   4
   2  36 -24 69.3616 13.0991   4
 -36  24   2 50.9143 17.3687   2
  24  36   2 50.6887 13.5273   4
  24  36  -4 94.5728 15.5348   4
  -4  36 -24 96.3177 10.6493   4
   4  36 -24 85.8634 14.0151   4
 -36  24   4 113.583 19.2133   2
   4  24 -36 104.810 13.9086   4
  24  36   4 116.487 14.0984   4
  24  36  -6 429.404 23.3606   4
   6  36 -24 439.398 22.3269   4
   6  24 -36 411.767 22.2272   4
  24  36   6 434.345 21.2456   4
 -36  24   6 405.082 24.9766   2
  24  36  -8-6.86110 15.0301   4
 -36  24   8 20.9063 17.3278   2
   8  36 -24-1.26236 14.6188   4
  24  36   8-1.78085 11.9572   4
  24  36 -10 146.863 17.3129   4
  36  24 -10 161.850 11.7826   4
  10  36 -24 150.561 17.0114   4
 -24  36  10 157.965 16.5592   2
  24  36  10 160.702 13.1999   4
  24  36 -12 235.267 17.7973   4
  36  24 -12 178.736 13.0556   4
  12  36 -24 165.242 17.9260   4
 -24  36  12 177.227 15.4372   2
  24  36  12 164.861 13.1785   4
 -24  36  14 101.940 13.5427   2
  24  36 -14 107.262 17.3586   4
  36  24 -14 96.0798 11.7189   4
  14  36 -24 132.128 17.1339   4
  24  36  14 104.257 10.9753   4
  24  36 -16 114.515 15.9665   4
  16  36 -24 126.812 17.2292   4
  36  24 -16 121.759 12.2491   4
  24  36  16 95.3596 9.93169   4
 -36  24  16 131.582 18.0570   2
  36  16 -24 131.396 14.0862   4
 -24  36  16 83.2245 12.9906   2
  24  36 -18-9.06023 15.4719   4
 -36  24  18-2.47012 15.9095   2
  18  36 -24 20.7495 15.5532   4
  36  24 -18 6.47535 10.9766   4
 -24  36  18 5.01599 10.8232   2
  36  18 -24 28.9746 12.6854   4
  24  36 -20 559.332 26.0857   4
  36  24 -20 524.662 23.5124   4
  36  20 -24 540.860 24.1008   4
  20  24 -36 521.928 26.3330   4
  24  36 -22 90.0886 15.3596   4
  36  24 -22 104.746 12.2866   4
  36  22 -24 112.134 12.1827   4
  22  24 -36 95.4963 15.8466   4
  24  36 -24 1449.87 53.4427   4
  36  24 -24 1444.11 52.3927   4
   0  36 -26 1227.13 44.9746   4
   0  26 -36 1176.98 44.2885   4
 -36  26   0 1195.59 48.0489   2
  26  36   0 1232.89 45.8502   4
  26  36  -2 8.86857 12.8420   4
  -2  36 -26 19.1709 9.81828   4
   2  36 -26-1.42449 11.8122   4
   2  26 -36 15.2068 10.5509   4
 -36  26   2 13.1125 17.5700   2
  26  36   2 17.0228 11.9526   4
 -36  26   4 1568.51 57.2484   2
   4  36 -26 1456.77 55.0231   4
   4  26 -36 1461.56 54.8491   4
  26  36   4 1487.27 54.7095   4
  26  36  -4 1528.12 55.4208   4
  26  36  -6 1149.91 44.4160   4
   6  36 -26 1184.09 44.4567   4
   6  26 -36 1138.30 43.9845   4
  26  36   6 1110.35 43.1296   4
 -36  26   6 1204.36 46.6174   2
  26  36  -8 373.442 21.1515   4
  36  26  -8 340.052 16.7297   4
   8  36 -26 367.175 20.7205   4
 -26  36   8 377.629 21.7562   2
   8  26 -36 360.569 20.3837   4
  26  36   8 369.349 18.1562   4
  26  36 -10 137.458 16.1241   4
  36  26 -10 126.860 11.3251   4
  10  36 -26 136.244 16.1408   4
 -26  36  10 155.275 15.6373   2
  26  36  10 142.173 11.7891   4
  10  26 -36 158.700 15.9530   4
  26  36 -12-3.16602 14.4592   4
  36  26 -12 1.17860 9.51233   4
 -26  36  12 7.68320 13.2816   2
  12  36 -26 8.79931 14.7072   4
  26  36  12-3.14962 8.50580   4
  12  26 -36-18.2554 14.1582   4
  26  36 -14-5.04598 14.5877   4
  36  26 -14 21.0264 9.90070   4
  26  36  14 12.8647 7.72332   4
  14  36 -26 12.6080 15.2300   4
 -36  26  14 6.70570 16.3625   2
  14  26 -36 11.0193 14.0946   4
 -26  36  14-5.07530 12.1748   2
  36  26 -16 201.959 13.8350   4
  26  36 -16 183.536 17.1941   4
  16  36 -26 200.380 17.7443   4
 -36  26  16 186.272 18.3312   2
 -26  36  16 179.833 14.3320   2
  16  26 -36 222.339 17.9290   4
  36  16 -26 212.670 15.4869   4
  18  26 -36 53.0388 15.0158   4
  26  36 -18 50.8482 14.4401   4
  36  26 -18 83.0638 11.2792   4
  18  36 -26 95.1662 15.6063   4
 -26  36  18 71.5570 11.3359   2
  36  18 -26 90.2086 13.0180   4
  26  36 -20 498.892 23.5494   4
  20  36 -26 475.801 24.0223   4
  36  26 -20 477.478 21.4938   4
  36  20 -26 493.238 22.1148   4
  20  26 -36 474.923 24.0224   4
  26  36 -22 302.145 18.2087   4
  36  26 -22 289.459 15.9695   4
  36  22 -26 299.022 16.2414   4
  26  22 -36 299.270 19.1945   4
  22  26 -36 328.023 18.9403   4
  26  36 -24 274.272 16.9405   4
  24  36 -26 286.114 17.0318   4
  36  26 -24 298.903 15.2103   4
  36  24 -26 292.911 15.2425   4
  26  36 -26 299.489 15.6161   4
  36  26 -26 248.877 13.6687   4
   0  36 -28 75.6142 10.6580   4
   0  28 -36 71.8738 9.47570   4
 -36  28   0 78.8365 16.7593   2
  28  36   0 84.9802 12.2417   4
  -2  36 -28 475.646 20.6340   4
   2  36 -28 461.596 22.0670   4
 -36  28   2 570.444 26.6856   2
   2  28 -36 480.050 21.3927   4
  28  36   2 479.097 22.2969   4
 -36  28  -2 548.960 26.7038   2
  28  36  -2 528.399 23.0833   4
  28  36  -4 19.9296 12.8063   4
   4  36 -28 18.7264 12.0557   4
 -36  28   4 11.9885 17.4698   2
   4  28 -36 37.5953 11.1225   4
  28  36   4 39.4323 10.4291   4
   6  36 -28 2080.51 73.1532   4
   6  28 -36 2016.00 72.7887   4
  28  36   6 1991.04 71.9773   4
  28  36  -6 2094.15 73.2786   4
  36  28  -8 508.774 21.5084   4
  28  36  -8 551.223 24.5732   4
 -28  36   8 539.109 26.1896   2
   8  36 -28 539.576 24.3993   4
   8  28 -36 558.102 24.3147   4
  28  36   8 510.441 21.7875   4
  36  28 -10 6.83348 8.89011   4
  28  36 -10 0.36308 13.3034   4
  10  36 -28-1.46596 12.8660   4
 -28  36  10 5.79309 13.8756   2
  10  28 -36-2.15450 12.4128   4
  28  36  10 10.9348 7.46862   4
  28  36 -12 646.410 27.3349   4
  36  28 -12 583.852 24.9602   4
  12  36 -28 640.983 27.5223   4
 -36  28  12 626.479 28.9675   2
 -28  36  12 614.607 27.3596   2
  12  28 -36 624.345 27.0853   4
  28  36 -14 276.215 18.2113   4
  36  28 -14 314.740 15.7047   4
  14  36 -28 263.725 18.8202   4
 -36  28  14 328.985 20.4766   2
 -28  36  14 303.602 17.7401   2
  14  28 -36 300.381 18.6276   4
  28  36 -16 349.104 19.3414   4
  36  28 -16 334.030 17.1247   4
  16  36 -28 391.785 19.8908   4
 -36  28  16 359.493 20.7804   2
 -28  36  16 354.113 18.3428   2
  16  28 -36 368.515 20.2888   4
  36  16 -28 356.840 18.8093   4
  28  36 -18 386.431 20.5483   4
  36  28 -18 420.222 18.2903   4
  18  36 -28 405.829 20.7263   4
 -28  36  18 383.599 18.6204   2
  18  28 -36 405.309 21.0898   4
  36  18 -28 390.127 19.6750   4
  28  36 -20 485.816 22.4151   4
  36  28 -20 470.366 20.6610   4
  20  36 -28 488.251 22.9447   4
  36  20 -28 476.193 21.5082   4
  20  28 -36 508.170 22.8665   4
  28  20 -36 471.226 22.6954   4
  28  36 -22 106.501 12.5976   4
  36  28 -22 109.801 10.1307   4
  36  22 -28 104.867 10.8544   4
  22  28 -36 118.843 13.0357   4
  28  22 -36 108.213 13.8261   4
  28  36 -24 84.5956 11.1519   4
  36  28 -24 77.0684 8.92311   4
  36  24 -28 88.1037 9.68881   4
  28  24 -36 85.9961 11.7665   4
 -36  28 -24 54.7187 5.72143   2
  28  36 -26 267.145 13.5645   4
  26  36 -28 260.153 13.4814   4
  36  28 -26 214.628 11.4683   4
  36  26 -28 216.595 12.0018   4
  28  26 -36 300.469 14.2211   4
  28  36 -28 27.6044 7.21996   4
  36  28 -28 22.1666 5.31467   4
  28  28 -36 23.6960 7.73908   4
   0  36 -30 258.561 13.9467   4
 -36  30   0 294.081 20.6805   2
  30  36   0 285.404 15.0975   4
   2  36 -30 341.769 16.6696   4
 -36  30   2 342.526 22.2599   2
   2  30 -36 333.788 16.1331   4
 -36  30  -2 366.586 21.8671   2
  30  36   2 337.366 16.5443   4
  30  36  -2 353.370 17.3378   4
   4  36 -30 81.6257 11.5719   4
   4  30 -36 78.2473 11.0639   4
  30  36   4 101.512 9.62313   4
 -30  36   4 78.2477 16.2773   2
  30  36  -4 78.1641 11.8119   4
  30  36  -6 17.6697 11.1092   4
   6  36 -30-0.31504 10.9621   4
   6  30 -36-0.91117 10.6354   4
 -30  36   6 8.22807 14.6616   2
  30  36   6 18.4161 7.33555   4
 -30  36   8 635.776 27.7312   2
   8  36 -30 632.149 25.9633   4
   8  30 -36 619.312 25.7805   4
  36  30  -8 558.925 23.4526   4
  30  36  -8 620.439 25.7097   4
  36  30 -10 46.3580 8.21416   4
  30  36 -10 43.4942 11.8868   4
 -30  36  10 56.2698 13.5088   2
  10  36 -30 55.9686 12.5152   4
  10  30 -36 44.9319 11.8859   4
 -36  30  10 54.8696 15.6660   2
  36  30 -12 97.8640 9.93860   4
  30  36 -12 89.7203 12.3407   4
  12  36 -30 118.066 13.7520   4
  12  30 -36 120.273 13.4705   4
 -36  30  12 122.540 15.6841   2
 -30  36  12 116.225 13.5763   2
  30  36 -14 94.4411 12.7666   4
  36  30 -14 89.6143 9.89960   4
  14  36 -30 104.132 13.8023   4
 -36  30  14 119.823 15.2860   2
  14  30 -36 105.050 13.0829   4
 -30  36  14 87.5806 12.7088   2
  30  36 -16 896.846 34.0773   4
  36  30 -16 848.378 32.6849   4
  16  36 -30 898.789 34.7009   4
 -36  30  16 930.612 35.2503   2
 -30  36  16 847.969 33.6524   2
  16  30 -36 894.912 34.5604   4
  36  16 -30 867.667 34.0722   4
  30  36 -18 83.4586 11.5597   4
  36  30 -18 88.0121 9.40748   4
  18  36 -30 95.4527 13.0908   4
  18  30 -36 108.151 12.9999   4
  36  18 -30 82.3070 11.2305   4
  30  36 -20 315.742 16.5031   4
  36  30 -20 294.078 14.6513   4
  20  36 -30 330.953 16.7828   4
  20  30 -36 327.793 17.0917   4
  36  20 -30 330.246 16.0963   4
  30  20 -36 303.914 17.7098   4
  30  36 -22 67.8987 10.0784   4
  36  30 -22 42.9849 7.86515   4
  22  36 -30 67.1141 10.8237   4
  22  30 -36 59.7359 10.9028   4
  30  22 -36 63.3516 11.1816   4
  36  22 -30 60.1739 9.15102   4
  36  30 -24 122.241 8.39813   4
  30  36 -24 153.423 10.2412   4
  36  24 -30 108.859 9.20705   4
  24  30 -36 157.433 11.2118   4
  30  24 -36 147.174 10.9795   4
  30  36 -26 696.815 22.7411   4
  26  36 -30 710.896 23.0691   4
  36  26 -30 532.925 21.6650   4
  30  26 -36 732.953 23.1794   4
  30  36 -28 23.4739 5.40107   4
  28  36 -30 35.4024 5.76886   4
  28  30 -36 25.3163 5.56484   4
  30  28 -36 24.7601 5.40624   4
 -36  32   0 161.921 17.3760   2
  32  36   0 170.127 10.5711   4
 -32  36   0 190.803 17.4167   2
   2  36 -32 378.426 16.0407   4
   2  32 -36 331.499 15.4295   4
 -32  36   2 398.383 20.8114   2
  32  36  -2 366.673 16.5207   4
   4  36 -32 150.143 11.4473   4
   4  32 -36 144.695 11.0193   4
 -32  36   4 156.424 16.6821   2
 -36  32  -4 167.829 16.4857   2
  32  36  -4 176.702 11.4750   4
   6  36 -32 225.828 13.8945   4
   6  32 -36 217.959 13.4047   4
 -32  36   6 250.723 17.1661   2
  32  36  -6 229.741 13.4973   4
  32  36  -8 148.030 11.6016   4
 -32  36   8 129.815 14.9645   2
   8  36 -32 136.559 12.0275   4
   8  32 -36 120.514 11.9709   4
 -36  32   8 146.626 15.8311   2
  36  32 -10 5.83733 6.96510   4
  32  36 -10 27.5113 9.95674   4
  10  36 -32 46.9083 10.7834   4
  10  32 -36 14.5478 10.4025   4
 -36  32  10 38.0812 13.8807   2
 -32  36  10 42.8873 12.3574   2
  36  32 -12 69.6896 8.13011   4
  32  36 -12 88.7917 10.5517   4
  12  36 -32 70.7989 11.5727   4
  12  32 -36 70.1464 11.3130   4
 -36  32  12 78.1101 13.8050   2
 -32  36  12 79.2547 12.5342   2
  32  36 -14 895.480 32.7858   4
  14  36 -32 903.987 33.3459   4
 -36  32  14 878.088 34.0965   2
  14  32 -36 893.269 33.3795   4
 -32  36  14 895.775 33.2926   2
  36  14 -32 921.588 33.4262   4
  36  32 -14 738.683 31.4358   4
  36  32 -16 195.895 11.4078   4
  32  36 -16 247.833 13.4294   4
  16  36 -32 240.497 14.4094   4
 -32  36  16 229.439 13.7285   2
  16  32 -36 233.176 14.4411   4
  36  16 -32 245.836 14.0306   4
  36  32 -18 8.56462 6.93345   4
  32  36 -18 8.57202 8.51728   4
  18  36 -32 12.9201 10.3166   4
  18  32 -36 1.74765 10.2643   4
  36  18 -32 18.2380 9.01635   4
  32  18 -36 9.40727 10.9585   4
  36  32 -20 45.5962 6.49209   4
  32  36 -20 64.3487 8.80305   4
  20  36 -32 67.4897 10.1207   4
  20  32 -36 73.8945 9.95118   4
  36  20 -32 73.6848 8.39015   4
  32  20 -36 73.6959 10.3156   4
  36  32 -22 16.5940 5.27127   4
  32  36 -22 24.7137 7.19458   4
  22  36 -32 30.0370 8.70902   4
  22  32 -36 35.9696 8.65065   4
  36  22 -32 23.3576 7.08289   4
  32  22 -36 19.7942 8.25856   4
 -36  32 -22 14.7570 5.02776   2
  32  36 -24 129.524 7.78524   4
  24  32 -36 132.453 8.62765   4
  36  24 -32 97.4293 7.09054   4
  32  24 -36 143.707 8.81777   4
  32  26 -36 57.9249 5.54313   4
 -34  36   2 145.330 15.2899   2
 -36  34  -2 157.974 15.4534   2
   4  36 -34 72.9204 7.66504   4
   4  34 -36 53.0968 7.38870   4
 -34  36   4 64.7753 13.6938   2
 -36  34  -4 71.7385 14.2557   2
  34  36  -4 58.5760 6.98472   4
   6  36 -34 387.254 17.2529   4
   6  34 -36 395.827 16.9427   4
 -36  34  -6 449.656 21.2196   2
 -36  34   6 474.552 20.9958   2
  34  36  -6 361.298 16.3391   4
 -34  36   6 461.395 20.8772   2
   8  36 -34 852.805 32.7220   4
   8  34 -36 870.702 32.8049   4
 -34  36   8 983.599 34.8973   2
  34  36  -8 841.081 32.1140   4
 -36  34  -8 945.167 34.9941   2
  10  36 -34 151.708 11.1665   4
  10  34 -36 134.145 10.8003   4
 -36  34  10 175.161 13.8768   2
 -34  36  10 171.472 13.6511   2
  34  36 -10 128.700 9.53999   4
  12  36 -34 469.737 19.1506   4
  12  34 -36 491.054 19.1469   4
 -36  34  12 540.743 20.8503   2
 -34  36  12 496.701 20.3557   2
  34  36 -12 436.634 17.8792   4
  14  36 -34 873.434 30.4200   4
  14  34 -36 887.948 30.3967   4
 -36  34  14 895.423 31.2195   2
 -34  36  14 937.139 31.0004   2
  36  14 -34 888.014 30.6862   4
  34  36 -14 798.859 29.4168   4
  16  36 -34 879.966 29.4946   4
  16  34 -36 914.133 29.6155   4
  36  16 -34 855.734 29.3908   4
  34  16 -36 917.041 29.9913   4
  34  36 -16 757.193 28.3129   4
  18  36 -34 337.660 14.0752   4
  18  34 -36 349.717 14.1493   4
  36  18 -34 311.146 13.4323   4
 -36  34 -18 298.089 13.2045   2
  34  18 -36 302.949 13.9944   4
  34  36 -18 270.723 12.2789   4
  20  36 -34 400.607 14.6853   4
  20  34 -36 372.288 14.4405   4
  36  20 -34 315.546 13.5490   4
  34  20 -36 389.627 14.4235   4
  22  36 -34 174.904 8.94035   4
  22  34 -36 176.117 9.16530   4
  34  22 -36 138.769 8.47658   4
  24  36 -34 14.7693 4.70367   4
  24  34 -36 19.5272 4.40639   4
 -36  36   4 210.233 14.6672   2
 -36  36  -4 202.820 14.7396   2
   6  36 -36 24.8478 5.44415   4
 -36  36  -6 54.8407 11.6809   2
 -36  36   6 48.9245 11.4704   2
 -36  36  -8 993.940 32.9739   2
 -36  36   8 1012.19 32.9748   2
  10  36 -36-7.88611 6.57772   4
 -36  36  10 5.11754 9.46045   2
 -36  36 -10 4.96146 9.69318   2
  12  36 -36 669.805 26.7753   4
 -36  36  12 812.148 28.1583   2
 -36  36 -12 807.658 28.3045   2
  36  12 -36 680.334 27.3888   4
  14  36 -36 825.624 32.2572   4
 -36  36 -14 957.132 33.1228   2
  36  14 -36 922.182 32.6248   4
  16  36 -36 556.020 21.0560   4
 -36  36 -16 592.082 21.4280   2
  36  16 -36 522.803 21.0497   4
  18  36 -36 320.715 12.2559   4
 -36  36 -18 293.199 11.9436   2
  36  18 -36 251.252 11.6896   4
  20  36 -36 32.4041 4.83410   4
 -37   1  -1 11.1512 9.64616   2
  -1  37   1-6.20466 14.2151   4
   1  37   1 3.58318 14.7307   4
  -1  37  -1 9.14960 14.1984   4
   1  37  -1-4.44577 14.1269   4
 -37   3   1 2500.60 90.4316   2
 -37   3  -1 2573.17 90.1947   2
  -1  37   3 2552.49 91.6510   4
  -3  37   1 2591.36 91.4230   4
   1  37   3 2508.35 91.6856   4
  -3  37  -1 2622.51 91.3203   4
   3  37   1 2578.89 91.7573   4
  -1  37  -3 2535.69 91.4707   4
   3  37  -1 2537.32 91.7598   4
   1  37  -3 2608.39 91.7215   4
   3  37  -3 3.17721 14.8038   4
 -37   3   3 0.39734 11.0527   2
 -37   3  -3 16.6987 9.66806   2
  -3  37   3 14.1188 14.0328   4
   3  37   3 20.6221 15.1908   4
  -3  37  -3 12.2313 13.2011   4
 -37   5   1 2326.01 82.4558   2
 -37   5  -1 2283.15 82.2665   2
  -1  37   5 2370.69 83.4371   4
  -5  37   1 2270.40 82.8865   4
   1  37   5 2315.76 83.7177   4
  -5  37  -1 2320.07 82.8596   4
   5  37   1 2354.19 83.6684   4
  -1  37  -5 2335.56 83.0644   4
   5  37  -1 2245.24 83.5525   4
   1  37  -5 2303.13 83.2399   4
   3  37  -5 3908.07 137.366   4
 -37   3   5 3907.58 136.672   2
 -37   5   3 3975.18 136.796   2
 -37   5  -3 3855.63 136.068   2
  -3  37   5 3812.33 137.257   4
  -5  37   3 3922.62 137.015   4
   3  37   5 3842.01 137.570   4
  -5  37  -3 3978.90 136.808   4
   5  37   3 3991.69 137.453   4
  -3  37  -5 3990.78 136.858   4
   5  37  -3 3984.38 137.415   4
   5  37  -5-2.76390 15.6918   4
 -37   5   5-12.9017 13.3799   2
  -5  37   5-9.68930 14.5221   4
 -37   5  -5-3.14884 9.44559   2
  -5  37  -5 0.80986 12.3845   4
   1  37  -7 1745.71 64.6865   4
 -37   7   1 1827.84 64.3192   2
 -37   7  -1 1733.39 63.7784   2
  -1  37   7 1689.84 65.0208   4
  -7  37   1 1740.33 64.1115   4
   1  37   7 1819.34 65.3464   4
  -7  37  -1 1745.81 64.0992   4
   7  37  -1 1707.84 65.2617   4
  -1  37  -7 1769.50 64.3322   4
  -3  37  -7-7.10769 13.0234   4
 -37   7  -3-5.50727 11.4878   2
   7  37  -3 2.78844 15.7545   4
   3  37  -7-2.26244 14.3644   4
  -3  37   7 15.8842 14.7288   4
  -7  37   3 6.77518 13.2484   4
 -37   7   3 1.74112 13.5457   2
   3  37   7 0.93244 15.8005   4
  -7  37  -3 3.59773 11.9895   4
   7  37  -5 2376.69 86.6642   4
   5  37  -7 2463.63 86.6040   4
 -37   5   7 2412.43 86.1571   2
 -37   7   5 2389.38 86.0317   2
  -7  37   5 2372.14 86.0588   4
  -5  37   7 2367.14 86.2350   4
 -37   7  -5 2422.85 85.1715   2
  -7  37  -5 2412.76 85.5129   4
  -5  37  -7 2398.14 85.5070   4
   7  37  -7-9.36135 16.3360   4
 -37   7  -7-0.70994 9.90801   2
  -7  37   7-11.7220 13.8076   4
 -37   7   7 13.6481 13.9127   2
   7  37   7 0.46896 15.6535   4
  -7  37  -7 17.9731 11.9345   4
  -1  37  -9 4318.04 156.677   4
   1  37  -9 4563.81 156.977   4
  -1  37   9 4638.29 157.430   4
  -9  37   1 4450.79 156.538   4
   1  37   9 4533.27 157.514   4
  -9  37  -1 4491.69 156.395   4
 -37   9   1 4611.13 157.012   2
 -37   9  -1 4550.03 156.781   2
  -3  37  -9 28.0738 12.8733   4
   3  37  -9 21.6753 15.4471   4
 -37   9  -3 25.6397 12.0300   2
  -9  37   3 34.4062 12.7441   4
  -3  37   9 31.1481 15.1109   4
  -9  37  -3 21.8627 12.0284   4
 -37   9   3 20.3082 13.7334   2
   9  37   3 24.1525 15.6091   4
   9  37  -5 2683.14 94.5337   4
   5  37  -9 2681.04 94.3289   4
 -37   5   9 2665.69 94.1279   2
 -37   9   5 2703.79 94.0856   2
  -9  37   5 2584.14 93.3017   4
  -5  37   9 2647.62 94.0891   4
  -9  37  -5 2537.60 92.7201   4
   9  37   5 2595.98 94.4032   4
  -5  37  -9 2614.84 93.1911   4
 -37   9  -5 2641.86 93.1184   2
   9  37  -7 215.935 18.8098   4
   7  37  -9 198.858 18.3629   4
 -37   9  -7 191.496 14.3684   2
 -37   7   9 152.092 17.2636   2
  -9  37   7 205.499 16.3732   4
  -7  37   9 176.845 17.1519   4
 -37   9   7 203.807 17.8187   2
   7  37   9 180.916 18.6785   4
  -9  37  -7 181.724 14.0097   4
   9  37   7 207.083 19.0520   4
  -7  37  -9 172.347 14.3445   4
   9  37  -9-2.84789 16.1211   4
 -37   9   9-23.3097 14.7573   2
 -37   9  -9-7.63022 10.3641   2
  -9  37   9-8.18383 14.6685   4
   9  37   9-4.67587 16.8386   4
  -9  37  -9 11.5759 10.6328   4
  -1  37 -11 1402.35 52.7553   4
   1  37 -11 1377.45 52.8585   4
 -11  37  -1 1439.61 52.0062   4
 -11  37   1 1373.34 52.0278   4
  -1  37  11 1379.49 53.9704   4
 -37  11   1 1432.46 53.3226   2
  11  37   1 1377.66 54.1758   4
 -37  11  -1 1422.48 53.0064   2
 -37  11  -3 436.806 22.2399   2
   3  37 -11 461.969 23.5027   4
 -11  37   3 430.005 21.9798   4
  -3  37  11 440.910 24.2394   4
 -11  37  -3 444.270 21.1900   4
 -37  11   3 437.519 23.3540   2
  11  37   3 458.312 24.5537   4
  -3  37 -11 461.451 22.5134   4
   5  37 -11 1163.65 45.3108   4
 -37  11  -5 1216.24 44.6205   2
 -11  37   5 1103.87 43.8578   4
  -5  37  11 1140.53 45.5819   4
 -37  11   5 1159.17 45.2583   2
   5  37  11 1153.21 45.7924   4
 -11  37  -5 1127.67 43.1750   4
  11  37   5 1174.84 45.9397   4
  -5  37 -11 1128.93 43.7588   4
   7  37 -11 60.4191 16.6508   4
 -37   7  11 81.0009 16.0501   2
 -11  37   7 57.8934 13.3071   4
  -7  37  11 61.6439 15.6870   4
 -37  11  -7 60.8754 12.6266   2
   7  37  11 46.6576 17.0760   4
 -11  37  -7 75.3052 10.9228   4
 -37  11   7 66.4428 16.1979   2
  11  37   7 59.1756 15.8413   4
  -7  37 -11 50.5504 10.9206   4
  11  37  -9 116.303 17.8362   4
   9  37 -11 126.812 18.2732   4
 -37   9  11 138.975 17.9830   2
  -9  37  11 123.214 15.2392   4
 -11  37   9 111.555 14.2969   4
 -37  11  -9 128.523 13.1539   2
 -37  11   9 115.585 16.5135   2
   9  37  11 116.293 17.5991   4
 -11  37  -9 124.589 11.2305   4
  11  37   9 103.004 17.5465   4
  -9  37 -11 104.916 11.9120   4
  11  37 -11 2.87243 17.4754   4
 -11  37  11-3.85360 12.7767   4
 -37  11  11-11.7732 15.6631   2
 -37  11 -11 18.9691 10.6460   2
  11  37  11-0.92215 15.9289   4
 -11  37 -11 3.35580 9.14134   4
  13  37   1 45.6691 16.3673   4
  13  37  -1 27.6731 17.0477   4
  -1  37 -13 31.9293 13.5003   4
   1  37 -13 3.47441 12.9101   4
 -37  13   1 22.0104 14.5389   2
 -37  13  -1 13.8369 13.8790   2
 -13  37   1 19.0803 11.1890   4
  -1  37  13 38.7430 16.8113   4
 -13  37  -1 10.8273 9.86846   4
  -3  37 -13 141.689 14.2784   4
  13  37  -3 137.678 18.5615   4
   3  37 -13 140.682 16.2057   4
 -37  13   3 142.665 16.8995   2
 -37  13  -3 132.997 15.5170   2
 -13  37   3 142.130 13.9180   4
  -3  37  13 142.387 18.2546   4
 -13  37  -3 133.437 12.1644   4
  13  37   3 156.386 17.6943   4
  -5  37 -13 61.0143 12.1075   4
 -37  13   5 68.7092 16.1366   2
   5  37 -13 58.1345 16.1318   4
 -13  37   5 35.8761 12.5962   4
  -5  37  13 43.6045 16.7341   4
 -37  13  -5 38.9952 13.6380   2
 -13  37  -5 25.0830 9.34119   4
   5  37  13 70.2258 17.1434   4
  13  37   5 74.2025 15.4921   4
   7  37 -13 5.13911 15.9843   4
 -13  37   7 6.74011 12.7809   4
  -7  37  13 17.2706 15.9251   4
 -13  37  -7 5.81289 8.89195   4
   7  37  13 15.9326 16.8779   4
 -37  13  -7 37.3844 13.0723   2
  13  37   7-5.53022 16.1399   4
 -37  13   7-10.7784 15.1866   2
  -7  37 -13 11.8895 10.1322   4
   9  37 -13 128.504 17.7039   4
 -37   9  13 112.915 17.9898   2
 -13  37   9 141.707 14.0077   4
  -9  37  13 124.736 17.0714   4
   9  37  13 125.099 17.5516   4
 -37  13  -9 118.696 13.7680   2
 -37  13   9 121.678 17.6683   2
  13  37   9 121.122 17.6068   4
  -9  37 -13 110.574 11.3161   4
  11  37 -13 9.54318 16.8603   4
 -37  11  13 35.0761 16.5108   2
 -13  37  11-11.1424 12.6485   4
 -11  37  13 12.1436 14.7012   4
 -37  13  11-12.3689 16.8373   2
  11  37  13 15.9514 14.7420   4
  13  37  11 13.1103 15.6163   4
 -37  13 -11 13.1509 11.3884   2
  13  37 -13 4.30069 16.6339   4
 -37  13  13 7.46322 16.4353   2
 -13  37  13 18.6560 10.0453   2
  13  37  13-4.00021 14.4743   4
 -37  13 -13 8.30950 10.6422   2
 -37  15   1 431.851 23.2333   2
  -1  37 -15 398.330 21.5477   4
   1  37 -15 419.174 22.0059   4
 -37  15  -1 412.404 23.2372   2
 -15  37   1 395.703 19.1518   4
 -15  37  -1 387.552 18.5706   4
  15  37   1 365.636 22.7357   4
  15  37  -1 417.211 23.7765   4
  -3  37 -15 1321.53 51.5399   4
  15  37  -3 1380.22 53.8527   4
   3  37 -15 1418.31 52.4876   4
 -37  15  -3 1459.42 52.8708   2
 -15  37   3 1342.54 50.9399   4
  -3  37  15 1390.43 53.6780   4
 -15  37  -3 1347.58 50.1712   4
   3  37  15 1420.87 53.3769   4
  15  37   3 1415.22 53.0590   4
 -37  15   3 1439.21 53.6169   2
  -5  37 -15 81.6576 11.9857   4
  15  37  -5 45.5683 17.3091   4
 -37  15   5 57.1671 15.8392   2
   5  37 -15 64.5471 15.9129   4
 -15  37   5 45.8148 11.7250   4
  -5  37  15 53.3826 16.2085   4
   5  37  15 70.0854 16.7876   4
 -37  15  -5 58.8232 14.6181   2
  15  37   5 35.9800 15.9634   4
  15  37  -7 534.670 28.1758   4
   7  37 -15 525.368 27.3827   4
 -15  37   7 540.384 24.4752   4
  -7  37  15 527.154 27.2176   4
 -37  15  -7 563.225 25.4055   2
   7  37  15 540.150 27.5920   4
 -37  15   7 561.918 28.0750   2
  15  37   7 516.410 26.3545   4
  -7  37 -15 525.494 23.2345   4
   9  37 -15 1130.59 44.5923   4
 -15  37   9 1087.63 42.2664   4
  -9  37  15 1063.94 43.8942   4
 -37  15   9 1119.60 44.7823   2
   9  37  15 1143.89 44.2628   4
  15  37   9 1157.84 43.6439   4
  -9  37 -15 1056.94 40.6563   4
  11  37 -15 133.107 18.5701   4
  11  37  15 144.646 17.3462   4
 -37  15  11 132.160 18.7124   2
  15  37  11 108.096 16.5478   4
  13  37 -15 29.2704 17.7760   4
 -37  13  15 47.6566 18.2441   2
 -37  15  13 41.1094 17.8259   2
 -15  37  13 24.5683 11.2052   2
  13  37  15 35.7999 15.1824   4
  15  37  13 54.0247 15.1043   4
 -37  13 -15 40.5564 10.0739   2
 -15  37  15-3.25167 9.55438   2
 -37  15  15-2.95400 18.3368   2
  37  15 -15-5.84027 9.57762   4
  15  37  15 4.13939 14.1523   4
  17  37   1 215.824 18.6778   4
  17  37  -1 223.997 18.9218   4
  -1  37 -17 195.554 15.4122   4
   1  37 -17 195.370 16.8426   4
 -17  37   1 207.075 13.0438   4
 -37  17   1 244.190 19.3190   2
 -37  17  -1 216.040 17.9754   2
  -3  37 -17 174.520 14.8753   4
  17  37  -3 172.348 18.4186   4
   3  37 -17 167.737 17.0097   4
 -37  17   3 193.283 18.9829   2
 -17  37   3 190.695 13.0655   4
  -3  37  17 205.222 19.6459   4
   3  37  17 192.330 18.4208   4
 -37  17  -3 185.839 17.7898   2
  17  37   3 179.369 17.7830   4
  17  37  -5 770.175 33.7797   4
   5  37 -17 727.346 32.2485   4
  -5  37  17 740.719 33.3628   4
 -37  17  -5 770.869 32.5720   2
   5  37  17 803.649 33.9266   4
  17  37   5 714.999 32.4926   4
 -37  17   5 732.165 33.5117   2
  -5  37 -17 726.129 30.2121   4
 -37  17   7 11.9353 17.3993   2
  17  37  -7 18.9502 16.6654   4
   7  37 -17 39.2594 16.4900   4
  -7  37  17 26.5607 16.8315   4
   7  37  17 31.3990 15.3898   4
  17  37   7 60.3262 15.0495   4
  -7  37 -17 25.1796 9.69790   4
  17  37  -9 247.609 20.0407   4
   9  37 -17 234.727 20.2963   4
   9  37  17 247.069 19.8521   4
  17  37   9 259.449 18.4747   4
 -37  17   9 258.723 21.6476   2
  17  37 -11 1876.24 70.8152   4
  11  37 -17 1929.35 70.5535   4
 -37  17  11 1899.71 71.0196   2
  11  37  17 1959.55 69.8560   4
  17  37  11 1934.54 69.6888   4
 -17  37  11 1842.08 68.6750   2
  13  37 -17 200.268 20.2502   4
 -17  37  13 196.444 15.0494   2
  13  37  17 221.102 17.5838   4
 -37  17  13 233.982 20.6511   2
  17  37  13 222.737 17.2463   4
  37  13 -17 203.901 14.2222   4
 -17  37  15 11.5088 10.4488   2
  15  37 -17 15.1115 17.8181   4
 -37  17  15 12.5975 18.0908   2
  37  17 -15 10.3003 9.76491   4
  15  37  17-8.33325 12.4950   4
  17  37  15-4.29167 13.2843   4
  37  15 -17 10.5713 10.6680   4
  17  37  17 2.23073 11.6952   4
  37  17 -17 13.1129 10.7819   4
 -17  37  17 0.61445 9.35965   2
  -1  37 -19 941.093 38.0030   4
   1  37 -19 942.525 38.4300   4
 -37  19   1 1106.20 40.7773   2
 -37  19  -1 975.375 40.4543   2
   1  37  19 975.116 40.7523   4
  19  37   1 990.424 39.9896   4
  19  37  -1 932.969 39.9151   4
  19  37  -3 1425.50 53.7954   4
  -3  37 -19 1374.70 51.3607   4
 -37  19   3 1381.89 53.9241   2
   3  37 -19 1360.04 52.3845   4
 -37  19  -3 1417.80 53.5480   2
   3  37  19 1425.34 53.9836   4
  19  37   3 1394.41 53.0617   4
  19  37  -5 353.367 22.5146   4
   5  37 -19 336.319 21.0705   4
 -37  19   5 318.389 22.9729   2
  -5  37  19 383.932 22.4779   4
   5  37  19 320.575 21.6210   4
  19  37   5 343.436 20.8569   4
  -5  37 -19 324.420 17.3036   4
 -37  19   7 115.394 17.3054   2
  19  37  -7 122.630 17.1832   4
   7  37 -19 87.4515 15.8237   4
   7  37  19 109.231 17.2579   4
  19  37   7 91.9052 15.6725   4
  -7  37 -19 83.3582 10.3249   4
  19  37  -9 1321.51 51.1864   4
   9  37 -19 1255.74 51.0539   4
   9  37  19 1380.88 50.9357   4
 -37  19   9 1316.60 51.6811   2
  19  37   9 1314.46 49.9281   4
  19  37 -11 1127.10 46.0636   4
  11  37 -19 1198.15 45.4795   4
 -19  37  11 1092.27 43.9338   2
  11  37  19 1139.74 44.9167   4
 -37  19  11 1136.12 46.0741   2
  19  37  11 1167.97 44.3045   4
 -19  37  13 379.243 20.3721   2
  19  37 -13 420.815 24.6501   4
  13  37 -19 407.745 24.3667   4
  37  19 -13 395.005 18.6863   4
 -37  19  13 431.643 25.6240   2
  13  37  19 430.814 22.0283   4
  19  37  13 441.947 21.4105   4
  37  13 -19 368.262 19.5463   4
 -19  37  15-2.42127 10.7368   2
  19  37 -15-8.97624 17.6105   4
  15  37 -19 16.4247 17.0846   4
  37  19 -15-2.23240 10.0217   4
 -37  19  15 7.57457 17.9609   2
  15  37  19-9.87620 12.8666   4
  19  37  15 11.1885 11.3628   4
  37  15 -19 5.26871 10.9376   4
  37  19 -17 1798.01 61.4855   4
  17  37  19 1720.53 61.7273   4
 -19  37  17 1557.23 60.8967   2
  19  37  17 1746.55 61.6185   4
  37  17 -19 1725.62 61.6222   4
 -19  37  19 8.25829 8.69222   2
  19  37  19-0.31690 10.7557   4
  37  19 -19 5.24643 10.5212   4
  21  37   1 174.423 16.9106   4
  21  37  -1 165.481 17.2465   4
  -1  37 -21 180.840 14.3889   4
   1  37 -21 151.178 14.9786   4
 -37  21   1 172.209 18.2828   2
 -37  21  -1 148.909 18.5879   2
  -1  21 -37 142.384 12.4728   4
   1  37  21 202.330 19.5915   4
  21  37  -3 7.91176 15.0321   4
  -3  37 -21 15.4151 10.3825   4
   3  37 -21 8.58457 13.7775   4
 -37  21   3 17.5663 16.7218   2
   3  37  21 23.6113 16.9903   4
 -37  21  -3-13.7137 15.4009   2
  21  37   3 19.2000 14.3872   4
  21  37  -5 2367.25 84.3044   4
   5  37 -21 2398.40 83.6595   4
   5  37  21 2336.30 84.4165   4
  21  37   5 2374.85 83.5038   4
 -37  21   5 2463.64 85.2738   2
  -5  37 -21 2187.73 81.8522   4
 -37  21   7 186.168 20.0215   2
  21  37  -7 173.957 18.4978   4
   7  37 -21 213.756 18.3155   4
   7  37  21 216.617 18.9696   4
  21  37   7 184.832 15.5991   4
  21  37  -9 2310.71 82.8987   4
   9  37 -21 2239.75 82.7804   4
   9  37  21 2341.39 82.8019   4
 -37  21   9 2331.38 83.7270   2
  21  37   9 2256.17 81.8929   4
  21  37 -11 1652.26 62.6013   4
  11  37 -21 1686.34 62.3835   4
 -21  37  11 1660.49 61.0842   2
  11  37  21 1664.38 61.6486   4
 -37  21  11 1666.20 63.1606   2
  21  37  11 1675.67 60.9090   4
  21  37 -13 367.093 22.9809   4
  13  37 -21 343.671 22.3942   4
  37  21 -13 357.418 17.2654   4
  13  37  21 349.001 20.0791   4
  21  37  13 364.303 18.8831   4
 -21  37  13 337.675 19.1591   2
  21  37 -15 1304.60 49.0856   4
  15  37 -21 1226.76 48.9566   4
  37  21 -15 1236.18 45.9897   4
  15  37  21 1270.94 46.9717   4
  21  37  15 1231.62 46.3182   4
  37  15 -21 1249.47 46.7710   4
 -21  37  15 1240.25 46.6758   2
  21  37 -17 36.4405 16.7387   4
  17  37 -21 45.4544 17.0556   4
  37  21 -17 55.1402 11.0168   4
  17  37  21 52.2941 11.5643   4
  21  37  17 40.2372 10.6621   4
  37  17 -21 39.2893 11.7191   4
 -21  37  17 36.8205 10.3734   2
  21  37 -19 1209.81 44.9478   4
 -21  37  19 1103.05 41.7307   2
  37  21 -19 1150.81 42.3787   4
  21  37  19 1097.97 41.6786   4
  37  19 -21 1161.40 42.5822   4
  37  21 -21 3.05585 10.3929   4
  -1  37 -23 332.784 17.6131   4
   1  37 -23 328.600 18.4241   4
 -37  23   1 339.377 22.2901   2
 -37  23  -1 338.047 21.8489   2
  -1  23 -37 288.320 15.7448   4
   1  23 -37 292.563 16.9273   4
  23  37   1 339.781 19.0973   4
  23  37  -1 313.807 19.7749   4
  23  37  -3 43.4560 15.2338   4
  -3  37 -23 34.0148 10.1051   4
   3  37 -23 50.0706 13.3902   4
 -37  23   3 43.0056 17.4686   2
   3  23 -37 38.4549 11.9554   4
 -37  23  -3 44.6356 16.3183   2
  23  37   3 41.8861 13.6435   4
  23  37  -5 1243.22 46.1778   4
   5  37 -23 1186.66 45.3900   4
  23  37   5 1198.33 45.0258   4
  -5  37 -23 1106.87 42.9650   4
 -37  23   5 1251.53 47.5679   2
  23  37  -7 276.475 20.5545   4
 -37  23   7 319.374 22.2692   2
   7  37 -23 287.746 19.4709   4
  23  37   7 293.208 18.0382   4
  23  37  -9 372.376 22.0345   4
   9  37 -23 348.846 20.8507   4
 -23  37   9 334.950 19.8924   2
 -37  23   9 351.456 23.4016   2
  23  37   9 313.819 18.3023   4
  23  37 -11 10.1786 15.3428   4
  11  37 -23 3.33331 14.8919   4
 -23  37  11 18.9185 13.1584   2
  23  37  11 13.0438 11.2080   4
  23  37 -13 12.1118 14.7264   4
 -23  37  13 18.3853 12.5918   2
  37  23 -13 27.6873 9.39410   4
  13  37 -23 2.89040 15.6427   4
  23  37  13 21.0758 10.6584   4
  23  37 -15 127.033 17.1294   4
  15  37 -23 120.346 17.3981   4
  37  23 -15 139.735 11.7957   4
  23  37  15 127.328 11.5444   4
  37  15 -23 140.764 13.7759   4
 -23  37  15 127.415 13.3677   2
  23  37 -17 151.555 17.3843   4
  17  37 -23 175.855 17.5622   4
 -37  23  17 129.230 17.4886   2
  37  23 -17 140.208 12.3628   4
  23  37  17 138.497 11.2578   4
 -23  37  17 135.425 12.6438   2
  37  17 -23 182.943 13.8267   4
  23  37 -19 1068.89 41.0700   4
 -23  37  19 951.731 38.0797   2
  37  23 -19 1077.87 38.7900   4
  37  19 -23 1046.50 39.1479   4
  23  37 -21 460.975 24.0512   4
  37  23 -21 502.855 21.6525   4
  37  21 -23 499.565 21.6199   4
  23  37 -23-12.8701 13.4261   4
  37  23 -23 10.5228 10.1159   4
  -1  37 -25 2316.75 83.6930   4
   1  37 -25 2414.71 84.2441   4
 -37  25   1 2452.44 86.2355   2
 -37  25  -1 2406.77 86.1864   2
   1  25 -37 2368.79 83.6291   4
  25  37   1 2379.70 84.7096   4
  25  37  -1 2371.42 84.8795   4
  -3  37 -25 3119.79 114.491   4
 -37  25   3 3459.44 117.409   2
   3  37 -25 3281.55 115.656   4
 -37  25  -3 3513.16 117.267   2
   3  25 -37 3216.36 115.253   4
  25  37   3 3408.44 115.822   4
  25  37  -3 3421.29 116.227   4
  25  37  -5-5.14056 13.6362   4
   5  37 -25 6.40067 12.9065   4
 -37  25   5 2.74835 17.2371   2
   5  25 -37 16.2478 11.9787   4
  25  37   5-7.36476 12.3354   4
  25  37  -7 816.577 33.6315   4
   7  37 -25 803.410 32.8516   4
   7  25 -37 760.597 32.2819   4
  25  37   7 776.871 31.5676   4
 -37  25   7 814.416 35.3768   2
 -25  37   7 768.042 33.6487   2
  25  37  -9 7042.71 238.763   4
   9  37 -25 6955.67 238.538   4
 -25  37   9 6839.24 238.575   2
  25  37   9 6881.83 237.624   4
   9  25 -37 7076.12 238.488   4
 -25  37  11 4297.49 149.777   2
  25  37 -11 4590.72 150.279   4
  37  25 -11 4128.22 148.156   4
  11  37 -25 4528.39 150.133   4
  25  37  11 4183.95 148.580   4
  11  25 -37 4439.46 150.004   4
 -25  37  13 108.189 13.4365   2
  25  37 -13 112.273 15.9376   4
  37  25 -13 107.556 10.2885   4
  13  37 -25 121.397 16.1292   4
  25  37  13 100.890 10.1509   4
  13  25 -37 101.720 15.7182   4
  25  37 -15 6.44347 14.6507   4
  37  25 -15 11.0285 9.25246   4
  15  37 -25 1.51246 14.9190   4
 -37  25  15 10.9929 16.1612   2
  25  37  15 11.6332 7.68808   4
  37  15 -25 26.9035 11.7745   4
  15  25 -37 34.9501 14.5802   4
 -25  37  15 22.4493 11.6747   2
  25  37 -17 782.971 32.5891   4
  37  25 -17 765.115 30.2859   4
  17  37 -25 797.872 32.9385   4
 -37  25  17 808.327 33.3756   2
 -25  37  17 779.070 30.7795   2
  37  17 -25 778.889 31.3035   4
  17  25 -37 776.574 33.0796   4
  19  25 -37 5.37549 14.3863   4
  25  37 -19 3.81914 13.6748   4
  19  37 -25-21.5240 14.0899   4
  37  25 -19 11.2785 9.64255   4
  37  19 -25-6.55223 10.8739   4
  25  37 -21 3306.59 110.771   4
  37  25 -21 3108.49 109.541   4
  37  21 -25 3158.02 109.797   4
  21  25 -37 3139.17 110.891   4
  25  37 -23 1358.14 49.3123   4
  37  25 -23 1277.95 47.9114   4
  37  23 -25 1329.40 48.1475   4
  23  25 -37 1407.08 49.5150   4
  25  37 -25 8.86903 11.0419   4
  37  25 -25-8.28438 7.39931   4
  -1  37 -27 427.278 19.9218   4
   1  37 -27 438.642 20.5791   4
 -37  27   1 519.224 25.2368   2
 -37  27  -1 490.228 25.2976   2
   1  27 -37 437.071 19.7684   4
  27  37   1 471.750 21.6931   4
  27  37  -1 482.159 21.7721   4
  27  37  -3 3.91756 12.1877   4
   3  37 -27 13.7764 11.0740   4
 -37  27   3-2.63366 15.2707   2
   3  27 -37 18.1326 9.97238   4
 -37  27  -3-2.14874 15.4844   2
  27  37   3-2.58980 11.1484   4
   5  37 -27 1792.55 63.3988   4
   5  27 -37 1716.58 63.0279   4
  27  37   5 1697.22 62.7527   4
 -37  27   5 1771.62 65.4242   2
  27  37  -5 1814.54 63.8527   4
  27  37  -7 19.9802 13.4561   4
   7  37 -27 7.45106 12.0203   4
   7  27 -37 27.3541 12.0380   4
 -27  37   7 12.8254 14.9465   2
  27  37   7 12.4125 9.67612   4
  27  37  -9 137.230 15.2193   4
   9  37 -27 145.115 14.8129   4
 -27  37   9 147.463 15.6109   2
  27  37   9 122.327 10.7572   4
   9  27 -37 122.904 13.7322   4
  37  27 -11 224.398 12.1182   4
  27  37 -11 256.339 16.8416   4
 -27  37  11 218.509 16.2282   2
  11  37 -27 265.290 17.4334   4
  27  37  11 202.177 12.2202   4
  11  27 -37 204.310 15.9072   4
  27  37 -13 52.8752 13.6377   4
  37  27 -13 42.1079 8.85574   4
  13  37 -27 34.3214 13.7193   4
 -37  27  13 32.4593 16.0572   2
  13  27 -37 37.1737 13.6314   4
 -27  37  13 7.46990 12.3127   2
  27  37 -15 308.035 18.5551   4
  37  27 -15 275.600 14.7303   4
  15  37 -27 304.845 18.7698   4
 -37  27  15 322.939 19.9555   2
 -27  37  15 285.253 16.4005   2
  15  27 -37 321.370 18.6653   4
  37  15 -27 283.668 16.8666   4
  27  37 -17 428.447 20.2928   4
  37  27 -17 382.681 17.5365   4
  17  37 -27 383.349 20.7203   4
 -27  37  17 357.438 18.1690   2
  17  27 -37 405.155 20.6729   4
  37  17 -27 391.201 18.9816   4
  27  37 -19 668.304 27.7256   4
  37  27 -19 634.833 25.8010   4
  19  37 -27 663.493 28.2087   4
  37  19 -27 666.315 26.6747   4
  19  27 -37 680.595 28.0477   4
  27  37 -21 148.165 13.5322   4
  37  27 -21 119.497 10.4386   4
  37  21 -27 147.268 11.1926   4
  21  27 -37 129.067 13.8549   4
  27  21 -37 139.110 14.5353   4
  27  37 -23-2.87450 10.6945   4
  37  27 -23 3.40041 7.55955   4
  37  23 -27 5.43523 7.60489   4
  23  27 -37-8.40851 11.6086   4
 -37  27 -23-0.14061 4.82872   2
  27  23 -37-6.72476 11.3785   4
  27  37 -25 1135.86 37.4243   4
  25  37 -27 1085.98 37.2958   4
  37  27 -25 893.630 35.7835   4
  37  25 -27 934.650 35.8913   4
  27  25 -37 1114.01 37.6121   4
  27  37 -27-0.39517 7.79602   4
  37  27 -27-0.68735 5.24889   4
  -1  37 -29 692.974 28.1877   4
   1  37 -29 728.318 29.0765   4
 -37  29   1 749.386 32.9892   2
 -37  29  -1 832.619 32.6293   2
  29  37   1 763.319 29.6333   4
  29  37  -1 819.345 30.0398   4
   3  37 -29 59.2580 10.3927   4
 -37  29   3 57.1506 16.5745   2
   3  29 -37 58.5755 9.95606   4
 -37  29  -3 84.9493 15.9147   2
  29  37   3 70.2304 10.1896   4
  29  37  -3 52.5630 11.2737   4
   5  37 -29 4027.75 141.174   4
 -29  37   5 4278.39 142.561   2
   5  29 -37 3968.70 140.938   4
 -37  29  -5 4277.05 142.513   2
  29  37   5 3990.43 140.551   4
  29  37  -5 4174.07 141.513   4
   7  37 -29 255.437 15.3756   4
   7  29 -37 223.047 14.7247   4
  29  37   7 209.920 12.3370   4
 -29  37   7 254.402 17.8185   2
  29  37  -7 245.399 15.3945   4
   9  37 -29 757.644 30.6730   4
   9  29 -37 703.227 30.1873   4
 -29  37   9 762.760 31.6430   2
  29  37  -9 802.429 30.8297   4
  29  37 -11 1559.88 53.9441   4
  11  37 -29 1518.26 53.9359   4
 -37  29  11 1465.09 55.0364   2
  11  29 -37 1531.32 53.8339   4
 -29  37  11 1549.66 54.3837   2
  37  29 -11 1344.45 51.7418   4
  37  29 -13 2.81295 7.64199   4
  29  37 -13-3.44398 11.9499   4
  13  37 -29 1.90652 12.0921   4
 -37  29  13 11.0238 14.0814   2
  13  29 -37 2.50397 11.7481   4
 -29  37  13 12.6041 11.7858   2
  29  37 -15 463.151 21.6021   4
  37  29 -15 432.347 19.1396   4
  15  37 -29 491.903 22.3513   4
 -37  29  15 489.387 23.1180   2
 -29  37  15 485.867 21.1374   2
  15  29 -37 502.470 22.2752   4
  37  15 -29 497.908 21.4356   4
  29  37 -17 99.2976 12.1167   4
  17  37 -29 69.9661 12.9419   4
 -29  37  17 74.0801 10.2151   2
  17  29 -37 102.368 12.9798   4
  37  17 -29 96.0600 11.0943   4
  29  37 -19 1934.92 65.5901   4
  19  37 -29 1910.04 65.7999   4
  37  19 -29 1910.64 64.9832   4
  29  19 -37 2005.72 66.2773   4
  19  29 -37 2000.67 65.8435   4
  29  37 -21-5.89952 9.60861   4
  37  29 -21 3.98001 6.24664   4
  21  37 -29 4.84963 10.3710   4
  37  21 -29 2.55839 7.65191   4
  21  29 -37 31.9360 10.7661   4
  29  21 -37-3.26975 11.1677   4
 -37  29 -21-9.91747 6.39930   2
  29  37 -23 68.9743 9.57620   4
  37  29 -23 60.1732 6.52914   4
  37  23 -29 49.7103 7.57967   4
  23  29 -37 60.4465 9.88366   4
  29  23 -37 66.4396 10.0806   4
  29  37 -25 1655.43 45.7165   4
  29  25 -37 1656.44 45.9892   4
  29  37 -27 107.114 7.43277   4
  27  37 -29 117.825 7.90521   4
  29  27 -37 105.913 7.76332   4
 -31  37   1 1003.89 37.3358   2
   1  37 -31 842.879 33.1965   4
 -37  31   1 1018.36 37.2657   2
 -37  31  -1 1030.67 37.4659   2
  31  37   1 863.777 33.6905   4
  31  37  -1 903.310 34.0297   4
   3  37 -31 919.588 34.7134   4
   3  31 -37 869.554 34.2274   4
 -31  37   3 1072.95 38.0070   2
 -37  31  -3 1063.52 38.0031   2
  31  37   3 880.232 34.1295   4
  31  37  -3 991.224 35.1548   4
   5  37 -31 33.1535 9.70479   4
   5  31 -37 49.2374 8.83218   4
 -31  37   5 54.9598 14.5992   2
 -37  31  -5 62.7232 14.5566   2
  31  37  -5 40.3574 9.91130   4
   7  37 -31 833.657 31.9155   4
   7  31 -37 770.246 31.4585   4
 -37  31  -7 835.425 33.9163   2
  31  37  -7 849.061 31.8348   4
 -31  37   7 852.815 33.5903   2
   9  37 -31 1835.40 66.7946   4
   9  31 -37 1813.21 66.7073   4
 -37  31   9 1931.43 68.1580   2
 -31  37   9 1967.50 67.7902   2
  31  37  -9 1901.97 66.7536   4
  11  37 -31 933.180 35.2291   4
  11  31 -37 906.997 35.0311   4
 -37  31  11 992.354 36.6872   2
 -31  37  11 948.115 35.8628   2
  31  37 -11 857.530 34.8317   4
  37  31 -13 21.6211 6.59585   4
  31  37 -13 6.52915 9.70069   4
  13  37 -31 23.1826 10.9576   4
  13  31 -37 6.54700 10.2161   4
 -37  31  13 34.9872 12.9700   2
 -31  37  13 24.8761 10.9232   2
  37  13 -31 20.8477 10.2592   4
  37  31 -15 14.9016 6.42332   4
  31  37 -15 16.0550 9.70140   4
  15  37 -31 14.6872 10.6484   4
 -37  31  15 44.3764 11.8321   2
 -31  37  15 16.1126 9.38490   2
  15  31 -37 19.9045 10.1121   4
  37  15 -31 25.9718 9.73720   4
  37  31 -17 2.66145 5.89466   4
  31  37 -17 8.79764 9.28158   4
  17  37 -31 7.10063 10.1904   4
  37  17 -31-4.12276 8.56676   4
  17  31 -37 10.6494 10.1403   4
  31  17 -37-10.9301 11.6455   4
  37  31 -19 4.40251 5.40037   4
  31  37 -19 39.9257 8.92884   4
  19  37 -31 24.2944 9.92402   4
  19  31 -37 29.2219 9.59158   4
  37  19 -31 21.0639 7.72368   4
  31  19 -37 46.7648 10.8466   4
 -37  31 -19 19.6689 6.88743   2
  31  37 -21 1111.62 33.0837   4
  21  37 -31 1234.55 33.7467   4
  21  31 -37 1155.26 33.5765   4
  31  21 -37 1172.76 33.8014   4
  31  37 -23 243.737 11.4001   4
  23  37 -31 257.990 11.9631   4
  23  31 -37 301.198 12.5841   4
  31  23 -37 259.141 12.2357   4
  31  37 -25 20.5241 5.16851   4
  25  31 -37 24.2048 6.32572   4
 -37  33  -1 251.622 17.3291   2
 -33  37   1 247.132 17.4943   2
 -33  37  -1 216.157 17.3558   2
   3  37 -33 46.0086 6.73428   4
 -33  37   3 52.8360 13.5165   2
 -37  33  -3 54.2762 13.4889   2
  33  37  -3 39.7668 7.12266   4
   5  37 -33 453.087 17.9743   4
   5  33 -37 375.599 17.5399   4
 -37  33  -5 492.546 21.8722   2
  33  37  -5 443.226 17.7844   4
 -33  37   5 504.279 21.7851   2
 -33  37   7 78.7661 12.7617   2
   7  37 -33 69.8738 8.99995   4
   7  33 -37 52.7268 8.36372   4
 -37  33  -7 63.5310 12.8567   2
 -37  33   7 65.5843 13.4173   2
  33  37  -7 62.6878 8.59030   4
   9  37 -33 0.45664 8.46966   4
   9  33 -37 8.63019 8.50611   4
 -37  33   9 16.0928 12.3936   2
 -37  33  -9 0.29462 11.6742   2
 -33  37   9 12.1976 11.5506   2
  33  37  -9 2.49582 7.24088   4
  11  37 -33 21.7452 8.97774   4
  11  33 -37 4.08953 8.77041   4
 -37  33  11 10.3461 11.6183   2
 -33  37  11 2.16286 10.4355   2
 -37  33 -11-4.40554 10.7132   2
  33  37 -11 4.32126 7.36231   4
  33  37 -13 87.0577 8.35686   4
  13  37 -33 67.9376 9.67675   4
  13  33 -37 95.0179 9.85387   4
 -37  33  13 102.598 11.4078   2
 -33  37  13 85.6827 10.6330   2
  37  13 -33 80.5720 9.73697   4
 -37  33 -13 66.5405 10.7021   2
  33  37 -15 48.9714 7.64872   4
  15  37 -33 57.7697 9.06042   4
  15  33 -37 67.0624 9.22947   4
  37  15 -33 41.9697 8.19495   4
 -37  33 -15 46.8571 9.06159   2
  33  15 -37 59.7992 10.4348   4
  33  37 -17 17.0187 6.99001   4
  17  37 -33 16.3337 8.44207   4
  17  33 -37 21.8234 8.38322   4
  37  17 -33 3.51983 7.03978   4
  33  17 -37 21.6055 9.01596   4
 -37  33 -17 9.92821 7.12345   2
  19  37 -33 149.577 9.52631   4
 -37  33 -19 106.255 7.64066   2
  19  33 -37 146.500 9.39044   4
  37  19 -33 114.863 7.88682   4
  33  19 -37 126.225 9.61732   4
  33  37 -19 116.213 8.02626   4
  33  37 -21 16.9070 4.99030   4
  21  37 -33 30.6915 6.79038   4
  21  33 -37 19.3611 6.50457   4
  33  21 -37 33.4659 6.50948   4
  23  37 -33 25.7097 5.06632   4
  33  23 -37 8.86519 4.68568   4
 -35  37   1 38.2140 12.0558   2
 -37  35  -1 53.7774 12.0916   2
 -35  37   3 103.805 12.7048   2
 -37  35  -3 126.364 12.7951   2
 -35  37   5 74.4081 11.9304   2
 -37  35  -5 78.5242 11.9393   2
 -37  35   5 68.7725 12.0254   2
   7  37 -35 5.47277 5.83184   4
   7  35 -37 8.17065 5.44114   4
 -37  35  -7-3.99225 10.8773   2
 -35  37  -7 15.5210 10.6896   2
 -37  35   7-4.56948 10.8694   2
 -35  37   7 27.7163 10.7602   2
   9  37 -35 144.288 9.27666   4
   9  35 -37 141.578 9.31134   4
 -37  35  -9 198.210 12.8530   2
 -37  35   9 208.807 13.0912   2
 -35  37   9 188.873 12.4060   2
 -35  37  -9 187.358 13.1430   2
  11  37 -35 324.985 15.5642   4
  11  35 -37 352.404 15.3495   4
 -37  35 -11 418.513 17.4336   2
 -37  35  11 427.430 17.7625   2
 -35  37  11 444.145 17.6208   2
 -35  37 -11 420.706 17.9306   2
  37  11 -35 334.031 16.1800   4
  13  37 -35 72.0128 7.40732   4
  13  35 -37 86.0539 7.47895   4
 -37  35 -13 79.6947 8.94224   2
  37  13 -35 72.9968 7.52890   4
  35  13 -37 81.4152 9.01838   4
 -35  37 -13 88.4797 9.59333   2
  35  37 -13 43.4061 5.18511   4
  15  37 -35 14.4192 6.29262   4
  15  35 -37 4.25717 6.24187   4
  37  15 -35 11.7994 6.11065   4
 -37  35 -15 2.17401 6.83689   2
  35  15 -37-0.92515 6.84556   4
 -35  37 -15-9.38053 7.42398   2
  17  37 -35 18.3170 6.12819   4
  17  35 -37 15.3144 5.94373   4
  37  17 -35 4.20183 4.75020   4
 -37  35 -17 13.2834 5.39369   2
  35  17 -37 15.2667 5.94978   4
 -35  37 -17 10.3480 6.17672   2
  19  37 -35 4.02098 5.16592   4
  19  35 -37-3.29829 4.81800   4
 -35  37 -19-4.49763 4.37345   2
  35  19 -37 5.01885 4.65385   4
 -37  37  -3-6.08788 9.58264   2
 -37  37   3 6.82186 9.66418   2
 -37  37  -5 18.7037 9.13354   2
 -37  37   5-4.07978 9.11065   2
 -37  37  -7-13.0754 8.76326   2
 -37  37   7-11.6032 8.82297   2
 -37  37   9-4.01849 8.08497   2
 -37  37  -9-2.44583 7.81876   2
  37   9 -37-2.52906 5.60308   4
 -37  37 -11 22.9777 7.24885   2
  37  11 -37-0.85348 5.26931   4
 -37  37 -13 1.44705 5.97250   2
 -37  37 -15 5.42576 4.68524   2
   0  38   0 1229.84 48.1139   4
 -38   2   0 31.9670 10.3602   2
   0  38   2 43.7440 15.8088   4
  -2  38   0 50.9551 14.6811   4
   2  38   0 54.1579 15.2646   4
   0  38  -2 40.4270 15.1740   4
  -2  38   2 1460.15 56.5123   4
   2  38   2 1516.64 56.6234   4
  -2  38  -2 1483.86 56.2435   4
   2  38  -2 1517.36 56.6351   4
 -38   4   0 585.232 25.3233   2
   0  38   4 594.316 28.1472   4
  -4  38   0 560.155 27.0344   4
   4  38   0 581.727 27.9731   4
   0  38  -4 557.038 27.2315   4
 -38   4   2 476.196 22.4573   2
 -38   4  -2 485.200 21.6613   2
  -2  38   4 496.356 24.3679   4
  -4  38   2 455.280 24.2953   4
   2  38   4 446.961 25.4125   4
  -4  38  -2 487.791 23.7689   4
   4  38   2 503.909 25.1848   4
  -2  38  -4 455.557 23.7254   4
   4  38  -2 452.365 25.0836   4
   2  38  -4 472.510 24.8966   4
   4  38  -4 120.501 16.6475   4
 -38   4   4 58.9456 13.3549   2
  -4  38   4 116.292 16.2967   4
   4  38   4 90.4138 17.9062   4
  -4  38  -4 120.172 14.7011   4
 -38   6   0 1142.19 42.5655   2
   0  38   6 1072.55 44.3069   4
  -6  38   0 1093.90 43.0310   4
   6  38   0 1068.70 44.3614   4
   0  38  -6 1119.45 43.4519   4
   6  38  -2 227.910 19.4879   4
   2  38  -6 222.108 18.5212   4
 -38   6   2 181.212 15.8339   2
  -2  38   6 209.446 18.7995   4
  -6  38   2 198.121 16.7700   4
 -38   6  -2 207.821 15.1359   2
   2  38   6 215.970 19.3230   4
  -6  38  -2 192.283 15.5186   4
  -2  38  -6 229.839 17.0499   4
   4  38  -6 372.347 21.4119   4
 -38   4   6 330.902 19.3411   2
 -38   6   4 362.748 20.0356   2
 -38   6  -4 345.188 17.8848   2
  -4  38   6 371.023 21.0018   4
  -6  38   4 340.793 20.6233   4
  -6  38  -4 312.595 19.0844   4
  -4  38  -6 319.099 18.9874   4
   6  38  -4 344.728 22.4037   4
   6  38  -6 444.185 24.5859   4
 -38   6   6 433.071 22.5565   2
  -6  38   6 431.306 22.8344   4
  -6  38  -6 405.604 21.6528   4
 -38   6  -6 438.914 20.0126   2
 -38   8   0 1254.57 46.0538   2
   0  38   8 1193.41 47.5951   4
  -8  38   0 1187.62 45.9790   4
   0  38  -8 1147.35 46.3503   4
   2  38   8 1469.99 56.8574   4
   2  38  -8 1442.06 56.1818   4
 -38   8   2 1534.83 55.7030   2
 -38   8  -2 1516.02 55.3015   2
  -2  38   8 1520.33 56.6750   4
  -8  38   2 1453.78 55.2397   4
  -8  38  -2 1467.63 55.2671   4
  -2  38  -8 1492.04 55.8168   4
 -38   8  -4 158.823 14.0278   2
   8  38  -4 180.176 19.1881   4
   4  38  -8 211.544 18.2043   4
  -8  38   4 179.994 16.0828   4
  -4  38   8 197.136 18.0652   4
 -38   8   4 200.615 16.8105   2
  -8  38  -4 181.057 15.3647   4
  -4  38  -8 157.699 15.6376   4
   8  38  -6 431.662 25.1038   4
   6  38  -8 462.901 25.0875   4
 -38   6   8 464.814 23.0703   2
 -38   8   6 438.622 22.9664   2
  -8  38   6 429.004 23.0784   4
  -6  38   8 430.113 24.1258   4
 -38   8  -6 455.122 21.2766   2
  -8  38  -6 476.445 22.0516   4
   8  38   6 450.902 25.2868   4
  -6  38  -8 449.213 21.7821   4
   8  38  -8 756.264 34.8115   4
 -38   8   8 811.977 33.9981   2
  -8  38   8 782.191 33.3491   4
   8  38   8 817.051 34.7524   4
 -38   8  -8 788.396 31.1952   2
  -8  38  -8 766.940 31.7310   4
   0  38 -10 617.154 27.5680   4
 -10  38   0 631.094 27.2056   4
   0  38  10 618.939 29.8964   4
 -38  10   0 577.159 27.3701   2
  -2  38 -10 66.1082 13.0080   4
   2  38 -10 57.9808 14.8038   4
 -38  10  -2 52.3491 12.9373   2
 -10  38   2 71.4658 13.1858   4
  -2  38  10 60.7949 15.5860   4
 -10  38  -2 38.0616 11.9354   4
 -38  10   2 59.6933 14.7360   2
  10  38   2 61.8901 17.2046   4
  -4  38 -10 39.6600 13.0888   4
   4  38 -10 39.2589 15.2263   4
 -10  38  -4 64.5150 11.9913   4
 -38  10  -4 50.9420 12.9615   2
 -10  38   4 46.9421 13.4126   4
  -4  38  10 39.7852 16.0256   4
 -38  10   4 34.6267 14.2940   2
  10  38   4 48.8101 16.8578   4
  10  38  -6 752.497 33.6176   4
   6  38 -10 747.935 33.2095   4
 -38  10   6 767.025 33.1412   2
 -10  38   6 764.275 31.6117   4
  -6  38  10 762.095 32.6505   4
   6  38  10 773.314 33.6856   4
 -10  38  -6 780.356 30.7732   4
  10  38   6 752.071 34.0406   4
  -6  38 -10 755.564 31.1742   4
 -38  10  -6 728.600 31.0917   2
  10  38  -8 181.233 18.7995   4
   8  38 -10 154.019 18.0465   4
 -38  10  -8 163.253 13.6128   2
 -38   8  10 145.368 17.3240   2
 -10  38   8 164.389 15.2356   4
  -8  38  10 157.211 16.5786   4
 -38  10   8 136.232 16.4916   2
   8  38  10 150.136 18.5537   4
 -10  38  -8 149.559 12.8068   4
  10  38   8 143.744 18.0783   4
  -8  38 -10 152.361 12.9507   4
  10  38 -10 457.443 25.0358   4
 -38  10  10 428.674 24.2060   2
 -10  38  10 426.058 22.2479   4
  10  38  10 431.519 24.4787   4
 -10  38 -10 384.338 19.3015   4
 -38  10 -10 443.102 19.8130   2
   0  38 -12 2846.75 100.689   4
 -12  38   0 2749.12 99.6702   4
   0  38  12 2886.47 101.449   4
 -38  12   0 2929.58 100.984   2
  12  38   0 2819.31 101.585   4
   2  38 -12 3236.91 112.536   4
 -12  38   2 3133.62 111.547   4
  -2  38  12 3236.22 113.110   4
 -12  38  -2 3098.01 111.162   4
 -38  12   2 3237.40 112.853   2
  12  38   2 3186.72 112.933   4
 -38  12  -2 3273.26 112.518   2
  -2  38 -12 3191.04 112.023   4
  12  38  -2 3136.29 113.072   4
 -38  12  -4 953.951 38.2356   2
   4  38 -12 913.184 39.0101   4
 -12  38   4 944.951 37.6963   4
 -12  38  -4 950.503 36.7504   4
 -38  12   4 1013.16 39.1667   2
  -4  38  12 973.820 39.4604   4
  12  38   4 962.620 39.9462   4
  -4  38 -12 939.864 37.7559   4
   6  38 -12 159.589 17.7086   4
 -38  12  -6 179.685 14.9264   2
 -12  38   6 164.279 14.8404   4
  -6  38  12 155.695 17.4982   4
 -12  38  -6 138.857 12.4171   4
   6  38  12 150.769 18.9000   4
 -38  12   6 176.898 16.8299   2
  12  38   6 163.733 17.5187   4
  -6  38 -12 192.672 13.9366   4
 -38  12  -8 1848.64 64.7624   2
   8  38 -12 1825.48 66.1157   4
 -38  12   8 1862.12 66.6586   2
 -12  38   8 1768.62 65.0771   4
  -8  38  12 1810.14 65.7773   4
   8  38  12 1853.22 66.5551   4
 -12  38  -8 1675.56 63.2844   4
  12  38   8 1786.42 66.3510   4
  -8  38 -12 1711.57 63.7212   4
  12  38 -10 447.475 26.2061   4
  10  38 -12 450.572 25.7169   4
 -38  12 -10 476.921 21.9900   2
 -38  10  12 533.486 25.8272   2
 -38  12  10 473.683 25.0510   2
 -12  38  10 460.338 23.7230   4
 -10  38  12 476.217 24.7797   4
  10  38  12 502.662 25.9917   4
  12  38  10 445.657 25.2091   4
 -10  38 -12 456.204 20.4587   4
  12  38 -12 3681.78 125.872   4
 -38  12 -12 3537.05 123.676   2
 -38  12  12 3847.35 125.952   2
 -12  38  12 3698.83 124.930   4
  12  38  12 3728.12 125.552   4
   0  38 -14 741.638 31.6456   4
 -14  38   0 754.437 29.8380   4
 -38  14   0 752.773 32.7523   2
  14  38   0 744.760 33.4348   4
  -2  38 -14 226.452 16.4578   4
 -38  14  -2 270.558 18.0725   2
  14  38  -2 214.966 19.2683   4
   2  38 -14 242.484 17.4913   4
 -38  14   2 217.870 18.3370   2
 -14  38   2 230.868 15.1079   4
 -14  38  -2 204.471 13.8102   4
  -2  38  14 269.154 20.4057   4
  14  38   2 227.305 19.5228   4
  -4  38 -14 85.6607 12.9693   4
 -38  14   4 105.682 16.4741   2
  14  38  -4 131.852 18.8148   4
   4  38 -14 62.7720 15.9144   4
 -14  38   4 85.7212 12.3225   4
 -38  14  -4 85.6940 14.7726   2
  -4  38  14 99.1428 17.7055   4
 -14  38  -4 83.9410 10.3544   4
   4  38  14 81.0528 17.7483   4
  14  38   4 79.8644 17.1200   4
  14  38  -6 312.107 22.5569   4
   6  38 -14 302.540 20.8520   4
 -38  14  -6 313.354 18.9759   2
 -14  38   6 282.622 17.2987   4
  -6  38  14 299.332 21.1985   4
   6  38  14 310.938 21.9607   4
 -38  14   6 311.476 20.4234   2
  14  38   6 301.985 20.5591   4
  -6  38 -14 292.060 16.6509   4
   8  38 -14 238.905 19.9552   4
 -14  38   8 227.043 16.1588   4
  -8  38  14 228.675 19.2373   4
   8  38  14 236.189 19.7593   4
 -38  14   8 195.385 19.7272   2
 -38  14  -8 214.441 16.1770   2
  14  38   8 226.805 19.4838   4
  -8  38 -14 184.923 13.5350   4
  10  38 -14 656.795 30.4661   4
 -38  14 -10 626.367 27.6644   2
 -38  14  10 704.207 31.0329   2
 -14  38  10 653.287 27.7676   4
 -10  38  14 615.467 29.2844   4
  10  38  14 646.738 30.1849   4
  14  38  10 629.482 29.9403   4
  12  38 -14 102.291 17.5830   4
 -38  14  12 86.2517 18.5905   2
 -14  38  12 88.5319 11.4029   2
  12  38  14 70.1764 15.9004   4
 -38  14 -12 74.8923 11.7253   2
  14  38  12 78.7442 15.7265   4
  14  38 -14 812.721 35.4018   4
 -38  14  14 845.299 35.8589   2
 -38  14 -14 781.352 31.2149   2
  14  38  14 793.471 33.7636   4
 -14  38  14 773.682 30.8155   2
 -38  16   0 307.356 20.5403   2
   0  38 -16 335.396 19.1218   4
 -16  38   0 308.706 16.0830   4
  16  38   0 313.557 21.6680   4
  -2  38 -16 692.101 29.7612   4
   2  38 -16 670.607 30.1708   4
 -38  16  -2 716.609 31.3703   2
  -2  38  16 738.144 32.5167   4
 -16  38   2 675.954 28.2510   4
  16  38   2 688.449 31.8081   4
 -38  16   2 751.863 32.1658   2
  16  38  -2 732.351 32.4570   4
  16  38  -4 1615.89 60.6637   4
   4  38 -16 1563.05 59.8256   4
 -38  16  -4 1620.21 59.7568   2
  -4  38  16 1691.40 60.7124   4
   4  38  16 1636.35 60.6044   4
 -16  38   4 1568.93 57.8784   4
 -38  16   4 1640.77 60.7355   2
  16  38   4 1609.09 60.2349   4
  -4  38 -16 1518.78 58.2931   4
  16  38  -6 1570.21 56.2225   4
   6  38 -16 1422.77 55.5763   4
 -38  16  -6 1484.53 55.0913   2
  -6  38  16 1454.38 55.8826   4
   6  38  16 1465.97 55.9612   4
 -38  16   6 1506.56 56.2790   2
  16  38   6 1418.29 55.5025   4
  -6  38 -16 1417.08 53.2084   4
  16  38  -8 965.914 38.4003   4
   8  38 -16 941.090 37.9347   4
 -38  16  -8 903.235 36.3330   2
  -8  38  16 891.460 37.5685   4
 -38  16   8 967.856 38.2136   2
   8  38  16 868.289 37.5790   4
  16  38   8 844.572 37.2007   4
  -8  38 -16 833.720 33.7377   4
  10  38 -16 64.2624 17.0220   4
  10  38  16 73.5905 16.1526   4
 -38  16  10 57.5967 16.3865   2
  16  38  10 56.4130 15.3928   4
 -38  16 -10 78.5433 13.2554   2
  12  38 -16 130.654 17.7144   4
 -38  16  12 147.101 18.5841   2
  12  38  16 145.326 16.5141   4
 -16  38  12 119.186 12.8492   2
  16  38  12 137.398 15.5116   4
 -38  16 -12 140.912 13.3243   2
  14  38 -16 803.148 34.6062   4
 -38  16  14 821.563 35.1643   2
 -38  16 -14 768.756 30.7484   2
  14  38  16 774.387 32.6709   4
  16  38  14 780.536 32.5224   4
 -16  38  14 714.487 30.2626   2
 -38  16 -16 3909.98 136.369   2
  38  16 -16 3989.79 136.231   4
  16  38  16 4236.83 137.690   4
 -16  38  16 3772.53 136.060   2
   0  38 -18 291.942 18.4084   4
 -38  18   0 326.663 20.5644   2
  18  38   0 321.722 21.2464   4
  -2  38 -18 1357.96 50.5610   4
   2  38 -18 1335.53 51.3347   4
 -38  18  -2 1391.83 52.3925   2
   2  38  18 1376.36 52.8061   4
  18  38   2 1326.80 51.9554   4
 -38  18   2 1385.25 52.5518   2
  18  38  -2 1308.67 52.2882   4
  -4  38 -18 19.0579 10.4608   4
  18  38  -4 9.58275 16.4468   4
 -38  18   4-3.84894 16.4256   2
   4  38 -18 13.6617 13.8831   4
  -4  38  18 11.4924 17.2108   4
   4  38  18-5.50494 16.8865   4
 -38  18  -4-4.10730 14.1192   2
  18  38   4 18.3617 15.3378   4
 -38  18   6 206.672 19.8043   2
  18  38  -6 258.350 19.5224   4
   6  38 -18 228.439 18.0073   4
  -6  38  18 215.175 19.5403   4
   6  38  18 229.648 19.3664   4
 -38  18  -6 219.834 17.4222   2
  18  38   6 237.814 17.7181   4
  -6  38 -18 202.747 13.6117   4
  18  38  -8 1112.19 45.0577   4
   8  38 -18 1129.17 44.8802   4
 -38  18  -8 1135.03 44.3549   2
   8  38  18 1116.18 44.9836   4
 -38  18   8 1180.05 46.2845   2
  18  38   8 1145.80 44.3893   4
  18  38 -10 37.9719 17.7634   4
  10  38 -18 40.1968 16.3441   4
  18  38  10 57.8405 14.2443   4
 -38  18  10 67.6220 18.1868   2
 -18  38  10 43.5313 12.8582   2
 -38  18 -10 51.0481 13.4847   2
  10  38  18 44.4847 14.7498   4
  18  38 -12 8768.53 302.633   4
 -18  38  12 8571.64 301.436   2
  12  38 -18 8953.23 302.618   4
 -38  18  12 9151.78 303.040   2
  12  38  18 8961.00 302.204   4
  38  12 -18 8634.78 300.905   4
  18  38  12 9012.08 301.993   4
  14  38 -18 243.978 20.1347   4
 -38  18  14 256.135 20.6884   2
  38  14 -18 227.788 14.0846   4
  18  38  14 232.771 16.8340   4
 -18  38  14 238.255 14.7566   2
  14  38  18 231.329 17.4361   4
  16  38 -18 279.950 21.3255   4
 -38  18  16 287.530 21.9710   2
  38  18 -16 257.337 14.5161   4
  38  16 -18 291.156 15.3822   4
  16  38  18 305.199 17.7005   4
 -38  18 -16 264.428 15.4066   2
 -18  38  16 252.156 14.8539   2
  18  38  16 269.016 16.9551   4
 -18  38  18 3061.41 111.953   2
  38  18 -18 3415.03 112.686   4
 -38  18 -18 3169.28 112.182   2
  18  38  18 3430.28 113.279   4
   0  38 -20 433.483 21.9577   4
 -38  20   0 469.724 24.8383   2
  20  38   0 437.493 24.1786   4
 -38  20   2 728.137 32.3510   2
  -2  38 -20 669.146 28.6221   4
   2  38 -20 702.922 29.4939   4
 -38  20  -2 683.732 31.4695   2
   2  38  20 677.145 32.1267   4
  20  38   2 655.579 30.4003   4
  20  38  -2 726.038 30.9087   4
  20  38  -4 360.391 21.5225   4
   4  38 -20 339.717 20.0082   4
 -38  20  -4 322.891 21.4406   2
   4  38  20 353.662 21.9655   4
  20  38   4 359.021 21.0021   4
 -38  20   4 362.030 23.1393   2
  -4  38 -20 340.425 17.3824   4
 -38  20   6 124.376 19.2478   2
  20  38  -6 161.273 18.2487   4
   6  38 -20 138.299 16.5463   4
   6  38  20 132.524 17.4722   4
 -38  20  -6 154.467 16.1084   2
  20  38   6 134.856 15.0300   4
  -6  38 -20 142.703 11.2181   4
  20  38  -8 1245.84 50.1238   4
   8  38 -20 1334.83 49.5896   4
   8  38  20 1322.88 49.5919   4
 -38  20   8 1227.76 50.7535   2
  20  38   8 1296.50 48.7490   4
 -38  20  -8 1280.06 49.1238   2
  20  38 -10 63.8685 15.8001   4
  10  38 -20 75.3820 16.8156   4
  10  38  20 84.5481 15.0151   4
  20  38  10 56.2087 13.7248   4
 -20  38  10 62.9167 13.1810   2
 -38  20  10 67.7481 17.9574   2
 -20  38  12 2227.28 81.0282   2
  20  38 -12 2315.70 82.5147   4
  12  38 -20 2363.59 82.4119   4
 -38  20  12 2300.65 82.9835   2
  12  38  20 2298.82 81.7198   4
  20  38  12 2250.94 81.0441   4
  38  12 -20 2235.43 80.3325   4
 -20  38  14 13.4814 10.8612   2
  20  38 -14 21.3755 16.8818   4
  14  38 -20 28.8135 15.4854   4
  14  38  20 14.4448 12.3187   4
 -38  20  14 40.5078 17.0479   2
  20  38  14 7.20224 11.7557   4
  38  14 -20 16.6263 10.1919   4
  20  38 -16 113.203 17.7617   4
  16  38 -20 136.480 17.4887   4
  38  20 -16 120.271 10.9712   4
  16  38  20 119.329 13.7977   4
  20  38  16 126.785 12.9335   4
  38  16 -20 115.827 11.9271   4
 -20  38  16 132.720 11.8264   2
 -20  38  18 1271.47 48.1777   2
  38  20 -18 1388.70 48.7104   4
  18  38  20 1353.40 49.0182   4
  38  18 -20 1388.28 48.8841   4
  20  38  18 1350.53 48.8973   4
 -38  20 -18 1293.21 48.3948   2
  38  20 -20 292.390 15.5901   4
   0  38 -22 98.4714 13.1977   4
 -38  22   0 146.048 16.9498   2
   0  22 -38 93.7126 11.1622   4
  22  38   0 128.223 16.0433   4
  -2  38 -22 646.234 27.1415   4
 -38  22   2 716.347 31.2044   2
   2  38 -22 654.438 28.1099   4
 -38  22  -2 681.835 30.4433   2
   2  22 -38 606.272 27.1871   4
  22  38   2 667.722 29.1984   4
  22  38  -2 676.442 29.8725   4
   4  38 -22 459.667 22.7031   4
 -38  22  -4 465.641 24.7120   2
   4  38  22 514.098 25.8571   4
  22  38   4 507.500 23.3105   4
 -38  22   4 477.167 25.9891   2
  -4  38 -22 432.638 20.5381   4
  22  38  -4 501.068 24.6375   4
  22  38  -6 35.2024 15.6184   4
 -38  22   6 39.1246 17.3197   2
   6  38 -22 30.1647 14.0270   4
   6  38  22 46.7453 15.9968   4
 -38  22  -6 52.2582 15.1590   2
  22  38   6 33.7028 12.8152   4
  22  38  -8 272.229 20.0868   4
   8  38 -22 259.738 19.0457   4
   8  38  22 291.024 19.2014   4
  22  38   8 268.623 17.2494   4
 -38  22   8 257.892 20.9354   2
  22  38 -10 77.5701 16.2376   4
  10  38 -22 51.3171 14.7050   4
  10  38  22 82.3212 14.8606   4
 -22  38  10 73.3953 13.5896   2
  22  38  10 76.7005 12.3865   4
 -38  22  10 61.3370 17.8158   2
  22  38 -12 6.24980 15.5234   4
  12  38 -22 11.8388 14.3788   4
 -22  38  12 19.1511 11.9545   2
  12  38  22 21.7079 13.0820   4
  22  38  12 7.23971 11.2435   4
 -38  22  12 6.24381 17.4590   2
  38  12 -22 10.4675 10.6488   4
 -22  38  14 80.8899 12.1890   2
  22  38 -14 77.9441 16.9707   4
  14  38 -22 96.4441 16.3627   4
  22  38  14 72.6374 11.3356   4
  38  14 -22 63.7507 11.3600   4
  22  38 -16 460.982 23.8681   4
  16  38 -22 451.929 23.7285   4
  38  22 -16 418.874 18.9476   4
 -22  38  16 429.632 19.8499   2
  22  38  16 408.878 19.1925   4
  38  16 -22 447.972 20.2210   4
  22  38 -18 136.025 16.2809   4
  18  38 -22 153.593 16.7644   4
  38  22 -18 133.760 11.0506   4
 -22  38  18 133.950 10.9613   2
  22  38  18 120.161 10.3306   4
  38  18 -22 148.084 12.1511   4
  22  38 -20 6.79147 13.7097   4
  38  22 -20 16.8982 9.07658   4
  38  20 -22-7.62742 9.42256   4
 -38  22 -20 7.45431 7.82832   2
  38  22 -22 218.965 13.1108   4
   0  38 -24 376.615 18.6262   4
 -38  24   0 368.670 21.9744   2
   0  24 -38 336.332 16.8386   4
  24  38   0 399.492 19.8768   4
  24  38  -2-3.12313 13.5747   4
  -2  38 -24 3.55307 9.53547   4
   2  38 -24-13.2612 11.8478   4
 -38  24   2-4.06366 16.5358   2
 -38  24  -2 19.4669 15.9032   2
   2  24 -38 22.3377 10.2424   4
  24  38   2 14.1820 12.3693   4
   4  38 -24 715.458 29.5957   4
 -38  24  -4 752.723 31.6590   2
   4  24 -38 691.773 28.9497   4
  24  38   4 711.915 29.6567   4
 -38  24   4 741.860 32.6279   2
  -4  38 -24 670.566 27.2415   4
  24  38  -4 700.302 30.7728   4
  24  38  -6 458.395 23.5469   4
   6  38 -24 435.519 22.4784   4
 -38  24  -6 454.260 23.9062   2
   6  24 -38 428.524 21.7403   4
  24  38   6 452.421 21.8479   4
 -38  24   6 492.171 25.6758   2
  24  38  -8 5.57290 14.6079   4
   8  38 -24 13.4151 13.4588   4
 -24  38   8-7.52860 13.6188   2
  24  38   8 16.9674 11.6339   4
   8  24 -38 24.7421 12.9052   4
 -38  24   8 2.22107 16.1810   2
  24  38 -10 378.063 21.1756   4
 -24  38  10 381.627 20.4707   2
  10  38 -24 364.794 21.5911   4
 -38  24  10 388.704 22.9399   2
  24  38  10 383.405 18.7436   4
  10  24 -38 382.465 20.6474   4
  24  38 -12 1.94507 14.6101   4
 -24  38  12-0.34955 11.9915   2
  12  38 -24-2.29478 14.3922   4
  24  38  12 0.28505 9.61136   4
  38  12 -24 6.43754 10.5101   4
  12  24 -38 0.38267 14.1667   4
  24  38 -14 3.42466 14.9261   4
  38  24 -14 10.6776 8.18483   4
  14  38 -24 16.1411 14.5110   4
  24  38  14 3.90315 8.74030   4
  38  14 -24 19.6867 10.6318   4
  14  24 -38 1.13762 14.4221   4
 -24  38  14-15.2447 11.2847   2
  24  38 -16 187.379 16.9248   4
  38  24 -16 157.551 11.3129   4
  16  38 -24 190.159 16.2967   4
  24  38  16 168.715 10.9439   4
 -24  38  16 153.191 12.7345   2
  38  16 -24 160.975 12.8487   4
  16  24 -38 171.056 16.5664   4
  24  38 -18 108.122 15.2245   4
  18  38 -24 113.383 14.9028   4
  38  24 -18 111.825 10.2711   4
 -24  38  18 117.838 10.5960   2
  38  18 -24 125.748 11.6461   4
  18  24 -38 107.500 15.3340   4
  24  38 -20 294.068 17.6716   4
  38  24 -20 327.404 14.6901   4
  38  20 -24 281.077 14.9038   4
 -38  24 -20 250.450 13.8467   2
  20  24 -38 354.192 19.1430   4
  38  24 -22 13.0331 8.24036   4
  38  22 -24 9.27541 8.60725   4
  22  24 -38 7.00223 13.0832   4
  24  38 -24 508.851 21.2477   4
  38  24 -24 425.555 18.2515   4
   0  38 -26 276.053 15.4172   4
 -38  26   0 285.501 20.6583   2
  26  38   0 308.712 17.3102   4
  -2  38 -26 2.04485 8.36119   4
   2  38 -26 9.12904 10.7534   4
 -38  26   2-10.7340 16.2109   2
   2  26 -38 11.6920 9.45731   4
 -38  26  -2 15.6407 15.8429   2
  26  38   2 6.06738 11.7959   4
  26  38  -2 10.9453 12.5159   4
  26  38  -4 101.474 14.2282   4
   4  38 -26 121.568 13.1188   4
 -38  26   4 124.132 17.6200   2
   4  26 -38 138.535 12.1165   4
 -38  26  -4 116.088 16.5465   2
  26  38   4 109.460 12.7678   4
  26  38  -6 52.1724 13.4390   4
 -38  26   6 60.2574 16.3863   2
   6  38 -26 59.3207 12.8389   4
   6  26 -38 80.7833 12.2813   4
  26  38   6 80.0803 11.2575   4
 -26  38   6 59.7371 15.0948   2
 -38  26  -6 52.7393 14.2829   2
  26  38  -8 53.4127 14.1967   4
   8  38 -26 30.3393 12.7583   4
 -26  38   8 37.4714 13.8863   2
  26  38   8 36.6169 10.0497   4
   8  26 -38 52.5371 12.5550   4
 -38  26  -8 25.1896 13.6547   2
 -38  26   8 45.2538 17.3779   2
  26  38 -10 53.2658 14.0170   4
  10  38 -26 57.4153 13.4238   4
 -26  38  10 60.8012 12.9619   2
  26  38  10 63.7135 9.59349   4
  10  26 -38 70.0341 12.7451   4
 -26  38  12 121.320 13.2457   2
  26  38 -12 107.961 14.9464   4
  12  38 -26 123.101 14.3667   4
  26  38  12 106.115 9.80325   4
  12  26 -38 108.158 14.1805   4
  38  12 -26 110.465 11.7704   4
  26  38 -14-4.15053 12.6315   4
  38  26 -14 4.56820 7.04809   4
  14  38 -26 6.88282 13.8498   4
  26  38  14-4.43192 7.02427   4
  14  26 -38 10.0306 12.6637   4
  38  14 -26 21.0166 10.4608   4
 -26  38  14-4.61962 10.5849   2
  26  38 -16 444.974 21.5627   4
  38  26 -16 426.551 18.3794   4
  16  38 -26 452.990 21.7381   4
 -26  38  16 436.959 19.6361   2
  38  16 -26 446.103 19.7728   4
  16  26 -38 455.820 22.2087   4
  38  26 -18 175.017 10.7283   4
  26  38 -18 201.514 15.5596   4
  18  38 -26 184.048 14.5515   4
  18  26 -38 205.033 15.2148   4
  38  18 -26 197.186 12.3343   4
 -38  26 -18 159.244 11.5699   2
  26  38 -20 585.866 23.9271   4
  38  26 -20 504.376 20.8169   4
  20  38 -26 635.786 24.3495   4
 -38  26 -20 455.871 20.8312   2
  38  20 -26 548.688 21.8797   4
  20  26 -38 626.794 24.3393   4
  26  38 -22 154.484 12.9138   4
  38  26 -22 118.404 8.97418   4
  38  22 -26 130.474 9.88146   4
  22  26 -38 170.308 13.4547   4
  26  38 -24 125.529 11.3264   4
  38  26 -24 93.7594 7.53792   4
  38  24 -26 98.0409 7.93855   4
  24  26 -38 147.185 12.0073   4
  26  38 -26 89.9332 9.42909   4
  38  26 -26 58.0011 5.46950   4
   0  38 -28 30.9370 8.54554   4
 -38  28   0 24.8588 15.1148   2
  28  38   0 20.9742 10.9473   4
   2  38 -28 175.013 12.3856   4
 -38  28   2 172.459 17.5731   2
   2  28 -38 146.677 11.0523   4
 -38  28  -2 211.006 17.7107   2
  28  38   2 159.795 12.9803   4
  28  38  -2 187.491 13.9020   4
   4  38 -28 55.6678 10.9492   4
 -38  28   4 68.7891 15.6461   2
   4  28 -38 50.3331 9.48925   4
 -38  28  -4 58.2080 15.2351   2
  28  38   4 51.3844 9.84213   4
 -28  38   4 33.8163 14.1126   2
  28  38  -4 60.2011 12.1148   4
  28  38  -6 79.9440 12.5208   4
 -38  28   6 64.0670 16.1675   2
   6  38 -28 52.8479 11.2716   4
   6  28 -38 65.5652 10.7103   4
 -28  38   6 59.4370 14.3726   2
  28  38   6 63.0180 9.44837   4
 -38  28  -6 63.3554 14.5887   2
  28  38  -8 7.15782 11.4916   4
   8  38 -28-4.10294 11.8919   4
 -28  38   8 11.3622 12.5097   2
   8  28 -38 3.90801 10.7689   4
  28  38   8 8.21967 7.62515   4
 -38  28  -8 21.3405 13.7280   2
  28  38 -10 0.32062 11.8256   4
 -28  38  10 6.33904 12.1090   2
  10  38 -28 6.37269 11.4513   4
  28  38  10 22.3208 6.88602   4
  10  28 -38 1.54172 11.1214   4
 -38  28 -10 16.4605 12.7444   2
  28  38 -12 114.826 13.5212   4
  12  38 -28 124.662 13.4586   4
  12  28 -38 79.5874 12.5593   4
  38  12 -28 120.391 11.4677   4
 -28  38  12 133.431 12.9042   2
  28  38 -14 41.4766 12.6316   4
  14  38 -28 40.6799 12.1837   4
 -38  28  14 54.7938 14.0649   2
  14  28 -38 42.0937 11.8115   4
 -28  38  14 44.0282 10.6195   2
  38  14 -28 36.5686 10.1672   4
  38  28 -16 259.946 12.8567   4
  28  38 -16 307.034 17.0593   4
  16  38 -28 309.952 17.2238   4
 -28  38  16 303.814 15.3345   2
  16  28 -38 308.933 16.7740   4
  38  16 -28 313.080 14.7375   4
 -38  28 -16 269.725 15.2324   2
  28  38 -18-5.51159 11.2637   4
  38  28 -18 6.71613 6.03135   4
  18  38 -28-15.1655 11.6215   4
  38  18 -28 6.82042 8.20237   4
  18  28 -38-13.7663 11.1005   4
 -38  28 -18-0.66316 7.95828   2
  28  38 -20 5.58926 10.1914   4
  38  28 -20 2.45204 5.93976   4
  20  38 -28 2.33982 10.8469   4
  38  20 -28-0.40688 7.01401   4
  20  28 -38-4.70070 10.2758   4
 -38  28 -20 0.34762 6.00958   2
  28  20 -38 17.5576 11.7797   4
  28  38 -22 194.024 11.6776   4
  38  22 -28 126.487 8.99115   4
  22  28 -38 184.305 11.9220   4
  28  22 -38 194.804 12.8434   4
  28  38 -24 124.684 9.74439   4
  38  24 -28 89.1211 6.75051   4
  24  28 -38 134.159 10.0908   4
  28  24 -38 127.060 10.1750   4
  28  38 -26 22.1378 6.60750   4
  28  26 -38 23.0372 7.40654   4
  28  38 -28 10.5647 4.39203   4
  28  28 -38 14.4058 5.15473   4
 -38  30   0 1578.15 53.5243   2
  30  38   0 1343.18 50.9079   4
   2  38 -30 247.401 12.9177   4
 -30  38   2 270.778 17.7081   2
 -38  30  -2 265.937 18.1675   2
  30  38   2 232.665 13.3797   4
  30  38  -2 243.285 14.0419   4
 -38  30   2 302.826 19.0220   2
 -38  30   4 5.10243 14.7141   2
   4  38 -30 10.6555 8.87486   4
   4  30 -38 16.2562 8.13612   4
 -30  38   4 20.5066 13.8869   2
 -38  30  -4 16.7426 13.9047   2
  30  38   4 14.6826 7.60537   4
  30  38  -4-1.88930 9.45632   4
 -30  38   6 822.422 32.5855   2
   6  38 -30 763.967 30.4362   4
   6  30 -38 731.308 29.9545   4
 -38  30  -6 854.330 32.7809   2
  30  38  -6 823.228 30.7921   4
   8  38 -30 381.307 18.3204   4
   8  30 -38 378.699 18.1783   4
 -38  30  -8 401.188 20.5609   2
 -30  38   8 394.127 20.1109   2
  30  38  -8 398.841 18.5903   4
  10  38 -30 292.076 15.6567   4
  10  30 -38 273.443 15.1986   4
 -38  30 -10 268.316 16.6514   2
 -30  38  10 285.717 16.7062   2
  30  38 -10 268.562 15.3026   4
  12  38 -30 646.792 25.9348   4
 -38  30  12 620.544 27.1858   2
  12  30 -38 624.701 25.6976   4
 -30  38  12 619.060 26.0006   2
 -38  30 -12 623.336 26.0932   2
  38  12 -30 650.835 25.2703   4
  30  38 -12 624.742 25.8284   4
  14  38 -30 396.758 18.6702   4
 -38  30  14 403.530 19.9840   2
 -30  38  14 399.579 18.0585   2
  14  30 -38 366.163 18.1048   4
 -38  30 -14 389.221 18.1809   2
  38  14 -30 368.653 17.6245   4
  30  38 -14 406.821 18.4093   4
  30  38 -16 156.318 11.9120   4
  16  38 -30 158.087 12.5057   4
 -38  30 -16 165.831 11.0472   2
  38  16 -30 137.649 10.6685   4
  16  30 -38 156.526 12.3290   4
  30  38 -18 316.501 14.7731   4
  18  38 -30 315.058 15.4768   4
 -38  30 -18 242.881 13.0846   2
  18  30 -38 317.903 15.0819   4
  38  18 -30 253.936 12.9704   4
  30  18 -38 306.689 15.8549   4
  30  38 -20 317.178 13.6466   4
  20  38 -30 338.658 14.5257   4
  38  20 -30 250.903 12.0102   4
  20  30 -38 319.825 14.2112   4
  30  20 -38 326.894 14.9702   4
  30  38 -22 18.3535 7.07596   4
  22  38 -30 6.82440 7.86005   4
  38  22 -30 1.04121 4.70566   4
  22  30 -38 2.76044 7.98439   4
  30  22 -38-4.10056 7.82800   4
  24  30 -38 568.355 21.1854   4
  30  24 -38 576.802 21.2535   4
  30  38 -24 519.647 20.6446   4
  26  38 -30 172.033 8.17458   4
  30  26 -38 154.850 8.05333   4
 -32  38   0 372.299 18.7060   2
 -38  32   0 345.849 18.6948   2
 -38  32  -2 1153.47 40.5213   2
 -32  38   2 1101.30 40.3101   2
 -32  38  -2 1103.80 40.4783   2
 -38  32   2 1094.97 40.3735   2
 -32  38   4 340.167 18.1524   2
   4  38 -32 282.949 13.4050   4
 -38  32  -4 344.794 18.4478   2
  32  38  -4 292.746 13.9167   4
   6  38 -32 542.487 21.2937   4
   6  32 -38 465.578 20.8230   4
 -38  32  -6 641.601 24.5227   2
  32  38  -6 540.359 21.6627   4
 -32  38   6 609.065 24.1604   2
   8  38 -32 1755.60 63.8948   4
   8  32 -38 1743.04 63.6259   4
 -38  32  -8 1896.11 65.2318   2
 -32  38   8 1989.82 65.2286   2
  32  38  -8 1811.39 63.7908   4
  10  38 -32 135.852 10.8267   4
  10  32 -38 130.135 10.3133   4
 -38  32  10 140.172 13.5900   2
 -38  32 -10 141.683 12.4317   2
 -32  38  10 129.285 12.5073   2
  38  10 -32 108.167 10.1402   4
  32  38 -10 159.910 10.2798   4
  12  38 -32 4918.15 165.266   4
  12  32 -38 4905.34 165.218   4
 -38  32  12 5136.53 166.027   2
 -38  32 -12 4971.20 165.605   2
 -32  38  12 5054.13 165.571   2
  38  12 -32 4467.22 164.909   4
  32  38 -12 4588.62 164.988   4
  32  38 -14 111.681 9.49627   4
  14  38 -32 118.958 10.2868   4
  14  32 -38 142.460 10.3032   4
 -32  38  14 118.000 9.98864   2
  38  14 -32 112.164 8.91896   4
 -38  32 -14 105.687 10.1963   2
  32  38 -16 30.9411 7.63637   4
  16  32 -38 35.5252 8.54010   4
  38  16 -32 20.9275 6.56658   4
 -38  32 -16 34.5181 7.51368   2
  32  16 -38 26.7802 10.0228   4
  18  38 -32 3336.23 98.1419   4
 -38  32 -18 2586.71 97.1604   2
  18  32 -38 3260.74 98.0586   4
  32  18 -38 3399.20 98.4571   4
  32  38 -18 2940.72 97.5834   4
  32  38 -20 72.7834 6.59361   4
  20  38 -32 58.3056 7.59939   4
  20  32 -38 70.4761 7.46127   4
  32  20 -38 65.5099 7.67483   4
  32  38 -22 4.12200 4.47678   4
  22  38 -32 3.10986 5.38153   4
  22  32 -38 5.76455 5.44219   4
  32  22 -38 5.74498 5.54864   4
  24  38 -32-1.62088 4.20853   4
  24  32 -38 0.91697 4.04254   4
 -34  38   0 780.563 30.7539   2
 -38  34   0 759.367 30.8271   2
 -34  38   2 25.6272 11.5442   2
 -38  34  -2 29.9035 11.5494   2
 -38  34  -4 497.733 22.1983   2
 -34  38   4 499.651 22.0509   2
   6  38 -34 4.73935 5.10524   4
 -38  34  -6-4.27187 10.7762   2
 -34  38   6 10.0543 10.6671   2
   8  38 -34 221.302 11.1252   4
   8  34 -38 208.582 10.5422   4
 -38  34  -8 286.928 14.3341   2
 -38  34   8 302.624 15.0478   2
 -34  38   8 303.629 14.4158   2
 -34  38  -8 308.803 15.1906   2
  10  38 -34 6.20163 6.68981   4
  10  34 -38 4.42370 5.79138   4
 -38  34  10 13.8750 10.0761   2
 -38  34 -10 31.2574 9.54018   2
 -34  38  10 18.0023 9.23169   2
  38  10 -34-1.29808 6.65108   4
  34  38 -10 5.43947 4.92384   4
  12  38 -34 1.38842 6.55207   4
  12  34 -38 0.66781 6.00924   4
 -34  38  12-2.51386 8.08753   2
 -38  34 -12-5.31999 8.15073   2
  38  12 -34 3.57516 6.03986   4
  34  38 -12 1.81049 5.12106   4
  14  38 -34 669.452 22.5856   4
 -38  34 -14 695.724 23.0261   2
  14  34 -38 622.330 22.5286   4
  38  14 -34 521.096 21.9204   4
  34  14 -38 717.494 23.5484   4
 -38  34 -16 466.536 19.2324   2
  16  38 -34 524.030 19.4507   4
  16  34 -38 504.321 19.3190   4
  34  16 -38 516.679 19.8214   4
 -34  38 -16 522.049 19.9519   2
  18  38 -34 31.8365 5.69477   4
  18  34 -38 23.5892 5.44664   4
  34  18 -38 15.4715 5.70049   4
 -34  38 -18 36.3681 6.04521   2
  20  38 -34 9.17719 4.55496   4
  20  34 -38 3.96389 4.26792   4
 -36  38   2 255.917 14.2548   2
 -38  36  -2 248.674 13.9831   2
 -38  36  -4 136.321 11.5410   2
 -36  38   4 152.760 11.3317   2
 -38  36  -6 34.8844 9.17250   2
 -36  38  -6 49.2147 9.62451   2
 -38  36   6 61.8819 9.32024   2
 -36  38   6 42.4817 9.26552   2
 -38  36  -8 79.9188 8.76388   2
 -36  38  -8 69.0303 9.19613   2
 -36  38   8 72.8287 8.73318   2
  38   8 -36 47.0432 6.07694   4
 -38  36 -10 30.4917 7.47257   2
 -38  36  10 19.3792 7.97214   2
 -36  38  10 24.7926 7.09938   2
 -36  38 -10 34.2489 7.97464   2
  38  10 -36 18.1484 4.90728   4
  36  10 -38 14.8642 6.39063   4
 -38  36 -12 15.0566 6.30457   2
 -36  38 -12 20.6164 7.03012   2
  36  12 -38 8.24746 5.43829   4
 -38  36 -14 64.6057 5.85458   2
 -36  38 -14 66.1956 6.60019   2
  36  14 -38 50.0994 5.32161   4
 -38  38   4 5.09859 6.53312   2
 -38  38  -4 5.68241 6.59266   2
 -38  38  -6 65.4018 7.07192   2
 -38  38   6 70.5352 7.24772   2
 -38  38  -8 458.884 17.7541   2
 -38  38 -10 128.795 7.32321   2
  -1  39   1 0.45299 14.8607   4
   1  39   1 27.1636 15.0861   4
  -1  39  -1 5.82630 13.9486   4
   1  39  -1 33.1573 15.0573   4
 -39   3  -1 158.199 12.4276   2
  -1  39   3 143.213 17.1035   4
  -3  39   1 151.013 17.0735   4
   1  39   3 133.184 17.3013   4
  -3  39  -1 134.561 16.4191   4
   3  39   1 154.373 17.8917   4
  -1  39  -3 116.501 16.4270   4
   3  39  -1 146.202 17.7672   4
   1  39  -3 112.837 17.0950   4
   3  39  -3-4.14604 15.2872   4
  -3  39   3-2.25008 14.3511   4
   3  39   3 8.90555 16.0457   4
  -3  39  -3-3.89254 13.9708   4
 -39   5   1 1320.31 49.5797   2
 -39   5  -1 1289.17 49.1566   2
  -1  39   5 1307.73 51.2589   4
  -5  39   1 1261.47 50.3387   4
   1  39   5 1365.36 51.6875   4
  -5  39  -1 1357.25 50.2695   4
   5  39   1 1418.20 51.4687   4
  -1  39  -5 1314.14 50.6080   4
   5  39  -1 1274.60 51.1476   4
   1  39  -5 1324.18 50.9404   4
 -39   5   3 542.853 24.9217   2
 -39   5  -3 563.681 23.8617   2
  -3  39   5 540.852 27.3243   4
  -5  39   3 542.396 26.2263   4
   3  39   5 577.975 28.1019   4
  -5  39  -3 545.166 25.9515   4
   5  39   3 584.443 28.2113   4
  -3  39  -5 533.412 26.0903   4
   5  39  -3 586.918 28.1218   4
   3  39  -5 517.208 26.7886   4
   5  39  -5 15.7881 15.4313   4
 -39   5   5 2.14239 12.6568   2
  -5  39   5-2.66902 14.1089   4
  -5  39  -5 0.41100 12.3610   4
 -39   7   1 575.262 26.5589   2
 -39   7  -1 613.045 26.2271   2
  -1  39   7 594.825 29.2418   4
  -7  39   1 580.433 26.9605   4
   1  39   7 580.369 28.9658   4
  -7  39  -1 590.144 26.4913   4
  -1  39  -7 603.422 27.2960   4
   7  39  -1 623.647 29.0828   4
   1  39  -7 586.184 28.3815   4
   7  39  -3 157.887 18.1949   4
   3  39  -7 103.303 15.7893   4
 -39   7   3 126.020 14.6541   2
  -7  39   3 121.449 15.2203   4
  -3  39   7 141.052 17.4860   4
 -39   7  -3 106.041 12.7866   2
   3  39   7 146.254 18.6204   4
  -7  39  -3 136.379 13.9854   4
  -3  39  -7 123.931 14.1276   4
   5  39  -7 1672.53 62.2194   4
 -39   7   5 1627.69 61.5911   2
 -39   7  -5 1686.19 60.2459   2
  -7  39   5 1631.00 61.5103   4
  -5  39   7 1670.62 62.0631   4
  -7  39  -5 1613.63 60.7498   4
  -5  39  -7 1698.57 61.1401   4
   7  39  -5 1684.63 62.5930   4
   7  39  -7 1.87309 15.8534   4
 -39   7   7-7.70106 12.9938   2
  -7  39   7-5.21742 14.6207   4
  -7  39  -7-1.91263 12.0248   4
  -1  39  -9 92.1631 15.0331   4
   1  39  -9 87.0130 15.5985   4
  -9  39   1 105.666 14.3546   4
  -1  39   9 94.7362 17.2709   4
   1  39   9 122.278 17.5305   4
  -9  39  -1 111.014 14.0109   4
 -39   9   1 98.0672 13.7904   2
 -39   9  -1 114.465 14.0186   2
   3  39  -9 386.886 22.6756   4
 -39   9   3 397.324 20.9526   2
  -9  39   3 405.174 20.2122   4
  -3  39   9 375.149 23.0883   4
 -39   9  -3 360.999 19.2010   2
  -9  39  -3 337.674 19.4410   4
  -3  39  -9 353.350 20.4401   4
 -39   9  -5-0.38448 11.3742   2
   9  39  -5 8.94732 16.3529   4
   5  39  -9 12.4199 15.8060   4
  -5  39   9-3.14659 14.9014   4
 -39   9   5-2.26609 14.1987   2
  -9  39   5 19.4724 13.6574   4
  -9  39  -5 2.97168 11.1120   4
   9  39   5 7.54852 17.2974   4
  -5  39  -9 8.97917 12.3606   4
   9  39  -7 1395.88 54.1914   4
   7  39  -9 1390.72 54.0512   4
 -39   9   7 1476.07 53.6699   2
  -9  39   7 1345.86 52.8397   4
  -7  39   9 1437.50 53.3825   4
 -39   9  -7 1423.97 51.6938   2
   7  39   9 1403.15 54.3193   4
  -9  39  -7 1395.87 51.5608   4
   9  39   7 1413.83 54.1767   4
  -7  39  -9 1353.09 51.8017   4
   9  39  -9-7.03659 16.9327   4
 -39   9   9 7.05669 15.3700   2
  -9  39   9 0.85742 15.0451   4
   9  39   9 1.40308 16.7095   4
  -9  39  -9 0.34290 10.4102   4
 -39  11  -1 46.6048 13.9464   2
  -1  39 -11 39.0510 13.9952   4
   1  39 -11 31.1293 14.4579   4
 -11  39   1 55.6331 12.5512   4
  -1  39  11 45.1751 16.9188   4
 -11  39  -1 31.6337 11.8188   4
   1  39  11 47.8493 17.6073   4
 -39  11   1 37.1436 14.4026   2
  11  39   1 37.4326 17.2531   4
  -3  39 -11 13.7124 12.2284   4
   3  39 -11-17.8516 15.2946   4
 -39  11  -3 0.41905 12.4179   2
 -11  39   3 13.9303 12.2584   4
  -3  39  11-1.83282 15.7972   4
 -11  39  -3 0.35693 10.9448   4
 -39  11   3 11.8910 14.6383   2
  11  39   3 6.06790 16.1835   4
   5  39 -11 37.3726 16.4383   4
 -39  11  -5 39.6917 12.2940   2
 -11  39   5 29.0269 13.1377   4
  -5  39  11 18.0856 15.7114   4
 -11  39  -5 26.5080 10.7919   4
 -39  11   5 36.7118 14.9861   2
  11  39   5 31.7815 16.4847   4
  -5  39 -11 31.7628 12.2813   4
   7  39 -11 309.622 21.2973   4
 -39  11   7 308.146 20.6336   2
 -11  39   7 324.536 18.4734   4
  -7  39  11 339.860 20.9871   4
 -11  39  -7 306.122 16.3953   4
   7  39  11 317.265 21.6769   4
  -7  39 -11 302.824 17.2837   4
  11  39   7 277.533 20.9660   4
 -39  11  -7 313.182 17.8237   2
  11  39  -9 35.6580 17.7348   4
   9  39 -11 72.0716 17.3423   4
 -39  11  -9 61.0829 11.0867   2
 -39  11   9 39.1055 16.0651   2
 -11  39   9 72.2650 14.2073   4
  -9  39  11 58.4723 15.1543   4
   9  39  11 56.1919 17.1401   4
 -11  39  -9 89.6301 10.3052   4
  11  39   9 59.4426 17.0362   4
  -9  39 -11 66.2509 10.6191   4
  11  39 -11-3.72655 17.3839   4
 -39  11 -11 11.1332 9.54229   2
 -39  11  11 6.23221 16.4934   2
 -11  39  11-12.1525 13.6280   4
  11  39  11 1.36689 16.4815   4
 -11  39 -11 3.76772 8.72874   4
   1  39 -13 2254.31 78.6647   4
 -13  39  -1 2068.51 77.1128   4
 -13  39   1 2124.99 77.4180   4
  -1  39  13 2154.42 79.5472   4
 -39  13   1 2287.59 79.0509   2
 -39  13  -1 2235.01 78.9289   2
  13  39   1 2213.49 79.4258   4
  13  39  -1 2166.58 79.6091   4
  -1  39 -13 2176.02 78.3188   4
   3  39 -13 763.445 31.2605   4
 -13  39   3 716.341 29.5072   4
  -3  39  13 735.313 32.6017   4
 -13  39  -3 713.062 28.6001   4
 -39  13   3 704.539 31.8057   2
  13  39   3 664.407 32.4274   4
 -39  13  -3 726.292 30.8098   2
  -3  39 -13 695.259 29.7043   4
  13  39  -3 699.494 32.5287   4
   5  39 -13 1042.99 40.9858   4
 -13  39   5 1012.48 39.4551   4
  -5  39  13 987.225 41.7041   4
 -39  13   5 1031.14 41.2065   2
 -13  39  -5 953.233 37.9914   4
   5  39  13 1034.47 41.7050   4
  13  39   5 999.439 41.7094   4
  -5  39 -13 1055.93 39.3944   4
 -39  13  -5 1064.25 40.0196   2
   7  39 -13 181.724 18.1651   4
 -39  13  -7 176.357 15.0835   2
 -13  39   7 170.468 15.2567   4
  -7  39  13 180.048 17.6339   4
 -13  39  -7 174.038 11.8996   4
   7  39  13 190.773 19.7888   4
 -39  13   7 180.811 18.3940   2
  13  39   7 216.300 18.9004   4
  -7  39 -13 186.700 13.2032   4
 -39  13  -9 770.547 32.2554   2
   9  39 -13 791.515 35.0983   4
 -39  13   9 811.507 35.0877   2
 -13  39   9 811.802 33.0637   4
  -9  39  13 854.100 34.6974   4
   9  39  13 822.467 35.3001   4
  13  39   9 814.012 34.9608   4
  -9  39 -13 779.461 31.0084   4
  11  39 -13 59.2686 17.3607   4
 -39  13 -11 39.2109 10.7347   2
 -11  39  13 50.6465 14.2771   4
 -39  13  11 70.0327 16.7277   2
  11  39  13 45.2156 16.6675   4
  13  39  11 34.5790 16.0028   4
 -13  39  11 25.0110 10.0854   2
  13  39 -13-8.66963 16.2750   4
 -39  13  13 10.5357 16.6970   2
 -39  13 -13-0.63094 9.10944   2
  13  39  13-12.8680 15.5558   4
  15  39  -1 93.5216 17.3328   4
  -1  39 -15 80.0555 14.1069   4
   1  39 -15 71.2468 13.7077   4
 -39  15   1 90.3548 15.3875   2
 -39  15  -1 76.4371 15.3428   2
 -15  39   1 95.4946 11.2960   4
 -15  39  -1 79.4164 10.4741   4
  -1  39  15 107.340 16.5960   4
  15  39   1 88.3481 17.5400   4
  -3  39 -15 13.9836 12.1400   4
 -39  15   3 15.0775 15.4998   2
  15  39  -3 17.9889 16.5946   4
   3  39 -15 7.29040 14.0449   4
 -39  15  -3 19.0048 13.2480   2
 -15  39   3 26.2514 11.0057   4
  -3  39  15 6.45224 16.4544   4
 -15  39  -3 17.7295 8.92421   4
  15  39   3 2.26023 15.3577   4
  15  39  -5 84.8261 18.5260   4
   5  39 -15 127.551 16.1216   4
 -39  15  -5 104.690 14.9546   2
 -15  39   5 119.788 12.6731   4
  -5  39  15 110.981 17.7283   4
   5  39  15 106.335 17.1850   4
  15  39   5 91.3168 16.5226   4
  -5  39 -15 107.550 12.0565   4
  15  39  -7 1121.19 46.8493   4
 -39  15  -7 1217.96 44.8652   2
   7  39 -15 1192.58 46.3395   4
 -15  39   7 1146.23 44.0815   4
  -7  39  15 1181.40 46.1648   4
 -39  15   7 1188.30 46.7245   2
   7  39  15 1159.78 46.5302   4
  15  39   7 1211.16 46.3386   4
  -7  39 -15 1115.21 43.1371   4
   9  39 -15 13.0366 16.4392   4
  -9  39  15-5.62900 14.5605   4
 -39  15  -9 3.89864 11.9979   2
   9  39  15 38.9003 16.2101   4
 -39  15   9 9.55363 16.1449   2
  15  39   9 11.7791 14.6741   4
  11  39 -15 48.1432 17.1229   4
 -39  15  11 61.0986 17.1620   2
 -39  15 -11 30.9140 11.0423   2
  11  39  15 54.1128 15.7531   4
 -15  39  11 48.7678 10.7675   2
  15  39  11 40.9824 15.1211   4
  13  39 -15 356.933 22.2116   4
 -39  15 -13 317.071 17.1003   2
 -39  15  13 335.331 22.2648   2
  13  39  15 356.363 20.6975   4
  15  39  13 306.202 20.3745   4
 -15  39  13 315.626 16.4205   2
  15  39  15 6.26373 13.8427   4
  -1  39 -17 336.130 19.3115   4
   1  39 -17 338.982 19.8630   4
 -39  17   1 345.877 21.8682   2
  17  39   1 394.476 21.9241   4
  17  39  -1 351.617 22.6743   4
 -39  17  -1 379.375 21.8500   2
 -39  17  -3 676.684 29.5006   2
   3  39 -17 657.117 29.0154   4
  -3  39  17 649.665 30.5147   4
   3  39  17 657.985 30.6640   4
 -39  17   3 649.638 30.3640   2
  17  39   3 641.536 29.9668   4
  -3  39 -17 603.949 27.2768   4
  17  39  -3 670.644 30.8466   4
  17  39  -5 16.2825 17.0242   4
   5  39 -17 12.4222 14.8158   4
  -5  39  17 24.7689 16.7289   4
 -39  17  -5 24.2764 13.3939   2
   5  39  17 32.4312 16.1324   4
  17  39   5 18.2892 15.1034   4
  -5  39 -17 22.6823 10.4829   4
 -39  17   5 19.9359 16.5065   2
  17  39  -7 1176.24 46.7349   4
   7  39 -17 1111.73 46.0236   4
 -39  17  -7 1239.90 45.6127   2
  -7  39  17 1182.18 46.2415   4
   7  39  17 1248.50 46.7967   4
 -39  17   7 1213.73 47.2115   2
  17  39   7 1210.85 46.2160   4
  -7  39 -17 1104.88 43.1278   4
  17  39  -9 604.332 29.9682   4
   9  39 -17 625.619 28.7073   4
 -39  17  -9 629.500 27.0688   2
 -39  17   9 601.992 29.6632   2
   9  39  17 604.358 28.8197   4
  17  39   9 600.808 28.3825   4
  17  39 -11-0.44683 17.3760   4
  11  39 -17 16.6456 16.6740   4
  11  39  17 7.06664 14.8784   4
 -39  17  11 9.37244 16.0990   2
 -17  39  11 9.14403 10.9437   2
 -39  17 -11 3.71228 11.7332   2
  17  39  11 6.47323 14.1114   4
  13  39 -17 244.678 19.5584   4
 -39  17 -13 227.903 15.1076   2
 -39  17  13 281.787 21.2341   2
  13  39  17 240.020 17.8418   4
  17  39  13 240.320 17.2305   4
 -17  39  13 239.921 14.6385   2
  15  39 -17 187.306 18.0244   4
  15  39  17 189.783 15.9199   4
  17  39  15 186.973 15.1464   4
 -39  17 -15 155.880 12.4975   2
 -17  39  15 165.355 11.7903   2
  17  39  17 1.73492 11.8661   4
  19  39  -1-21.3691 15.2166   4
  -1  39 -19 15.5759 11.5971   4
   1  39 -19-4.60917 12.6248   4
 -39  19   1 19.3402 14.7603   2
 -39  19  -1 0.90932 14.8844   2
  19  39   1-1.70606 15.3991   4
  -3  39 -19 153.799 12.8780   4
  19  39  -3 160.081 17.1198   4
   3  39 -19 140.570 15.5551   4
 -39  19   3 136.877 17.6173   2
  -3  39  19 116.572 18.4122   4
   3  39  19 146.639 18.2916   4
 -39  19  -3 149.662 16.5599   2
  19  39   3 140.791 17.0388   4
  19  39  -5 377.991 23.0768   4
   5  39 -19 366.680 21.1944   4
 -39  19  -5 392.552 21.4310   2
   5  39  19 398.969 23.4221   4
 -39  19   5 377.306 23.1185   2
  19  39   5 373.415 21.8467   4
  -5  39 -19 359.897 17.8082   4
  19  39  -7 353.128 23.4888   4
   7  39 -19 358.423 21.6758   4
   7  39  19 435.749 23.2471   4
 -39  19   7 400.451 23.2157   2
  19  39   7 366.513 21.4941   4
  19  39  -9 261.388 21.1402   4
 -39  19  -9 287.558 17.7125   2
   9  39  19 287.980 19.3144   4
 -19  39   9 276.006 16.9671   2
  19  39   9 277.981 18.7283   4
 -39  19   9 301.623 21.5029   2
  19  39 -11 12.5195 17.1153   4
  11  39 -19 7.59114 16.0660   4
  11  39  19 12.3912 14.2510   4
 -19  39  11 11.3743 11.5607   2
 -39  19  11 11.4251 17.6913   2
  19  39  11 6.79787 12.7489   4
 -39  19 -11-13.0591 12.1670   2
  19  39 -13 610.622 29.0072   4
  13  39 -19 578.631 28.3916   4
 -39  19  13 605.743 28.5509   2
 -39  19 -13 592.574 25.6184   2
  13  39  19 623.940 26.8552   4
  19  39  13 572.944 26.1021   4
 -19  39  13 598.105 25.3210   2
  19  39 -15 32.1130 16.8591   4
  15  39 -19 26.5954 16.2689   4
 -39  19  15 32.4909 17.3799   2
  15  39  19 37.0885 12.4139   4
  39  15 -19 23.9116 8.92478   4
  19  39  15 29.1689 11.6979   4
 -39  19 -15 20.9924 10.1491   2
 -19  39  15 18.7753 9.62913   2
 -39  19 -17 200.293 12.5923   2
  17  39 -19 228.732 18.7874   4
 -19  39  17 186.589 12.1924   2
  39  17 -19 221.882 12.4997   4
  17  39  19 223.850 14.9267   4
  19  39  17 226.284 14.6923   4
  39  19 -19 2.76865 8.35981   4
  19  39  19 1.97847 9.89689   4
  -1  39 -21-0.33782 10.6913   4
   1  39 -21-6.50206 11.8390   4
 -39  21   1 20.3442 15.2146   2
 -39  21  -1-7.61157 15.5829   2
   1  21 -39 0.63585 9.88102   4
  21  39   1 12.1472 14.4732   4
  21  39  -1-10.3484 14.4246   4
  21  39  -3 28.1232 14.4128   4
  -3  39 -21 55.9026 10.4414   4
   3  39 -21 36.2703 13.2329   4
   3  39  21 25.7950 16.6104   4
 -39  21  -3 28.4941 15.0667   2
  21  39   3 35.6574 14.4309   4
   5  39 -21 334.212 19.4881   4
 -39  21  -5 327.661 20.8075   2
   5  39  21 339.807 20.9873   4
 -39  21   5 356.836 22.3059   2
  21  39   5 348.339 19.4086   4
  -5  39 -21 331.580 15.9668   4
  21  39  -5 326.883 21.5249   4
  21  39  -7 2560.97 91.0008   4
   7  39 -21 2546.30 90.4909   4
 -39  21  -7 2521.82 90.3482   2
   7  39  21 2552.49 90.7557   4
 -39  21   7 2613.90 91.5521   2
  21  39   7 2468.37 90.0406   4
  21  39  -9 40.6494 16.2687   4
   9  39 -21 17.2638 14.8605   4
   9  39  21 60.2758 14.3594   4
 -21  39   9 28.6396 12.4876   2
  21  39   9 25.1543 12.1145   4
 -39  21  -9 30.9418 12.6101   2
 -39  21   9 44.2451 16.4550   2
  21  39 -11 40.3192 16.5094   4
  11  39 -21 33.7316 14.6008   4
 -21  39  11 56.1133 12.3999   2
  11  39  21 56.1882 14.1584   4
 -39  21  11 60.4570 16.6153   2
  21  39  11 46.8281 12.4623   4
  39  11 -21 34.5835 9.79244   4
 -39  21 -11 62.9344 12.4632   2
  21  39 -13 2431.01 83.8754   4
  13  39 -21 2279.93 83.3116   4
 -39  21  13 2384.12 84.1764   2
 -39  21 -13 2330.12 82.3320   2
  13  39  21 2390.66 82.7201   4
  39  13 -21 2266.62 81.4380   4
 -21  39  13 2238.66 82.0112   2
  21  39  13 2350.02 82.0857   4
  21  39 -15 328.510 21.4180   4
  15  39 -21 310.009 20.8693   4
 -39  21  15 360.920 21.6495   2
 -39  21 -15 317.149 16.8820   2
  15  39  21 307.803 17.8238   4
  39  15 -21 328.463 16.1481   4
  21  39  15 337.657 17.0734   4
 -21  39  15 322.185 16.5913   2
  21  39 -17 1381.96 49.0940   4
  17  39 -21 1359.57 48.7280   4
 -39  21 -17 1219.94 45.8692   2
 -21  39  17 1199.45 45.7096   2
  39  17 -21 1269.65 45.9099   4
  21  39  17 1296.81 46.2526   4
  21  39 -19 8.54096 14.4232   4
  39  21 -19 7.46314 7.60023   4
  39  19 -21-2.70057 8.52721   4
 -39  21 -19 9.86135 7.27772   2
  39  21 -21 12.2085 7.26495   4
  -1  39 -23 506.383 22.3095   4
   1  39 -23 532.128 23.2507   4
 -39  23  -1 541.673 26.1431   2
   1  23 -39 495.615 21.6866   4
  23  39   1 515.019 24.6559   4
  23  39  -1 532.253 24.7862   4
 -39  23   1 516.368 26.2494   2
  23  39  -3 80.2072 14.9309   4
  -3  39 -23 78.8330 10.1169   4
   3  39 -23 80.4840 12.9664   4
 -39  23   3 103.401 17.4540   2
 -39  23  -3 59.1178 16.0189   2
   3  23 -39 95.4058 11.5498   4
  23  39   3 91.3492 13.9725   4
   5  39 -23 787.851 31.9645   4
 -39  23  -5 764.009 32.7365   2
   5  23 -39 783.226 31.3977   4
 -39  23   5 776.509 34.1834   2
  23  39   5 734.901 31.7079   4
  23  39  -5 807.705 32.6221   4
  23  39  -7 430.294 23.1793   4
   7  39 -23 417.939 22.4057   4
 -39  23  -7 432.515 22.5151   2
 -23  39   7 459.935 22.6282   2
 -39  23   7 479.699 24.9116   2
   7  23 -39 459.972 21.9069   4
  23  39   7 452.226 21.7161   4
   9  39 -23 147.561 15.4870   4
 -23  39   9 111.246 14.0494   2
  23  39   9 121.653 12.7513   4
 -39  23  -9 122.667 14.6197   2
 -39  23   9 140.690 18.2703   2
  23  39 -11 192.820 17.2175   4
  11  39 -23 195.643 15.9613   4
 -23  39  11 159.646 14.0653   2
 -39  23  11 183.413 17.8926   2
  23  39  11 169.025 13.1149   4
  39  11 -23 174.196 12.3715   4
 -39  23 -11 189.666 15.0913   2
 -23  39  13 204.668 14.3545   2
  23  39 -13 209.907 17.7652   4
  13  39 -23 223.454 17.7033   4
 -39  23 -13 234.602 15.1425   2
 -39  23  13 232.045 19.0504   2
  23  39  13 219.186 13.5687   4
  39  13 -23 215.866 13.3533   4
  23  39 -15 105.637 15.4535   4
  15  39 -23 69.2963 15.0859   4
  23  39  15 104.184 10.1777   4
  39  15 -23 112.673 10.2337   4
 -23  39  15 98.5191 11.1127   2
 -39  23 -15 92.4198 11.5381   2
  23  39 -17 707.196 28.7970   4
 -39  23 -17 619.444 25.4702   2
 -23  39  17 637.355 25.3768   2
  39  17 -23 660.780 25.5849   4
  23  39  17 635.516 24.8781   4
  23  39 -19 23.0777 13.3788   4
  19  39 -23-6.25078 13.7872   4
  39  23 -19 26.4569 7.42752   4
  39  19 -23 24.4433 8.46553   4
 -39  23 -19 10.9781 6.67525   2
  19  23 -39 39.7904 13.8824   4
  23  39 -21 208.303 15.5223   4
  39  23 -21 201.438 10.8293   4
  39  21 -23 191.887 11.3625   4
  21  23 -39 259.617 16.0412   4
  23  39 -23-2.78644 11.2976   4
  39  23 -23 14.5441 6.17291   4
  23  23 -39-3.83478 11.8361   4
   1  39 -25 526.464 22.1935   4
 -39  25  -1 493.036 25.7047   2
   1  25 -39 473.196 20.6569   4
  25  39   1 509.009 23.4077   4
  25  39  -1 546.269 23.7415   4
 -39  25   1 542.736 25.8038   2
  -1  39 -25 494.385 21.3359   4
  -3  39 -25 45.0775 8.47873   4
   3  39 -25 74.3053 11.4844   4
 -39  25   3 59.1926 15.8929   2
 -39  25  -3 59.7121 14.7786   2
   3  25 -39 56.8282 10.0657   4
  25  39   3 53.9485 12.4610   4
  25  39  -3 36.8116 13.4877   4
  25  39  -5-2.91440 13.3040   4
 -39  25   5 22.5787 15.6159   2
   5  39 -25 13.7050 12.1774   4
 -39  25  -5 21.7161 14.5802   2
   5  25 -39 17.9471 10.7113   4
  25  39   5 4.17532 11.1316   4
   7  39 -25 1725.79 62.1258   4
 -25  39   7 1689.52 62.5216   2
 -39  25  -7 1765.85 62.8002   2
   7  25 -39 1683.71 61.6929   4
 -39  25   7 1709.92 63.5355   2
  25  39   7 1659.42 61.2853   4
  25  39  -7 1776.52 62.6493   4
  25  39  -9 39.9051 14.3383   4
   9  39 -25 56.1604 12.8465   4
 -25  39   9 62.3519 13.2758   2
  25  39   9 60.2155 10.2257   4
   9  25 -39 58.0908 12.6840   4
 -39  25  -9 54.6305 12.7645   2
 -39  25   9 49.0168 15.9955   2
  25  39 -11 101.134 14.8000   4
 -25  39  11 87.4545 12.7938   2
  11  39 -25 98.5188 14.5141   4
  25  39  11 92.3973 10.1846   4
  11  25 -39 103.739 13.5643   4
 -39  25 -11 92.8554 12.7044   2
  39  11 -25 90.3084 10.6154   4
  25  39 -13 2359.47 80.1857   4
  13  39 -25 2371.62 79.9296   4
 -39  25 -13 2229.15 79.3332   2
  25  39  13 2134.46 78.0643   4
 -25  39  13 2210.60 79.1244   2
  39  13 -25 2220.51 78.6587   4
  13  25 -39 2308.48 79.9187   4
  25  39 -15 7.00811 13.1353   4
  15  39 -25 6.94469 12.6204   4
  25  39  15-5.06896 6.71411   4
  39  15 -25-5.78238 8.95213   4
 -25  39  15-18.5191 9.86674   2
  15  25 -39-17.0396 13.0274   4
 -39  25 -15-4.18259 9.89706   2
  25  39 -17 191.945 15.6246   4
  17  39 -25 212.101 15.8075   4
 -25  39  17 163.685 11.1942   2
 -39  25 -17 186.894 11.6836   2
  39  17 -25 194.542 11.8616   4
  17  25 -39 208.734 15.8001   4
  25  39 -19 86.2604 12.8913   4
  19  39 -25 110.081 12.6297   4
  39  19 -25 74.2318 8.48539   4
 -39  25 -19 63.5330 7.63190   2
  19  25 -39 91.4047 12.7965   4
  25  39 -21 406.925 18.2108   4
  39  21 -25 338.958 14.6748   4
  21  25 -39 452.693 18.7961   4
  25  39 -23 911.944 30.0281   4
  23  25 -39 954.880 30.4161   4
  25  39 -25-4.30392 8.79036   4
   1  39 -27 928.982 36.4134   4
 -39  27  -1 1031.34 39.7587   2
  27  39   1 1054.42 37.6102   4
  27  39  -1 1055.35 37.8269   4
 -39  27   1 1091.33 39.8025   2
  -1  39 -27 883.937 35.7930   4
   3  39 -27 316.494 16.4752   4
 -39  27  -3 347.106 19.8940   2
   3  27 -39 304.265 15.3387   4
  27  39   3 322.114 16.8543   4
 -39  27   3 355.971 20.9426   2
  27  39  -3 364.095 17.8136   4
   5  39 -27 721.943 29.1058   4
 -39  27  -5 746.818 30.9134   2
 -27  39   5 713.861 31.0444   2
   5  27 -39 659.488 28.2521   4
  27  39   5 735.186 28.6454   4
 -39  27   5 762.381 31.6800   2
  27  39  -5 789.402 29.7538   4
  27  39  -7 134.579 13.6679   4
   7  39 -27 111.333 12.4987   4
 -27  39   7 144.703 14.3909   2
   7  27 -39 99.2066 11.7299   4
 -39  27  -7 121.195 14.6827   2
  27  39   7 128.779 10.3269   4
 -39  27   7 118.573 16.6226   2
   9  39 -27 296.124 17.0985   4
 -39  27  -9 354.995 18.1202   2
   9  27 -39 315.890 16.8722   4
  27  39   9 271.538 14.3938   4
 -27  39   9 317.850 17.6656   2
  27  39  -9 322.933 17.9608   4
 -27  39  11 79.7174 11.8512   2
  27  39 -11 71.7951 12.7744   4
  11  39 -27 71.1551 12.6862   4
  27  39  11 67.8724 7.77732   4
  11  27 -39 83.3365 11.5619   4
 -39  27 -11 93.3900 12.6892   2
  39  11 -27 80.2599 9.81081   4
  27  39 -13 393.127 19.9084   4
  13  39 -27 420.305 19.8908   4
 -39  27 -13 369.606 18.7094   2
 -27  39  13 364.171 18.4322   2
  13  27 -39 396.000 19.5140   4
  39  13 -27 400.241 17.3793   4
  27  39 -15 288.964 17.0564   4
  15  39 -27 318.169 17.2601   4
 -39  27 -15 279.923 15.2178   2
 -27  39  15 308.502 15.2242   2
  15  27 -39 309.165 16.6750   4
  27  39 -17 286.721 15.7314   4
  17  39 -27 311.610 15.8599   4
 -39  27 -17 228.674 13.0129   2
  39  17 -27 237.025 12.8631   4
  17  27 -39 270.470 15.4120   4
  27  39 -19 309.130 15.1977   4
 -39  27 -19 206.093 11.3004   2
  19  39 -27 284.096 15.1455   4
  39  19 -27 212.678 11.6160   4
  19  27 -39 281.370 15.0324   4
  27  19 -39 259.240 15.9034   4
  27  39 -21 323.652 14.9979   4
  21  39 -27 333.619 14.8867   4
  21  27 -39 294.553 14.9906   4
  27  39 -23 105.712 9.92086   4
  23  27 -39 104.787 10.1194   4
  27  39 -25 373.470 15.6699   4
  25  39 -27 353.654 15.6816   4
  25  27 -39 396.459 16.0506   4
  27  39 -27-5.15068 5.34706   4
   1  39 -29-8.90121 6.63909   4
 -39  29   1-3.57601 13.8264   2
 -39  29  -1 11.7440 13.6490   2
  29  39   1 7.55361 9.01656   4
  29  39  -1-14.2675 9.81763   4
 -29  39   1-9.61323 13.2262   2
   3  39 -29 102.852 9.87346   4
 -39  29   3 106.942 15.7382   2
 -39  29  -3 106.973 14.6522   2
 -29  39   3 109.678 14.1521   2
  29  39   3 96.6632 9.58000   4
  29  39  -3 116.849 11.3979   4
   5  39 -29 493.250 20.9230   4
 -29  39   5 512.239 23.4816   2
 -39  29  -5 541.320 23.6897   2
   5  29 -39 451.225 19.9981   4
  29  39   5 474.370 19.8007   4
 -39  29   5 572.926 24.7246   2
  29  39  -5 504.080 21.5625   4
   7  39 -29 2124.88 72.3360   4
 -39  29  -7 2264.72 73.5286   2
   7  29 -39 2061.80 71.9525   4
  29  39  -7 2180.87 72.6200   4
 -29  39   7 2245.01 73.3460   2
  29  39  -9 1.95172 10.2688   4
 -29  39   9 19.3376 11.2955   2
   9  39 -29 1.62395 10.2250   4
   9  29 -39 9.48640 9.43897   4
 -39  29  -9 10.1622 11.3720   2
  39   9 -29 3.33488 7.93894   4
  29  39 -11 21.1539 10.4013   4
  11  39 -29 29.4248 10.5710   4
  11  29 -39 22.3062 9.82430   4
 -39  29 -11 26.6204 10.8087   2
 -29  39  11 30.2956 10.5779   2
  13  39 -29 1327.80 47.9308   4
 -39  29  13 1417.12 49.0021   2
 -39  29 -13 1370.74 47.8227   2
 -29  39  13 1292.70 47.6526   2
  13  29 -39 1327.87 47.7233   4
  39  13 -29 1180.63 46.8021   4
  29  39 -13 1391.81 48.0694   4
  15  39 -29 237.625 14.1148   4
 -39  29 -15 240.635 12.9733   2
 -29  39  15 232.273 12.7513   2
  15  29 -39 240.578 13.9245   4
  39  15 -29 207.912 11.8998   4
  29  39 -15 252.735 14.1185   4
  29  39 -17 555.604 21.3509   4
  17  39 -29 569.351 21.6494   4
 -39  29 -17 459.393 19.8560   2
  17  29 -39 555.351 21.4753   4
  39  17 -29 458.171 19.3142   4
  29  39 -19 6.90022 8.25863   4
  19  39 -29 0.44811 9.26775   4
 -39  29 -19-1.83637 4.84158   2
  39  19 -29 7.97395 5.52264   4
  19  29 -39 14.0801 8.81243   4
  29  19 -39 4.98513 10.0281   4
  29  39 -21 47.1246 7.99411   4
  21  39 -29 35.1720 8.24739   4
  21  29 -39 44.0769 8.52230   4
  29  21 -39 35.1537 8.96333   4
  23  29 -39 254.109 12.2995   4
  29  23 -39 260.550 12.4661   4
  29  39 -23 264.451 11.9900   4
  25  29 -39 401.320 15.5320   4
  29  25 -39 411.925 15.7205   4
  29  39 -25 378.494 15.1749   4
 -39  31   1 13.1909 13.0512   2
 -39  31  -1 9.24586 12.2175   2
 -31  39   1 2.23844 12.8404   2
  31  39   1 2.79131 6.70412   4
 -31  39  -1-3.24098 13.1423   2
 -39  31   3 13.5386 12.4937   2
   3  39 -31 14.7323 6.66064   4
 -39  31  -3 18.8280 12.1303   2
 -31  39   3 13.7680 12.3398   2
  31  39  -3 0.85718 7.91537   4
   5  39 -31 602.443 23.6062   4
 -39  31  -5 729.674 26.7715   2
 -39  31   5 712.974 27.0923   2
  31  39  -5 657.895 24.2676   4
 -31  39   5 752.719 26.7609   2
   7  39 -31 265.183 13.5154   4
 -39  31  -7 280.566 15.9637   2
   7  31 -39 256.449 12.7360   4
 -31  39   7 296.174 16.1316   2
  31  39  -7 262.753 13.8474   4
   9  39 -31 102.539 9.68880   4
   9  31 -39 86.7010 9.17009   4
 -39  31  -9 94.5659 11.5020   2
  39   9 -31 74.1510 8.69574   4
 -31  39   9 75.7446 11.1395   2
  31  39  -9 94.7304 9.55416   4
  11  39 -31 0.67345 8.64218   4
  11  31 -39 1.51586 8.35242   4
 -39  31  11 5.38785 11.6058   2
 -39  31 -11-2.77490 9.75164   2
 -31  39  11-1.48633 9.35690   2
  39  11 -31 3.91344 7.26918   4
  31  39 -11 15.1497 8.37694   4
  13  39 -31 336.561 14.9679   4
  13  31 -39 308.006 14.7264   4
 -31  39  13 313.747 15.0550   2
  39  13 -31 265.901 13.1319   4
  31  39 -13 322.684 14.5674   4
  31  39 -15 1.81011 7.66768   4
  15  39 -31 7.00957 8.35732   4
  15  31 -39 5.01658 8.08579   4
 -39  31 -15 10.9026 7.55640   2
  39  15 -31 6.84722 5.65343   4
  17  39 -31 350.602 13.5163   4
  17  31 -39 318.215 13.2560   4
  31  17 -39 334.316 14.4045   4
  31  39 -17 289.134 12.6838   4
  31  39 -19 61.5287 7.04213   4
  19  39 -31 74.6792 8.12573   4
  19  31 -39 67.5904 7.67182   4
  31  19 -39 58.6829 8.69311   4
  31  39 -21 6.35725 5.13443   4
  21  39 -31 14.1002 6.27102   4
  21  31 -39 5.28081 5.76134   4
  31  21 -39 2.99102 6.45642   4
  23  39 -31 25.8613 5.05876   4
  23  31 -39 10.3434 4.53167   4
  31  23 -39 16.1351 5.01778   4
 -33  39   1 488.786 20.9936   2
 -33  39  -1 454.175 21.0824   2
 -39  33   1 429.246 21.1067   2
 -39  33  -1 456.338 21.0884   2
 -33  39   3 29.2821 11.2316   2
 -39  33  -3 45.1551 11.4424   2
 -33  39  -3 19.6772 11.4479   2
 -39  33   3 23.5107 11.8464   2
 -33  39   5 472.715 18.1768   2
 -39  33  -5 505.022 18.4045   2
   7  39 -33 75.0241 6.98104   4
   7  33 -39 72.7666 5.95956   4
 -39  33  -7 117.832 11.2239   2
  39   7 -33 73.3182 7.40873   4
  33  39  -7 79.8648 6.81071   4
 -33  39   7 113.480 11.1071   2
   9  39 -33 287.116 12.3418   4
 -39  33  -9 356.237 14.8281   2
   9  33 -39 230.445 11.8506   4
 -39  33   9 370.304 15.6419   2
 -33  39   9 342.045 14.7403   2
  39   9 -33 236.197 11.9356   4
  33  39  -9 255.922 11.8101   4
  11  39 -33 2.22673 6.37147   4
  11  33 -39 10.6927 5.80065   4
 -39  33  11 0.23845 9.56633   2
 -39  33 -11 8.77314 8.31840   2
 -33  39  11 7.37199 8.06737   2
  39  11 -33-0.15102 5.43016   4
  33  39 -11 4.46097 5.83195   4
  13  39 -33 31.7650 6.58141   4
  13  33 -39 41.6740 6.22225   4
 -39  33 -13 37.2082 7.59713   2
  39  13 -33 25.9461 5.08457   4
  33  13 -39 25.6791 8.40798   4
  33  39 -13 34.5599 5.66796   4
  15  39 -33-3.70265 6.14286   4
  15  33 -39 3.99646 5.70837   4
 -39  33 -15 4.15967 5.57938   2
  33  15 -39 3.13566 7.50020   4
  33  39 -15-1.73101 4.96043   4
  17  39 -33-10.3278 5.84711   4
  17  33 -39-0.28407 5.31631   4
  33  17 -39-1.51167 6.18881   4
  19  39 -33 257.621 10.5328   4
  19  33 -39 228.731 10.2413   4
  33  19 -39 239.548 10.6487   4
 -33  39 -19 249.327 10.6265   2
 -39  35  -1 7.94514 9.36581   2
 -35  39   1 20.9615 9.60260   2
 -35  39  -1 30.4207 9.93320   2
 -39  35   1 12.7107 9.63214   2
 -39  35  -3 25.0974 9.13295   2
 -35  39   3 32.1721 9.29844   2
 -39  35  -5 12.9119 8.79953   2
 -35  39   5-0.21912 8.56234   2
 -39  35  -7 35.6143 8.39120   2
 -39  35   7 56.8108 9.43656   2
 -35  39  -7 44.1721 9.25014   2
 -35  39   7 37.0303 8.50722   2
 -39  35  -9 2.65045 7.19963   2
 -39  35   9 2.03959 7.93248   2
 -35  39   9 2.26195 7.31169   2
 -35  39  -9-1.44661 8.09442   2
 -39  35 -11 4.52720 6.34647   2
 -35  39 -11 4.36598 7.25853   2
  35  11 -39-6.94470 6.14876   4
 -39  35 -13 59.3986 6.02831   2
 -35  39 -13 74.1910 7.33413   2
  35  13 -39 71.0300 6.37560   4
 -35  39 -15 62.6308 5.97185   2
 -37  39   1 738.623 27.0630   2
 -39  37  -1 713.581 26.9699   2
 -37  39   3 153.370 9.86922   2
 -39  37  -3 176.527 9.95878   2
 -39  37   5 331.801 14.7150   2
 -37  39   5 364.077 14.8765   2
 -37  39  -5 344.455 14.7920   2
 -39  37  -5 366.642 14.8681   2
 -39  37   7 128.098 8.47080   2
 -37  39   7 127.268 8.17705   2
 -39  37  -7 126.372 8.02717   2
 -37  39  -7 133.719 8.49819   2
 -39  37  -9 378.463 15.3907   2
 -37  39  -9 418.778 15.6672   2
 -37  39 -11 135.961 7.26089   2
 -39  39  -3-2.59364 4.13925   2
   0  40   0 74.2134 16.7001   4
   0  40   2 2067.74 73.4066   4
  -2  40   0 1932.11 72.9994   4
   2  40   0 1953.97 73.4562   4
   0  40  -2 2053.20 73.1920   4
  -2  40   2 41.5670 15.3600   4
   2  40   2 24.6474 16.1160   4
  -2  40  -2 22.4802 14.7499   4
   2  40  -2 35.5639 15.9389   4
   0  40   4 266.909 20.0528   4
  -4  40   0 229.094 18.0843   4
   4  40   0 268.964 20.3137   4
   0  40  -4 230.743 19.0374   4
 -40   4  -2 23.4672 10.0886   2
  -2  40   4 3.64531 15.4035   4
  -4  40   2 38.3806 14.8953   4
   2  40   4 42.5599 16.7501   4
  -4  40  -2 38.9976 13.6897   4
   4  40   2 39.3995 16.4648   4
  -2  40  -4 50.7148 14.1919   4
   4  40  -2 19.3463 16.2149   4
   2  40  -4 28.4600 15.2552   4
  -4  40   4 1029.87 42.6324   4
   4  40   4 1075.69 43.5756   4
  -4  40  -4 1062.31 42.1250   4
   4  40  -4 1112.92 43.2197   4
 -40   6   0 471.904 22.0643   2
   0  40   6 464.604 25.5778   4
  -6  40   0 446.709 23.1867   4
   6  40   0 463.186 25.8161   4
   0  40  -6 442.917 23.6304   4
   2  40  -6-6.77298 14.1794   4
 -40   6   2 29.6804 12.7607   2
 -40   6  -2 9.60761 10.5483   2
  -2  40   6-7.81351 16.4756   4
  -6  40   2 17.1479 13.9411   4
   2  40   6 16.9141 16.7245   4
  -6  40  -2 1.24077 12.5939   4
   6  40   2 15.0640 17.2853   4
  -2  40  -6 6.80217 14.4579   4
   6  40  -2 12.5839 16.3430   4
   6  40  -4 19.1716 16.7148   4
   4  40  -6 0.45975 14.7197   4
 -40   6   4 8.03024 12.8831   2
 -40   6  -4 6.21119 9.79053   2
  -6  40   4-1.29963 14.5124   4
  -4  40   6 2.24679 15.2744   4
   4  40   6 13.2197 17.1667   4
  -6  40  -4-12.5227 12.7106   4
  -4  40  -6 9.89560 13.1337   4
   6  40  -6 220.616 19.4984   4
  -6  40   6 207.439 17.9754   4
  -6  40  -6 214.401 15.9392   4
   0  40  -8 104.964 15.5217   4
 -40   8   0 130.806 14.2246   2
  -8  40   0 100.493 13.7116   4
   0  40   8 84.8643 17.1051   4
   8  40  -2 162.208 18.7618   4
   2  40  -8 135.709 17.1299   4
 -40   8   2 150.985 14.9490   2
  -8  40   2 173.017 15.7636   4
  -2  40   8 154.275 17.5980   4
 -40   8  -2 152.514 14.0817   2
   2  40   8 144.074 17.9553   4
  -8  40  -2 161.144 14.8392   4
  -2  40  -8 127.747 15.4905   4
   8  40  -4 14.5769 17.0990   4
   4  40  -8 2.26176 15.6541   4
 -40   8   4 14.8350 13.4082   2
  -8  40   4 8.32439 14.1775   4
  -4  40   8 22.0414 14.5591   4
 -40   8  -4 15.5364 10.7736   2
  -8  40  -4 15.7382 11.9165   4
  -4  40  -8 13.2585 13.2624   4
   8  40  -6 42.6761 17.3386   4
   6  40  -8 39.8132 16.0734   4
 -40   8   6 43.7507 14.5466   2
  -8  40   6 18.8873 14.2344   4
  -6  40   8 27.9988 15.3644   4
 -40   8  -6 11.3878 9.90638   2
  -8  40  -6 26.7915 11.6152   4
  -6  40  -8 29.8212 11.7272   4
   8  40  -8 165.470 18.5101   4
  -8  40   8 127.893 16.4058   4
   8  40   8 157.027 18.3304   4
  -8  40  -8 153.718 13.5643   4
   0  40 -10 121.673 15.6251   4
 -10  40   0 99.1150 13.7303   4
   0  40  10 142.419 17.1098   4
 -40  10   0 115.119 14.6748   2
   2  40 -10 204.074 18.2530   4
 -10  40   2 200.083 15.6895   4
  -2  40  10 223.411 19.7372   4
 -10  40  -2 188.950 15.0961   4
   2  40  10 204.182 19.5526   4
 -40  10   2 204.354 16.9392   2
 -40  10  -2 232.995 16.4151   2
  -2  40 -10 219.979 16.8045   4
   4  40 -10 114.926 16.7195   4
 -10  40   4 104.279 14.3255   4
  -4  40  10 101.946 17.5816   4
 -40  10   4 89.0488 15.1875   2
 -10  40  -4 116.130 12.5531   4
  10  40   4 81.2343 17.6104   4
 -40  10  -4 105.533 13.0745   2
  -4  40 -10 111.424 13.3554   4
  10  40  -6 116.666 17.7092   4
   6  40 -10 138.445 18.0658   4
 -40  10   6 138.457 15.8599   2
 -10  40   6 134.998 15.2806   4
  -6  40  10 121.036 17.1731   4
 -10  40  -6 122.635 12.2979   4
  10  40   6 144.573 17.8496   4
  -6  40 -10 140.876 13.7676   4
 -40  10  -6 138.032 13.1305   2
  10  40  -8 36.1308 17.3335   4
   8  40 -10 47.3032 17.3783   4
 -40  10   8 72.3677 14.4331   2
 -10  40   8 56.8725 14.3068   4
  -8  40  10 42.7103 15.3399   4
   8  40  10 63.1312 18.0471   4
 -10  40  -8 49.2389 10.4793   4
  10  40   8 66.8818 17.2988   4
  -8  40 -10 50.2101 11.4312   4
 -40  10  -8 58.7106 10.5976   2
  10  40 -10 79.0548 16.8915   4
 -10  40  10 72.9442 14.9151   4
  10  40  10 82.9325 17.5793   4
 -10  40 -10 80.5923 10.6976   4
 -12  40   0 1098.98 41.9570   4
   0  40  12 1127.96 44.7324   4
 -40  12   0 1151.53 43.6319   2
  12  40   0 1056.64 44.6672   4
   0  40 -12 1102.83 43.1950   4
 -40  12   2 385.110 21.8919   2
 -12  40   2 351.081 19.5505   4
  -2  40  12 354.525 23.3205   4
 -12  40  -2 387.086 18.8455   4
 -40  12  -2 418.537 20.9384   2
  12  40   2 395.404 23.1117   4
  -2  40 -12 373.121 20.2604   4
   2  40 -12 389.124 21.0429   4
 -40  12  -4 7.70246 12.3651   2
   4  40 -12 13.1815 15.1358   4
 -12  40   4-4.14926 12.4272   4
  -4  40  12 9.46702 16.3638   4
 -12  40  -4 14.9891 9.93765   4
 -40  12   4 4.54449 14.6314   2
  12  40   4 8.74757 16.8978   4
  -4  40 -12 19.8722 11.8054   4
 -40  12  -6 107.975 13.2342   2
   6  40 -12 105.914 16.9332   4
 -12  40   6 124.890 14.1908   4
  -6  40  12 127.510 17.0942   4
 -40  12   6 106.601 16.3100   2
 -12  40  -6 115.039 11.1348   4
   6  40  12 108.006 18.7372   4
  12  40   6 98.2758 17.6842   4
  -6  40 -12 99.4648 12.5464   4
   8  40 -12 280.049 21.0193   4
 -40  12   8 326.784 21.5600   2
 -12  40   8 313.164 18.6225   4
  -8  40  12 314.434 20.5584   4
 -12  40  -8 314.139 15.6719   4
   8  40  12 306.536 21.3052   4
  12  40   8 318.638 21.6338   4
  -8  40 -12 307.474 16.5909   4
 -40  12  -8 353.493 17.4449   2
  12  40 -10 374.092 23.1468   4
  10  40 -12 364.465 23.3934   4
 -40  12  10 406.665 23.1636   2
 -12  40  10 387.484 20.4477   4
 -10  40  12 390.138 21.6644   4
 -12  40  10 363.052 17.6750   2
  10  40  12 421.351 23.3418   4
  12  40  10 377.541 23.0998   4
 -10  40 -12 355.037 17.2446   4
 -40  12 -10 375.885 18.3153   2
  12  40 -12 655.330 31.0405   4
  12  40  12 653.854 30.1400   4
 -40  14   0 10.6441 13.1441   2
   0  40 -14 4.42542 13.4843   4
 -14  40   0 28.2221 10.3908   4
  14  40   0 12.7122 16.7374   4
  14  40  -2 218.532 20.2456   4
   2  40 -14 231.276 16.7747   4
 -40  14  -2 246.598 17.8579   2
 -14  40  -2 209.632 13.6115   4
  -2  40  14 222.519 20.5440   4
 -14  40   2 202.038 14.3641   4
 -40  14   2 240.451 18.1530   2
  -2  40 -14 235.690 16.5881   4
  14  40   2 247.544 19.3876   4
   4  40 -14 655.132 28.9247   4
 -14  40   4 640.566 26.4499   4
  -4  40  14 672.569 30.2732   4
 -40  14   4 661.483 29.5415   2
 -14  40  -4 600.073 25.1176   4
   4  40  14 564.580 30.1803   4
  14  40   4 595.188 30.0752   4
 -40  14  -4 657.124 27.7481   2
  -4  40 -14 608.537 26.7596   4
  14  40  -4 624.406 30.1208   4
   6  40 -14 123.660 16.9655   4
 -40  14  -6 133.949 14.1828   2
 -14  40   6 123.030 13.3714   4
  -6  40  14 124.640 17.7819   4
   6  40  14 138.641 17.7930   4
 -40  14   6 142.987 17.1342   2
  14  40   6 146.221 17.9003   4
  -6  40 -14 123.330 12.4034   4
   8  40 -14 259.108 19.9213   4
 -14  40   8 261.164 16.4638   4
  -8  40  14 231.453 19.2577   4
 -40  14   8 259.943 19.8236   2
   8  40  14 264.847 20.1632   4
  14  40   8 302.881 19.7983   4
  -8  40 -14 215.108 13.9979   4
 -40  14  -8 253.293 16.1299   2
  10  40 -14 285.398 19.4800   4
 -14  40  10 238.993 14.6776   2
 -40  14  10 250.635 19.6870   2
  10  40  14 260.038 19.9375   4
  14  40  10 255.317 19.5683   4
 -40  14 -10 227.924 15.1978   2
  12  40 -14 97.9224 17.5744   4
 -40  14 -12 58.7900 10.2492   2
 -40  14  12 95.9328 17.2523   2
 -14  40  12 73.3095 9.74513   2
  12  40  14 76.3568 16.0352   4
  14  40  12 79.7446 15.4674   4
  14  40 -14 147.670 18.8336   4
  14  40  14 180.442 16.3513   4
   0  40 -16 105.670 13.7898   4
 -40  16   0 90.6413 15.8405   2
 -16  40   0 79.4329 9.90270   4
  16  40   0 104.046 16.6378   4
  16  40  -2 44.9394 16.9102   4
 -40  16   2 49.0293 15.4906   2
  -2  40 -16 34.6784 11.5426   4
   2  40 -16 41.9704 13.9898   4
 -40  16  -2 29.3648 14.1116   2
 -16  40   2 21.1258 9.53096   4
  -2  40  16 55.8573 16.6532   4
  16  40   2 24.6601 16.0380   4
  16  40  -4 191.701 19.3647   4
   4  40 -16 199.924 16.7277   4
 -40  16  -4 174.115 15.9671   2
  -4  40  16 179.617 18.9474   4
   4  40  16 174.721 19.5120   4
  16  40   4 180.084 18.0430   4
 -40  16   4 163.695 17.3020   2
  -4  40 -16 155.051 13.6047   4
  16  40  -6 213.658 20.1567   4
   6  40 -16 225.401 18.3534   4
 -40  16  -6 207.766 16.7166   2
  -6  40  16 260.635 19.5377   4
   6  40  16 234.190 19.2005   4
 -40  16   6 230.088 18.8769   2
  16  40   6 234.511 18.9241   4
  -6  40 -16 194.461 13.6324   4
 -40  16  -8 266.872 17.0695   2
  16  40  -8 262.899 21.4492   4
   8  40 -16 261.540 20.2676   4
   8  40  16 286.642 19.7321   4
 -40  16   8 270.594 20.7391   2
  16  40   8 301.109 19.1097   4
  -8  40 -16 268.895 14.1787   4
  10  40 -16 6.02565 16.3389   4
 -40  16 -10 22.1263 11.1794   2
 -40  16  10 14.7234 16.1557   2
  10  40  16 33.0410 15.5876   4
 -16  40  10 26.0303 10.6981   2
  16  40  10 23.0355 14.6938   4
 -16  40  12 332.609 17.1217   2
 -40  16 -12 360.163 17.7592   2
  12  40 -16 364.039 22.3777   4
 -40  16  12 339.450 22.3323   2
  12  40  16 345.258 20.8516   4
  16  40  12 346.170 19.6561   4
  14  40 -16 129.997 17.3554   4
 -40  16 -14 122.585 11.0579   2
  14  40  16 129.183 14.7963   4
  16  40  14 101.760 14.6089   4
  16  40  16 5.33784 12.5611   4
   0  40 -18 45.1520 11.9083   4
 -40  18   0 66.5524 15.2587   2
  18  40   0 46.8860 16.0431   4
  18  40  -2 207.838 18.7042   4
  -2  40 -18 198.103 14.6518   4
 -40  18   2 193.513 18.0698   2
   2  40 -18 169.845 15.8403   4
 -40  18  -2 188.052 17.1441   2
   2  40  18 188.277 19.6712   4
  18  40   2 195.945 18.1853   4
   4  40 -18 470.997 24.1072   4
  -4  40  18 478.787 25.8233   4
   4  40  18 517.431 26.3635   4
 -40  18   4 480.121 25.6406   2
  18  40   4 499.657 25.0473   4
  -4  40 -18 459.951 21.5137   4
  18  40  -4 498.011 25.9280   4
 -40  18  -4 500.531 23.7890   2
  18  40  -6 65.9868 17.2286   4
   6  40 -18 94.9536 15.5418   4
 -40  18  -6 82.2187 13.8952   2
   6  40  18 74.6951 16.3279   4
  18  40   6 73.8429 15.2911   4
 -40  18   6 79.8455 17.1206   2
  -6  40 -18 73.0579 9.87432   4
  18  40  -8 6.03492 17.0959   4
   8  40 -18 1.24017 15.3764   4
 -40  18  -8-13.8432 12.5056   2
   8  40  18 11.7131 15.8713   4
 -40  18   8-6.34331 16.3319   2
  18  40   8-9.59169 14.3272   4
  18  40 -10-5.98559 16.9793   4
  10  40 -18-3.30333 14.6100   4
 -40  18 -10-11.8756 11.4210   2
  10  40  18 15.3334 14.9654   4
 -40  18  10 4.04113 16.2346   2
 -18  40  10-4.44409 10.9909   2
  18  40  10-6.56044 13.6545   4
 -40  18 -12 269.997 15.8599   2
  12  40 -18 276.107 19.4279   4
  18  40 -12 280.591 20.7844   4
 -40  18  12 320.185 21.1297   2
  12  40  18 250.308 18.2514   4
  18  40  12 295.660 17.1516   4
 -18  40  12 245.673 15.2136   2
  14  40 -18-7.22475 16.2080   4
 -40  18 -14 11.4815 9.77242   2
  14  40  18-6.86499 12.0936   4
  18  40  14 12.1006 11.8172   4
 -18  40  14-3.34493 9.04663   2
 -40  18 -16 223.957 12.9117   2
  16  40 -18 250.749 18.7598   4
  16  40  18 263.435 15.9023   4
  18  40  16 260.669 15.9346   4
  18  40  18 1024.08 38.6687   4
   0  20 -40 2313.36 84.6369   4
  20  40   0 2570.77 86.7973   4
 -40  20   0 2608.70 87.1237   2
   0  40 -20 2330.32 85.4618   4
   2  40 -20 246.254 16.0156   4
 -40  20   2 237.557 19.3722   2
   2  40  20 243.788 19.9770   4
  20  40   2 218.381 17.9744   4
 -40  20  -2 260.804 18.3645   2
  -2  40 -20 216.427 14.7339   4
  20  40  -2 259.302 18.6634   4
  20  40  -4-5.00013 15.4504   4
   4  40 -20 16.6023 12.9887   4
 -40  20  -4 8.70109 13.7924   2
   4  40  20-3.79116 16.5059   4
  20  40   4 17.8015 14.3903   4
  -4  40 -20-1.15019 9.30563   4
 -40  20   4-7.10877 15.2780   2
 -40  20  -6 565.912 26.3486   2
   6  40 -20 588.206 25.9580   4
   6  40  20 590.026 27.7705   4
 -40  20   6 543.695 27.8193   2
  20  40   6 557.343 25.6988   4
  20  40  -6 539.629 27.0218   4
  20  40  -8 4.11846 15.3536   4
   8  40 -20 14.9115 14.5122   4
   8  40  20 7.20871 13.9995   4
 -40  20  -8 8.74013 12.4880   2
 -40  20   8-4.40202 16.1914   2
  20  40   8-1.49130 12.9242   4
 -20  40   8 8.02974 11.7462   2
  20  40 -10 445.402 24.5544   4
  10  40 -20 440.222 23.5909   4
 -20  40  10 466.739 21.3825   2
 -40  20 -10 425.420 21.6766   2
 -40  20  10 474.345 24.9124   2
  10  40  20 469.613 23.1220   4
  20  40  10 471.175 22.3065   4
  20  40 -12 529.342 25.9679   4
  12  40 -20 532.282 25.8555   4
 -40  20 -12 524.796 23.1302   2
 -40  20  12 532.803 26.8422   2
  12  40  20 542.417 24.1895   4
  20  40  12 537.325 23.4973   4
 -20  40  12 470.582 22.4918   2
  20  40 -14 364.857 21.2721   4
 -40  20 -14 321.409 16.8592   2
  14  40 -20 326.098 20.2938   4
 -40  20  14 386.550 22.0274   2
  14  40  20 332.111 18.4399   4
  20  40  14 358.788 17.9321   4
 -20  40  14 319.926 16.3539   2
 -40  20 -16 201.394 12.5212   2
  20  40 -16 236.320 18.3882   4
  16  40 -20 233.321 17.8762   4
 -20  40  16 206.246 11.7709   2
  20  40  16 210.865 13.8664   4
  16  40  20 205.307 14.1784   4
  20  40  18 24.2214 9.49926   4
  22  40   0 877.069 34.8468   4
 -40  22   0 888.255 35.7297   2
   0  40 -22 792.790 32.7776   4
  -2  40 -22 10.1411 9.34307   4
   2  40 -22 6.73214 11.3498   4
 -40  22   2-4.25139 15.2222   2
 -40  22  -2-3.30308 14.3627   2
   2  22 -40-4.39751 9.62237   4
  22  40   2 9.02300 13.5994   4
  22  40  -2-6.15394 13.9095   4
  22  40  -4 22.3032 14.4674   4
 -40  22   4 11.5754 15.9171   2
   4  40 -22 14.0556 12.0521   4
 -40  22  -4 24.6040 13.6556   2
   4  22 -40 0.96599 10.6107   4
  22  40   4 19.4178 13.2553   4
  -4  40 -22 23.6908 8.19425   4
   6  40 -22 20.6295 12.9549   4
 -40  22  -6-0.77611 12.9695   2
  22  40   6 8.14829 11.9028   4
   6  22 -40 6.49613 11.5403   4
 -40  22   6 2.13423 15.9348   2
  22  40  -8 153.981 16.6103   4
   8  40 -22 145.889 15.5684   4
 -40  22  -8 154.402 14.6286   2
 -22  40   8 155.871 14.7067   2
  22  40   8 145.799 14.1360   4
 -40  22   8 171.833 17.6232   2
  22  40 -10 40.2047 14.3826   4
  10  40 -22 48.4508 13.5782   4
 -22  40  10 7.66243 11.3662   2
 -40  22 -10 53.2791 12.2892   2
 -40  22  10 29.3180 15.1947   2
  22  40  10 10.5073 11.1613   4
  22  40 -12 128.656 16.2801   4
 -22  40  12 111.775 12.0173   2
  12  40 -22 98.4817 14.7594   4
 -40  22  12 113.582 16.9562   2
 -40  22 -12 118.979 12.3656   2
  22  40  12 127.691 11.9044   4
  22  40 -14 69.2917 15.0576   4
  14  40 -22 39.4275 14.3653   4
 -40  22  14 69.1968 16.0419   2
 -40  22 -14 64.0767 10.5352   2
  22  40  14 49.6372 10.3306   4
 -22  40  14 73.8649 10.1071   2
  22  40 -16 87.1890 14.0563   4
  16  40 -22 77.1584 13.9974   4
  22  40  16 80.6236 9.60227   4
 -40  22 -16 80.7951 9.61150   2
 -22  40  16 77.2676 8.93234   2
  22  40 -18 24.3264 13.0956   4
  18  40 -22 48.9415 12.9430   4
 -40  22 -18 35.2905 7.16844   2
  22  40 -20-4.59920 12.4496   4
  20  22 -40 14.3540 13.0838   4
  22  22 -40-0.88825 11.9245   4
 -40  24   0 200.962 17.9446   2
  24  40   0 221.002 15.5490   4
   0  40 -24 217.834 13.4654   4
  -2  40 -24 160.641 11.4124   4
   2  40 -24 180.721 13.4712   4
 -40  24   2 162.468 17.0264   2
 -40  24  -2 189.768 17.0264   2
   2  24 -40 177.648 11.3027   4
  24  40   2 194.035 14.9788   4
  24  40  -2 171.164 15.1712   4
 -40  24   4 8.15146 15.3871   2
   4  40 -24-4.16701 11.4154   4
 -40  24  -4 9.63969 13.0509   2
   4  24 -40 21.4307 9.64020   4
  24  40   4 16.5416 11.5945   4
  24  40  -4-1.07446 13.4198   4
  24  40  -6 185.548 16.0867   4
   6  40 -24 145.774 13.9648   4
 -40  24  -6 179.131 15.2883   2
   6  24 -40 174.666 13.3881   4
  24  40   6 166.118 13.7255   4
 -24  40   6 150.334 14.7351   2
 -40  24   6 184.863 17.5328   2
  24  40  -8 120.810 15.3382   4
   8  40 -24 104.407 13.8946   4
 -24  40   8 112.185 13.3490   2
 -40  24  -8 106.178 13.5622   2
  24  40   8 112.275 12.1939   4
   8  24 -40 104.297 12.6598   4
 -40  24   8 114.705 16.7926   2
  24  40 -10 2.11190 12.9801   4
  10  40 -24 9.45716 12.7341   4
 -24  40  10 22.2855 11.1723   2
 -40  24  10-5.04705 15.3957   2
 -40  24 -10-14.8482 11.8731   2
  24  40  10 9.87274 9.55241   4
  10  24 -40 18.2273 11.7798   4
 -24  40  12 185.732 13.9243   2
  24  40 -12 227.651 16.7450   4
 -40  24 -12 221.678 14.2719   2
  12  40 -24 206.829 16.4133   4
 -40  24  12 243.700 18.1015   2
  24  40  12 223.707 12.6704   4
  12  24 -40 198.476 15.3857   4
  24  40 -14-12.3592 13.4418   4
  14  40 -24 11.0798 13.0714   4
  24  40  14 15.7657 8.35898   4
  40  14 -24 13.1860 7.19513   4
 -40  24 -14 7.30155 9.58814   2
 -24  40  14 7.29203 9.00777   2
  14  24 -40 15.4136 12.3721   4
  24  40 -16 6.04508 12.4811   4
  16  40 -24-1.87787 12.7164   4
 -24  40  16 6.47502 8.00144   2
  40  16 -24 11.2642 7.10829   4
 -40  24 -16 2.54820 8.35691   2
  16  24 -40 11.1744 12.1434   4
  24  40 -18 129.419 13.3352   4
  18  40 -24 131.775 13.6571   4
  40  18 -24 117.698 8.23037   4
 -40  24 -18 108.693 8.36604   2
  18  24 -40 166.380 13.9015   4
  24  40 -20 389.249 19.3211   4
  20  40 -24 403.926 19.6054   4
  20  24 -40 399.791 19.6054   4
  24  40 -22 70.8891 11.1582   4
  22  24 -40 68.3645 11.4655   4
  24  22 -40 56.4732 11.6483   4
  24  40 -24 7.73152 9.16488   4
  24  24 -40 14.5450 9.79785   4
  26  40   0 341.469 17.6220   4
 -40  26   0 350.349 19.9947   2
   0  40 -26 310.343 15.3166   4
   2  40 -26 20.5722 9.35960   4
 -40  26   2 45.6106 14.8925   2
 -40  26  -2 19.6235 14.2029   2
  26  40   2 15.9282 10.8962   4
  26  40  -2 23.8439 11.3331   4
   4  40 -26 1.13668 10.2210   4
 -40  26  -4 20.9557 13.6861   2
  26  40   4 6.89922 10.0531   4
 -26  40   4 3.20894 12.7560   2
   4  26 -40 7.34929 8.60016   4
  26  40  -4 5.12681 11.3450   4
 -40  26   4 7.99693 14.7788   2
   6  40 -26 58.7693 11.5249   4
 -40  26  -6 81.4706 13.8210   2
   6  26 -40 76.6746 10.3086   4
 -26  40   6 78.2353 12.7883   2
  26  40   6 67.7283 10.4172   4
 -40  26   6 67.5284 15.6013   2
  26  40  -6 68.4211 12.8307   4
  26  40  -8 42.7247 12.6882   4
   8  40 -26 34.1716 11.2658   4
 -26  40   8 17.0856 11.8710   2
 -40  26  -8 30.4010 12.4448   2
   8  26 -40 21.5698 10.4128   4
  26  40   8 24.2582 9.07641   4
  26  40 -10 111.031 12.8761   4
 -26  40  10 102.129 11.9129   2
  10  40 -26 94.2965 12.2569   4
 -40  26  10 102.095 15.5375   2
 -40  26 -10 125.267 12.5293   2
  26  40  10 95.6925 9.19621   4
  10  26 -40 99.8856 11.9165   4
  40  10 -26 95.0243 8.62090   4
  26  40 -12 0.92347 11.5259   4
  12  40 -26 5.40646 11.5602   4
  26  40  12 7.96035 6.41857   4
 -40  26 -12 1.97247 10.2386   2
  40  12 -26 6.97721 7.17965   4
  12  26 -40-9.64950 10.7036   4
 -26  40  12-3.83681 9.97650   2
  26  40 -14 419.370 19.8799   4
  14  40 -26 432.947 19.9201   4
 -40  26 -14 403.834 18.0526   2
 -26  40  14 408.009 17.8206   2
  40  14 -26 339.917 16.3385   4
  14  26 -40 446.585 19.2969   4
  26  40 -16 9.89557 11.2081   4
  16  40 -26 5.32088 11.1883   4
 -26  40  16 9.90646 7.59353   2
  40  16 -26 9.58031 6.29937   4
 -40  26 -16-3.83063 7.89715   2
  16  26 -40 5.57815 10.7829   4
  26  40 -18 508.330 18.9179   4
  18  40 -26 472.218 18.7177   4
  18  26 -40 490.056 18.7794   4
  26  40 -20 150.397 12.1210   4
  20  40 -26 147.496 11.9935   4
  20  26 -40 156.451 12.1142   4
  26  40 -22 9.29667 8.68244   4
  22  26 -40 0.44163 8.78605   4
  26  40 -24 30.5266 7.50707   4
  24  26 -40 36.2113 7.76548   4
  26  40 -26-4.34801 5.96994   4
 -40  28   0 73.3385 14.3891   2
  28  40   0 110.702 10.8413   4
   0  40 -28 78.9189 7.69878   4
   2  40 -28 0.43586 8.01088   4
 -40  28   2 1.05052 13.4131   2
 -40  28  -2 14.6400 13.4899   2
  28  40   2-9.55001 9.33196   4
 -28  40   2-19.0470 13.2314   2
  28  40  -2-8.46183 10.1514   4
   4  40 -28 231.420 12.5339   4
   4  28 -40 194.482 11.3892   4
 -40  28  -4 236.138 16.2405   2
  28  40   4 233.768 12.7051   4
 -28  40   4 231.270 16.2926   2
  28  40  -4 239.836 14.3479   4
 -40  28   4 247.302 17.3522   2
 -28  40   6 39.3634 12.2280   2
 -40  28  -6 48.0176 12.6516   2
   6  28 -40 60.0345 8.66930   4
  28  40   6 58.9407 8.03781   4
 -40  28   6 54.4769 14.0265   2
  28  40  -6 63.0582 11.0422   4
   8  40 -28 11.5174 9.61528   4
 -28  40   8 14.4630 10.8162   2
   8  28 -40 1.93192 8.86754   4
 -40  28  -8 14.5399 11.4774   2
  28  40   8 5.77358 6.03553   4
 -40  28   8 27.1483 13.8309   2
  40   8 -28 13.7304 7.05059   4
  28  40  -8 3.05988 10.3148   4
  28  40 -10 65.5959 11.0523   4
  10  40 -28 32.5015 10.4318   4
  10  28 -40 47.1434 9.69872   4
 -40  28 -10 50.9205 10.7294   2
  40  10 -28 47.4799 7.54183   4
 -28  40  10 46.5747 10.5355   2
  28  40 -12 120.592 12.0031   4
  12  40 -28 123.402 11.6387   4
  12  28 -40 135.721 11.0642   4
  40  12 -28 93.2407 8.30446   4
 -40  28 -12 112.400 11.1248   2
 -28  40  12 122.815 10.9608   2
  28  40 -14 70.1194 10.6061   4
  14  40 -28 61.9373 10.7303   4
 -28  40  14 57.7755 8.64580   2
 -40  28 -14 44.7523 9.08747   2
  14  28 -40 53.7131 10.1186   4
  40  14 -28 44.3876 6.26503   4
  28  40 -16-5.78210 9.35317   4
  16  40 -28-2.91611 9.72608   4
 -40  28 -16-0.92987 6.40224   2
  40  16 -28-3.02644 5.37983   4
  16  28 -40-3.78554 9.32105   4
  28  40 -18 33.4806 9.09951   4
  18  40 -28 20.5341 9.38289   4
 -40  28 -18 30.6361 5.21573   2
  28  18 -40 32.1443 10.3812   4
  28  40 -20 25.7105 8.28183   4
  20  40 -28 33.5983 8.84516   4
  20  28 -40 45.9663 8.69738   4
  28  20 -40 21.8941 9.13648   4
  28  40 -22 112.517 8.52444   4
  22  40 -28 100.097 8.42602   4
  22  28 -40 94.8517 8.56398   4
  28  22 -40 122.247 9.40043   4
  28  40 -24 39.0390 5.63324   4
  24  28 -40 24.3361 5.90233   4
 -30  40   0 552.789 24.1554   2
  30  40   0 529.165 21.2534   4
 -40  30   0 551.013 24.5160   2
   2  40 -30 5.80153 5.59445   4
 -40  30  -2-3.36114 11.8547   2
 -30  40   2-10.4192 12.3045   2
  30  40   2-0.18823 6.86765   4
  30  40  -2-2.82452 8.09027   4
 -40  30   2-4.08848 12.4677   2
   4  40 -30 3.56378 6.67619   4
 -40  30  -4 1.48656 11.6103   2
 -30  40   4-0.29665 11.3724   2
  30  40   4 1.14782 5.51329   4
  30  40  -4 7.44079 8.06611   4
 -40  30   4 5.61928 12.4608   2
   6  40 -30 307.787 14.1287   4
   6  30 -40 251.518 12.9231   4
 -40  30   6 378.347 17.9938   2
  40   6 -30 247.889 12.9181   4
  30  40  -6 344.659 14.9508   4
 -30  40   6 334.487 16.6542   2
 -40  30  -6 381.193 17.0462   2
 -30  40   8-3.99445 9.95316   2
   8  40 -30 2.81288 8.02658   4
   8  30 -40-7.01153 7.25873   4
 -40  30  -8 4.31327 10.1400   2
  40   8 -30 1.92120 6.18420   4
  30  40  -8 9.62663 8.71080   4
  10  40 -30 42.5711 8.75304   4
  10  30 -40 43.0094 8.20262   4
 -40  30 -10 43.0996 9.83963   2
  40  10 -30 14.6344 6.01170   4
 -30  40  10 32.4098 9.63386   2
  30  40 -10 37.0113 8.97214   4
  12  40 -30 75.7853 9.29705   4
  12  30 -40 78.4285 8.61182   4
 -40  30 -12 69.9087 9.18210   2
 -30  40  12 82.4690 9.20436   2
  40  12 -30 56.4792 6.21211   4
  30  40 -12 76.2527 9.32271   4
  14  40 -30 58.9192 8.99930   4
 -30  40  14 48.7470 7.47755   2
 -40  30 -14 66.5153 7.83559   2
  14  30 -40 58.7964 8.61094   4
  30  40 -14 62.0246 8.72912   4
  30  40 -16 0.77360 7.34208   4
  16  40 -30 10.9788 7.84139   4
 -40  30 -16 13.6421 5.69785   2
  16  30 -40 11.0826 7.59690   4
  30  16 -40 3.30258 9.52519   4
  30  40 -18 24.0875 7.03785   4
  18  40 -30 13.3943 7.30168   4
  18  30 -40 9.26033 7.15567   4
  30  18 -40 18.6323 8.41574   4
  20  40 -30 867.811 31.5900   4
  20  30 -40 816.663 31.4796   4
  30  20 -40 910.488 31.9895   4
  30  40 -20 911.635 31.4716   4
  22  30 -40 10.2587 4.78796   4
  30  22 -40 4.32685 5.06796   4
  30  40 -22 0.84119 4.35806   4
 -40  32   0 10.6573 10.8449   2
 -32  40   0 24.9109 11.2474   2
 -40  32  -2 9.11206 10.5789   2
 -32  40   2 11.7635 10.8206   2
 -32  40  -2 14.3121 11.4689   2
  32  40  -2 7.00262 5.15300   4
 -40  32   2 11.7833 11.0510   2
 -32  40   4 152.566 12.3418   2
 -40  32  -4 149.737 12.5444   2
  32  40  -4 120.742 7.90104   4
 -32  40  -4 168.768 13.1782   2
 -40  32   4 144.634 12.8247   2
 -32  40   6 452.272 17.0070   2
  32  40  -6 327.554 14.0124   4
 -40  32  -6 415.231 16.8665   2
   8  32 -40 105.715 7.25670   4
 -32  40   8 188.618 11.1308   2
  32  40  -8 146.748 8.67526   4
 -40  32  -8 175.419 11.1929   2
   8  40 -32 132.475 8.13126   4
  10  40 -32-1.33359 6.37662   4
  10  32 -40 7.07119 5.41076   4
 -40  32 -10 8.86669 8.05121   2
 -32  40  10 3.12399 8.01624   2
  32  40 -10 0.32857 5.93115   4
  12  40 -32 289.057 12.7537   4
  12  32 -40 260.636 12.0911   4
 -32  40  12 295.843 12.9790   2
  32  40 -12 267.231 12.1803   4
 -40  32 -12 306.636 13.3516   2
  14  40 -32 101.386 7.42259   4
 -40  32 -14 69.2120 7.00344   2
  14  32 -40 89.8269 6.79132   4
  32  14 -40 91.5474 9.41357   4
  32  40 -14 78.9005 6.62651   4
  16  40 -32-0.15149 5.76746   4
  16  32 -40 3.24905 5.28264   4
  32  16 -40-1.09078 6.89170   4
  32  40 -16 4.17295 4.83358   4
  18  40 -32 273.331 10.9740   4
  18  32 -40 217.511 10.5187   4
  32  18 -40 278.136 11.4659   4
  32  20 -40 112.191 6.32619   4
  20  40 -32 106.137 5.94835   4
 -34  40   0 145.474 11.4095   2
 -40  34   0 123.381 11.1967   2
 -34  40   2 94.9922 9.92100   2
 -34  40  -2 77.2342 10.1451   2
 -40  34   2 76.5438 10.3176   2
 -40  34  -2 79.7446 9.98890   2
 -40  34  -4 43.5410 9.02027   2
 -34  40   4 43.6102 8.93721   2
 -40  34  -6 8.41926 7.98709   2
 -34  40   6 9.37850 7.93814   2
 -40  34  -8 51.4924 7.85868   2
 -34  40   8 33.0135 7.41481   2
 -40  34 -10-1.34938 6.48588   2
 -34  40  10 11.1977 6.28477   2
 -34  40 -10 15.1841 7.63136   2
 -40  34 -12-3.99022 5.13312   2
 -34  40 -12 7.32995 7.02763   2
  34  12 -40-3.41944 6.21069   4
 -34  40 -14-2.33536 5.78455   2
  34  14 -40-0.13943 5.11064   4
 -34  40 -16 139.540 7.30071   2
 -40  36   0 85.6970 7.98832   2
 -36  40   0 89.8900 7.99826   2
 -36  40   2 9.36259 6.74118   2
 -40  36  -2 19.2636 6.54175   2
 -36  40   4 130.189 8.29302   2
 -40  36  -4 120.849 8.41825   2
 -36  40   6 35.9462 6.10005   2
 -40  36  -6 38.5828 6.47806   2
 -36  40  -8 49.3507 6.41715   2
 -40  36  -8 46.1288 5.72632   2
 -36  40 -10 36.9559 5.22554   2
 -38  40   0 6.43803 4.31179   2
 -38  40   2 4.61604 4.22467   2
 -40  38  -2 3.31398 3.97018   2
  -1  41   1 10.3357 15.5323   4
   1  41   1 14.6490 15.3260   4
  -1  41  -1 24.0523 15.1356   4
   1  41  -1 8.62297 16.2611   4
  -1  41   3 643.732 31.6012   4
  -3  41   1 692.300 30.8611   4
   1  41   3 748.862 32.4537   4
  -3  41  -1 698.584 30.8824   4
   3  41   1 685.407 32.3567   4
  -1  41  -3 759.887 31.2767   4
   3  41  -1 700.739 31.7413   4
   1  41  -3 688.264 31.2697   4
  -3  41   3 10.2494 15.7554   4
   3  41   3 5.11509 16.6974   4
  -3  41  -3-11.1091 13.6874   4
   3  41  -3 0.45212 16.1727   4
  -1  41   5 4198.97 142.977   4
  -5  41   1 4084.77 142.175   4
   1  41   5 4122.24 142.893   4
  -5  41  -1 4044.83 142.059   4
   5  41   1 4067.36 142.959   4
  -1  41  -5 4067.16 142.382   4
   5  41  -1 4094.86 142.894   4
   1  41  -5 3989.58 142.371   4
  -5  41   3 5.18706 14.8136   4
  -3  41   5 10.7493 15.5599   4
   3  41   5 19.1337 16.0999   4
  -5  41  -3 34.1486 13.3114   4
   5  41   3 2.80297 16.6450   4
  -3  41  -5 18.8566 13.3321   4
   5  41  -3 31.5153 15.8186   4
   3  41  -5 14.3456 15.3424   4
   5  41  -5 9.14007 15.6213   4
  -5  41   5 3.04230 15.0310   4
  -5  41  -5 5.22924 13.1206   4
 -41   7   1 3233.12 111.873   2
 -41   7  -1 3057.70 111.445   2
  -7  41   1 3228.31 112.233   4
  -1  41   7 3218.00 113.061   4
   1  41   7 3289.97 113.223   4
  -7  41  -1 3170.41 111.931   4
   7  41   1 3102.10 112.885   4
  -1  41  -7 3254.78 112.235   4
   7  41  -1 3166.63 112.981   4
   1  41  -7 3210.42 112.556   4
   3  41  -7 202.742 18.5599   4
 -41   7   3 183.991 15.7365   2
 -41   7  -3 187.179 13.8093   2
  -7  41   3 185.058 15.7086   4
  -3  41   7 207.376 18.7339   4
   3  41   7 198.394 20.0671   4
  -7  41  -3 179.783 15.5548   4
  -3  41  -7 184.125 15.4630   4
   7  41  -3 174.540 18.6304   4
  -7  41   5 3522.16 123.756   4
  -5  41   7 3554.32 124.046   4
  -7  41  -5 3548.84 123.235   4
  -5  41  -7 3479.15 123.302   4
   7  41  -5 3482.09 124.424   4
   5  41  -7 3601.03 124.350   4
   7  41  -7-1.82248 15.8451   4
  -7  41  -7 2.95238 11.8612   4
   1  41  -9 0.85674 14.3342   4
 -41   9   1 0.40957 12.7465   2
 -41   9  -1 23.9266 12.0436   2
  -9  41   1 9.31031 12.7119   4
  -1  41   9 16.8284 16.5213   4
  -9  41  -1 6.44197 12.4388   4
   1  41   9 16.5723 16.3792   4
  -1  41  -9 11.5233 12.4240   4
   3  41  -9 1.31989 14.5965   4
 -41   9   3 16.1137 13.5360   2
  -9  41   3 7.48594 12.6909   4
  -3  41   9 7.60038 15.6195   4
 -41   9  -3 14.1835 11.0195   2
  -9  41  -3 14.0240 11.8033   4
  -3  41  -9 11.1315 12.7446   4
   9  41  -5 63.2365 16.9708   4
   5  41  -9 93.3405 16.5883   4
 -41   9   5 80.4009 14.5235   2
  -9  41   5 88.3381 14.4423   4
  -5  41   9 90.0600 16.4387   4
 -41   9  -5 87.6680 11.5313   2
  -9  41  -5 93.4811 12.5629   4
   9  41   5 73.8729 18.1001   4
  -5  41  -9 72.6234 12.9016   4
   9  41  -7 317.490 22.9021   4
 -41   9   7 379.944 20.9853   2
  -9  41   7 350.617 20.5445   4
  -7  41   9 386.956 21.9055   4
   7  41   9 361.012 23.8780   4
  -9  41  -7 372.948 18.5156   4
   9  41   7 382.169 23.8442   4
  -7  41  -9 385.070 19.2264   4
   7  41  -9 399.922 23.2674   4
   9  41  -9-3.58861 16.4532   4
  -9  41   9 6.17941 13.4825   4
   9  41   9-6.80572 17.1916   4
  -9  41  -9-2.58882 10.0415   4
   1  41 -11 125.375 15.3834   4
 -11  41   1 116.640 13.0346   4
  -1  41  11 106.810 17.0078   4
 -11  41  -1 101.581 12.7332   4
   1  41  11 124.100 17.3964   4
 -41  11   1 108.090 14.7348   2
 -41  11  -1 106.698 14.0613   2
  11  41   1 109.777 17.7020   4
  -1  41 -11 115.235 14.5917   4
   3  41 -11-4.29161 14.9069   4
 -11  41   3 7.08079 12.2061   4
 -41  11   3 6.89660 13.2820   2
  -3  41  11 15.6087 16.3878   4
 -11  41  -3 21.6654 10.6279   4
 -41  11  -3 2.34283 11.5967   2
  11  41   3 4.57365 16.2265   4
  -3  41 -11 27.8946 12.2138   4
 -41  11   5 434.326 22.5049   2
 -11  41   5 422.896 21.2538   4
  -5  41  11 450.412 23.3133   4
 -41  11  -5 387.361 20.0186   2
 -11  41  -5 378.654 19.1306   4
  11  41   5 407.554 24.6016   4
  -5  41 -11 400.667 20.3336   4
   5  41 -11 433.851 23.5822   4
   7  41 -11 1010.36 40.4539   4
 -41  11   7 989.942 40.0578   2
 -11  41   7 971.516 39.1750   4
  -7  41  11 1011.59 40.4148   4
 -41  11  -7 1019.20 38.1880   2
 -11  41  -7 929.913 37.4264   4
   7  41  11 1103.13 41.8805   4
  11  41   7 1058.66 41.4973   4
  -7  41 -11 991.537 38.1793   4
  11  41  -7 1002.97 41.5335   4
  11  41  -9 35.3504 16.2870   4
   9  41 -11 24.7694 17.0505   4
 -41  11   9 17.1730 14.1323   2
 -11  41   9 25.2310 13.3504   4
  -9  41  11 23.2618 14.3280   4
 -11  41  -9 49.9807 9.49820   4
   9  41  11 28.8834 17.0440   4
  11  41   9 21.3054 16.5707   4
  -9  41 -11 25.9855 9.64427   4
  11  41 -11-6.62893 16.7952   4
 -11  41  11-9.05096 13.6438   4
  11  41  11 12.9912 16.2281   4
 -41  13   1 1527.66 57.0263   2
 -13  41   1 1494.46 55.4793   4
 -13  41  -1 1437.34 55.1192   4
  -1  41  13 1543.20 57.8488   4
 -41  13  -1 1626.16 56.9169   2
  13  41   1 1533.37 58.1752   4
  13  41  -1 1512.22 58.1151   4
  -1  41 -13 1548.13 56.4818   4
   1  41 -13 1565.25 56.5921   4
   3  41 -13 100.509 15.3239   4
 -13  41   3 110.990 12.9486   4
  -3  41  13 119.463 18.1066   4
 -13  41  -3 108.706 11.1498   4
 -41  13   3 126.832 15.9162   2
  13  41   3 121.906 18.3024   4
 -41  13  -3 117.563 14.1460   2
  -3  41 -13 98.9203 13.1899   4
   5  41 -13 5021.46 174.049   4
 -41  13   5 5129.05 174.222   2
 -13  41   5 5006.62 173.263   4
  -5  41  13 5210.38 174.510   4
 -13  41  -5 4756.91 172.182   4
   5  41  13 5154.34 174.604   4
 -41  13  -5 5209.38 173.560   2
  13  41   5 5219.54 174.614   4
  -5  41 -13 4836.52 172.959   4
 -41  13  -7 28.6536 11.3654   2
   7  41 -13 42.6913 15.8064   4
 -13  41   7 37.1185 12.3727   4
  -7  41  13 32.5603 15.5200   4
 -41  13   7 36.8808 15.0588   2
   7  41  13 24.2303 17.2194   4
  13  41   7 44.3020 16.7080   4
  -7  41 -13 35.9023 10.2737   4
 -41  13  -9 8.23100 10.2131   2
   9  41 -13 0.43431 15.8131   4
 -41  13   9-13.0727 15.4925   2
  -9  41  13-10.6844 15.0520   4
   9  41  13-11.2319 16.1356   4
  13  41   9 18.5056 15.2494   4
  -9  41 -13 4.15879 8.51765   4
 -13  41   9-7.75341 9.68486   2
  13  41 -11 448.093 25.1472   4
  11  41 -13 406.308 24.2235   4
  11  41  13 439.543 23.7671   4
  13  41  11 431.222 23.6874   4
  13  41 -13 12.7345 16.1658   4
  13  41  13 13.6684 14.9825   4
  -1  41 -15 111.790 13.6656   4
   1  41 -15 92.4199 14.3322   4
 -15  41   1 102.762 10.9786   4
 -15  41  -1 102.681 10.2872   4
  -1  41  15 98.9766 18.2729   4
 -41  15   1 108.259 15.0161   2
  15  41   1 90.9978 17.5876   4
  15  41  -1 86.2129 17.6631   4
  15  41  -3 155.522 18.0367   4
 -41  15  -3 161.932 15.5942   2
   3  41 -15 147.683 16.0359   4
 -15  41   3 144.936 12.2629   4
  -3  41  15 136.747 18.3015   4
 -41  15   3 182.287 17.0858   2
  15  41   3 173.668 18.4631   4
  -3  41 -15 163.047 13.6353   4
  15  41  -5 28.7199 17.0363   4
 -41  15  -5 20.1557 12.4431   2
   5  41 -15 20.1850 14.5624   4
  -5  41  15 26.4450 16.3808   4
   5  41  15 10.9362 16.9749   4
 -41  15   5 16.4061 15.0870   2
  15  41   5 34.8415 15.2829   4
  -5  41 -15 13.5469 10.3025   4
 -41  15   7 1907.89 67.4013   2
  -7  41  15 1838.03 67.0249   4
   7  41  15 1928.11 67.6157   4
  15  41   7 1875.61 67.2683   4
  -7  41 -15 1671.09 64.5744   4
 -41  15  -7 1863.13 65.9045   2
   9  41 -15 398.739 22.3496   4
 -41  15   9 387.519 22.8179   2
 -15  41   9 366.105 18.2672   2
   9  41  15 396.617 22.5568   4
  15  41   9 388.504 22.2665   4
 -41  15  -9 348.946 18.5764   2
 -15  41  11 266.638 14.7016   2
  11  41 -15 306.149 20.6407   4
 -41  15  11 311.765 20.5631   2
  11  41  15 250.384 19.5821   4
  15  41  11 321.321 19.4896   4
 -41  15 -11 268.950 15.2379   2
  13  41 -15 755.039 32.3066   4
  13  41  15 722.849 31.1039   4
  15  41  13 715.361 30.9957   4
  15  41 -15 8.80903 15.7895   4
  15  41  15-5.42574 12.8608   4
  -1  41 -17 162.291 14.2185   4
 -41  17  -1 187.303 16.3937   2
   1  41 -17 175.743 15.0692   4
  17  41   1 171.805 18.0244   4
 -41  17   1 139.173 16.4666   2
  17  41  -1 183.834 18.1006   4
  17  41  -3 66.7058 16.4409   4
   3  41 -17 59.0335 13.9114   4
 -41  17  -3 60.7461 13.1654   2
  -3  41  17 53.7793 15.8698   4
   3  41  17 70.8367 16.8345   4
 -41  17   3 68.8508 15.3987   2
  17  41   3 69.8709 16.3348   4
  -3  41 -17 57.5150 11.2144   4
   5  41 -17 1491.67 53.9995   4
  -5  41  17 1420.40 54.8153   4
 -41  17   5 1510.68 54.9556   2
   5  41  17 1416.16 55.1122   4
  17  41   5 1423.24 54.3312   4
  -5  41 -17 1374.27 52.1001   4
 -41  17  -5 1481.83 53.6202   2
  17  41  -5 1462.46 55.1847   4
  17  41  -7 36.7017 17.0454   4
   7  41 -17 35.3093 15.1540   4
 -41  17  -7 48.4633 12.3697   2
   7  41  17 40.8931 16.4923   4
 -41  17   7 54.3480 15.5041   2
  17  41   7 38.6191 14.5404   4
  -7  41 -17 29.6081 8.51518   4
  17  41  -9 133.912 17.4047   4
   9  41 -17 101.711 16.2046   4
 -41  17  -9 112.113 12.5541   2
 -41  17   9 124.380 17.2041   2
   9  41  17 106.746 16.2777   4
 -17  41   9 100.798 11.8740   2
  17  41   9 120.922 14.5148   4
 -17  41  11 242.429 14.6662   2
  11  41 -17 272.497 19.6744   4
 -41  17  11 282.579 19.5196   2
  11  41  17 315.164 18.6012   4
  17  41  11 300.897 17.7751   4
 -41  17 -11 235.546 15.0233   2
 -17  41  13 6.01970 8.33490   2
  13  41 -17 1.96893 15.5455   4
 -41  17 -13 7.68341 8.73841   2
  13  41  17 22.7441 13.7373   4
  17  41  13-0.70622 12.7721   4
  15  41 -17 54.4313 16.2629   4
  15  41  17 45.3932 12.9528   4
  17  41  15 49.7859 12.6256   4
  17  41  17 21.7491 11.4948   4
 -41  19   1 41.7453 14.7030   2
  -1  41 -19 30.1514 11.3855   4
   1  41 -19 19.3762 11.5090   4
 -41  19  -1 9.47290 14.1909   2
   1  19 -41 26.2189 9.28898   4
  19  41   1 45.7675 14.9962   4
  19  41  -1 36.7182 14.4545   4
   3  41 -19 38.4306 12.8977   4
 -41  19  -3 53.7788 14.1387   2
   3  41  19 38.7483 15.9835   4
  19  41   3 52.7054 15.1913   4
 -41  19   3 57.2537 14.9578   2
  -3  41 -19 56.5600 10.3707   4
  19  41  -3 28.9888 15.1608   4
   5  41 -19 1546.08 56.6476   4
 -41  19   5 1603.38 57.7161   2
   5  41  19 1611.70 57.8831   4
  19  41   5 1579.59 57.0284   4
  -5  41 -19 1409.43 54.5065   4
 -41  19  -5 1530.75 56.6506   2
  19  41  -5 1575.99 57.6320   4
   7  41 -19 822.515 33.7432   4
 -41  19   7 787.854 34.5304   2
   7  41  19 837.979 34.6165   4
  19  41   7 814.482 33.6217   4
 -41  19  -7 819.050 32.9016   2
  19  41  -7 782.341 34.3602   4
  19  41  -9 76.1915 16.1179   4
   9  41 -19 80.1336 15.4721   4
 -41  19  -9 58.3375 12.0982   2
 -41  19   9 84.1459 16.0710   2
 -19  41   9 89.2996 11.8817   2
  19  41   9 85.2452 13.6741   4
  19  41 -11 1.96331 15.4228   4
  11  41 -19 33.3960 15.0242   4
 -19  41  11-8.61640 9.60625   2
 -41  19 -11 2.18447 10.4711   2
 -41  19  11-15.8128 15.4365   2
  11  41  19 18.7516 13.5015   4
  19  41  11-2.05899 12.2044   4
  19  41 -13 1686.45 57.8557   4
  13  41 -19 1567.30 57.7306   4
  13  41  19 1590.56 56.9417   4
  19  41  13 1596.55 56.4275   4
 -19  41  13 1476.66 55.2286   2
 -41  19 -13 1482.10 55.5048   2
  15  41 -19 258.284 18.0775   4
 -19  41  15 216.132 12.0921   2
  15  41  19 276.708 15.8809   4
  19  41  15 244.966 14.8409   4
 -41  19 -15 223.776 12.4975   2
  17  41 -19 442.239 21.9468   4
  17  41  19 407.557 19.2838   4
  19  41  17 394.928 19.0663   4
  -1  41 -21 25.3224 10.2635   4
 -41  21   1 11.4472 14.8228   2
   1  41 -21 20.7380 11.0024   4
 -41  21  -1 21.5625 14.4105   2
   1  21 -41 20.6815 8.79976   4
  21  41   1 34.2730 13.8231   4
  21  41  -1 10.6239 13.8842   4
   3  41 -21 16.8086 11.7657   4
 -41  21  -3 29.0556 13.6800   2
   3  21 -41 23.5944 9.94751   4
  21  41   3 38.0568 13.7090   4
 -41  21   3 26.8322 14.2526   2
  -3  41 -21 33.6677 9.34334   4
  21  41  -3 33.9345 14.5036   4
  21  41  -5 52.8413 14.9124   4
   5  41 -21 51.3524 13.2387   4
 -41  21  -5 48.6215 13.0072   2
   5  21 -41 45.1070 11.1954   4
  21  41   5 47.0949 13.4152   4
 -41  21   5 54.6243 15.5897   2
   7  41 -21 1470.14 54.1629   4
 -21  41   7 1379.67 53.6719   2
 -41  21   7 1507.43 54.9691   2
  21  41   7 1515.03 53.9751   4
  21  41  -7 1460.35 54.8124   4
 -41  21  -7 1459.26 53.9442   2
  21  41  -9 10.8911 14.9728   4
   9  41 -21 2.14137 13.2900   4
 -41  21  -9 6.99614 11.4390   2
 -21  41   9 14.1229 11.0471   2
 -41  21   9 5.66396 15.5573   2
  21  41   9 12.8370 11.7186   4
  21  41 -11 54.8470 14.9582   4
  11  41 -21 59.7200 13.6913   4
 -21  41  11 51.8180 10.4695   2
 -41  21 -11 57.3843 11.1867   2
 -41  21  11 53.1016 15.8351   2
  21  41  11 55.3388 11.6432   4
  21  41 -13 1982.87 68.9117   4
  13  41 -21 2043.82 68.9327   4
  21  41  13 1908.43 67.4350   4
 -21  41  13 1821.34 66.9176   2
 -41  21 -13 1836.28 67.0226   2
  21  41 -15 141.386 14.7646   4
  15  41 -21 141.566 15.2882   4
 -41  21 -15 135.821 9.70310   2
  21  41  15 118.581 11.2258   4
 -21  41  15 105.406 9.33823   2
  21  41 -17 868.405 34.2251   4
  17  41 -21 900.645 34.0241   4
  21  41  17 799.774 31.3027   4
  21  21 -41-14.7507 11.9882   4
 -41  23   1 500.608 24.4770   2
  23  41   1 513.768 23.2214   4
 -41  23  -1 494.051 23.9988   2
  23  41  -1 548.837 23.7721   4
  -1  41 -23 443.144 20.5328   4
   1  41 -23 479.016 21.4104   4
   3  41 -23 13.9855 10.7840   4
 -41  23  -3 1.11196 12.7056   2
   3  23 -41-3.60451 8.36356   4
  23  41   3-2.01326 12.1491   4
  -3  41 -23 0.90180 7.44642   4
  23  41  -3 6.69557 13.3214   4
 -41  23   3 12.9747 14.3022   2
   5  41 -23 400.974 19.4665   4
 -41  23   5 409.944 22.3047   2
   5  23 -41 372.801 18.4877   4
  23  41   5 408.134 19.6848   4
 -23  41   5 383.888 20.4368   2
  23  41  -5 416.193 21.2766   4
 -41  23  -5 400.615 20.6679   2
  23  41  -7 122.920 14.8665   4
   7  41 -23 98.0537 12.7860   4
 -41  23  -7 77.6460 13.0544   2
 -23  41   7 87.5953 12.4973   2
 -41  23   7 120.681 16.1311   2
  23  41   7 91.7189 12.2040   4
   7  23 -41 111.451 11.9915   4
  23  41  -9 25.1827 13.6942   4
   9  41 -23-7.54727 12.3033   4
 -23  41   9 17.5833 10.8460   2
 -41  23  -9 5.73736 11.1675   2
 -41  23   9 20.9708 14.9878   2
  23  41   9-2.01701 10.3090   4
   9  23 -41 13.6003 11.3366   4
  23  41 -11 5.09536 13.1087   4
 -23  41  11 0.56278 9.85383   2
  11  41 -23 19.9020 12.8301   4
 -41  23 -11 3.79754 10.3263   2
 -41  23  11 8.91835 14.8885   2
  23  41  11 5.57727 9.63519   4
  11  23 -41 18.2692 11.6591   4
  23  41 -13 182.403 15.8420   4
  13  41 -23 172.872 15.3363   4
  23  41  13 178.615 11.6929   4
 -23  41  13 191.094 12.0258   2
  13  23 -41 217.242 14.9771   4
 -41  23 -13 181.314 12.4227   2
  23  41 -15 37.3279 12.9912   4
  15  41 -23 22.2755 12.5321   4
 -41  23 -15 29.8612 8.24603   2
  23  41  15 17.1133 7.84297   4
 -23  41  15 35.7575 7.46525   2
  15  23 -41 21.5531 11.6987   4
  23  41 -17 115.224 13.2410   4
 -41  23 -17 76.7196 7.21672   2
  17  41 -23 102.926 13.3010   4
  17  23 -41 106.604 12.7871   4
  23  41 -19 208.907 14.9809   4
  19  41 -23 232.031 14.7336   4
  19  23 -41 220.609 14.8951   4
  23  41 -21 253.466 14.8426   4
  21  23 -41 265.422 15.0991   4
  23  21 -41 228.694 15.4420   4
  23  23 -41-8.90878 9.61513   4
 -41  25   1 709.763 29.9516   2
  25  41   1 701.898 28.5294   4
 -41  25  -1 741.094 29.8905   2
  25  41  -1 742.767 28.7789   4
  -1  41 -25 665.302 26.1961   4
   1  41 -25 650.059 26.8552   4
   3  41 -25 119.229 11.5004   4
 -41  25  -3 139.294 14.6841   2
   3  25 -41 108.055 9.02437   4
  25  41   3 126.564 12.2458   4
  25  41  -3 107.751 12.9314   4
 -41  25   3 133.032 15.7713   2
   5  41 -25 82.5656 11.3947   4
 -41  25  -5 85.4624 13.1806   2
   5  25 -41 91.5561 9.70099   4
 -25  41   5 84.1075 13.0538   2
  25  41   5 77.8400 11.5283   4
 -41  25   5 82.5975 14.8311   2
  25  41  -5 74.8963 12.8766   4
   7  41 -25 5514.82 191.720   4
 -25  41   7 5706.75 192.059   2
 -41  25   7 5900.13 192.845   2
   7  25 -41 5331.50 191.332   4
  25  41   7 5423.98 191.381   4
  25  41  -7 5817.49 192.251   4
 -41  25  -7 5705.60 192.154   2
  25  41  -9 38.3276 12.6089   4
   9  41 -25 25.0417 11.5538   4
 -25  41   9 55.2609 10.9993   2
 -41  25  -9 37.0409 10.9878   2
 -41  25   9 41.3170 13.8855   2
  25  41   9 43.9234 9.02966   4
   9  25 -41 29.6009 10.6906   4
  25  41 -11 25.9610 12.1109   4
  11  41 -25 57.7204 11.8499   4
 -41  25  11 35.2446 13.9190   2
  25  41  11 32.4124 8.11776   4
  11  25 -41 52.1510 10.9620   4
 -25  41  11 52.7847 10.1548   2
  13  41 -25 3625.68 119.449   4
 -25  41  13 3456.31 118.595   2
  13  25 -41 3601.53 119.310   4
 -41  25 -13 3566.41 118.745   2
  25  41 -13 3792.88 119.772   4
  25  41 -15 12.6732 11.3270   4
  15  41 -25 9.41037 10.9164   4
 -41  25 -15 5.05185 7.21518   2
 -25  41  15 20.8755 6.84190   2
  15  25 -41 26.3333 10.8661   4
  25  41 -17 1490.00 44.1840   4
  17  41 -25 1445.87 44.1206   4
  17  25 -41 1472.39 44.0793   4
  25  41 -19 163.330 12.3495   4
  19  41 -25 158.835 12.2454   4
  19  25 -41 136.563 12.1116   4
  25  41 -21 208.797 12.7421   4
  21  25 -41 208.800 12.6889   4
  25  41 -23 546.043 22.1307   4
  23  25 -41 611.868 22.5425   4
  25  23 -41 552.260 22.4813   4
  25  41 -25 2.20462 6.28347   4
  25  25 -41 11.5352 6.36465   4
 -41  27   1 664.341 27.2729   2
  27  41   1 660.242 25.4575   4
 -41  27  -1 673.527 27.2801   2
  27  41  -1 668.365 25.7822   4
   1  41 -27 561.658 23.6947   4
   3  41 -27 15.5069 8.34928   4
 -41  27  -3 0.96435 12.0247   2
 -27  41   3 0.64051 11.9061   2
  27  41   3 4.96984 9.20434   4
  27  41  -3 8.32343 10.3998   4
 -41  27   3 1.35172 13.2776   2
   5  41 -27 3171.47 111.235   4
 -27  41   5 3430.43 112.329   2
 -41  27   5 3627.42 113.032   2
  27  41   5 3270.06 111.172   4
  27  41  -5 3489.87 111.989   4
 -41  27  -5 3427.42 112.357   2
   7  41 -27 56.7462 10.1781   4
 -27  41   7 46.9796 11.3302   2
 -41  27  -7 85.9577 11.6310   2
   7  27 -41 80.7335 8.64450   4
  27  41   7 53.3090 7.91612   4
 -41  27   7 65.5206 13.8627   2
  27  41  -7 47.2236 11.0338   4
   9  41 -27 215.116 13.5059   4
 -41  27   9 270.435 16.4126   2
   9  27 -41 202.397 12.4059   4
  27  41   9 186.412 10.6947   4
 -27  41   9 248.546 13.9015   2
  27  41  -9 241.953 14.0807   4
 -41  27  -9 222.769 13.6406   2
  27  41 -11 193.006 13.1690   4
  11  41 -27 184.845 12.8480   4
 -41  27 -11 169.673 12.2613   2
 -41  27  11 211.290 15.2498   2
  11  27 -41 190.387 12.2450   4
 -27  41  11 179.087 12.0703   2
  27  41 -13 25.4210 10.2535   4
  13  41 -27 2.74913 9.41811   4
 -41  27 -13 13.6525 8.17387   2
 -27  41  13 19.0415 8.04106   2
  13  27 -41 14.5530 9.22800   4
  27  41 -15 55.4315 10.4673   4
  15  41 -27 66.9310 10.0589   4
 -41  27 -15 51.3293 6.68319   2
  15  27 -41 56.4331 9.70476   4
 -41  27 -17 6.37748 4.60639   2
  27  41 -17 12.0597 9.23562   4
  17  41 -27 16.6894 9.04935   4
  17  27 -41 3.31087 8.81422   4
  19  41 -27 997.382 37.4817   4
  19  27 -41 1021.52 37.4033   4
  27  41 -19 1066.01 37.5389   4
  27  41 -21 2.54288 7.25822   4
  21  41 -27 3.12814 7.59815   4
  21  27 -41-1.46875 6.98337   4
  27  41 -23 26.0135 6.14663   4
  23  27 -41 25.0990 6.10100   4
  25  27 -41 436.949 16.0906   4
  27  41 -25 414.073 15.8742   4
 -41  29  -1 56.2361 12.2687   2
 -29  41   1 46.1671 12.0938   2
  29  41   1 31.5436 7.97257   4
  29  41  -1 52.1344 8.43195   4
 -29  41  -1 46.7309 12.3451   2
 -41  29   1 39.7180 12.0380   2
   3  41 -29 65.4429 6.79855   4
 -41  29  -3 71.3572 12.1224   2
 -29  41   3 63.8823 11.7585   2
  29  41   3 64.6779 7.47123   4
  29  41  -3 85.6119 9.59517   4
 -41  29   3 73.5770 12.7006   2
   5  41 -29 42.1946 7.78195   4
 -41  29  -5 61.0805 10.9890   2
 -29  41   5 50.6602 11.1155   2
  29  41   5 46.9032 6.56931   4
 -41  29   5 64.1332 12.6144   2
  29  41  -5 49.3659 9.35064   4
   7  41 -29 45.2905 8.40589   4
 -29  41   7 43.5363 10.3376   2
 -41  29  -7 58.5938 10.5762   2
   7  29 -41 44.6228 6.70718   4
 -41  29   7 56.5361 12.1250   2
  29  41  -7 69.5777 9.38653   4
   9  41 -29 36.4774 8.68860   4
 -41  29  -9 33.4285 9.59976   2
   9  29 -41 21.4999 7.31758   4
 -41  29   9 17.3332 11.4650   2
 -29  41   9 44.9833 9.23177   2
  29  41  -9 35.8193 9.04854   4
 -41  29 -11 0.21720 8.06261   2
  11  29 -41-1.56423 7.41517   4
 -29  41  11 5.77160 8.27133   2
  29  41 -11 0.66265 8.56606   4
  13  41 -29 53.8920 8.62378   4
 -41  29 -13 52.3123 7.68893   2
 -29  41  13 48.8070 7.40720   2
  13  29 -41 47.9737 7.85404   4
  29  41 -13 53.0888 8.72946   4
 -41  29 -15 73.5573 6.72860   2
  15  41 -29 90.3563 9.31564   4
  15  29 -41 88.8639 8.27840   4
  29  41 -15 104.761 8.98720   4
  17  41 -29 36.4820 7.67163   4
  17  29 -41 44.1945 7.40866   4
  29  17 -41 32.0058 8.83871   4
  29  41 -17 45.4007 7.49810   4
  19  41 -29 107.976 8.13183   4
  19  29 -41 104.063 7.91564   4
  29  19 -41 115.745 8.86197   4
  29  41 -19 107.718 7.81895   4
  21  41 -29 64.5842 6.07395   4
  21  29 -41 80.7599 6.42313   4
  29  21 -41 75.3106 6.64016   4
  29  41 -21 71.6991 5.91132   4
 -31  41   1 22.7480 10.6099   2
 -31  41  -1 37.7063 11.1765   2
  31  41  -1 26.2282 5.40526   4
 -41  31   1 37.8906 10.8546   2
 -41  31  -1 20.6512 10.6646   2
 -41  31  -3-2.54266 10.0604   2
 -31  41   3 1.25799 9.62077   2
 -31  41  -3-5.60048 10.6139   2
 -41  31   3-7.12987 10.7676   2
  31  41  -3 0.16144 5.95663   4
 -31  41   5 99.8301 10.7248   2
 -41  31  -5 117.975 10.6252   2
 -41  31   5 106.824 11.6795   2
  31  41  -5 103.166 7.57103   4
 -31  41  -5 108.704 11.9251   2
   5  41 -31 70.2845 6.00834   4
 -41  31   7 612.323 22.5372   2
 -31  41   7 591.858 21.6879   2
  31  41  -7 539.349 20.0033   4
 -41  31  -7 567.688 21.4990   2
 -31  41   9 272.793 12.3074   2
  31  41  -9 246.594 11.0305   4
 -41  31  -9 284.397 12.4630   2
   9  41 -31 216.126 10.7137   4
  11  41 -31-0.32422 6.04408   4
 -41  31 -11-0.18249 6.75356   2
  11  31 -41 7.54761 5.23714   4
 -31  41  11 4.86240 6.70791   2
  31  41 -11 11.2625 6.03965   4
  13  41 -31 1135.03 37.3973   4
  13  31 -41 982.829 36.8855   4
 -41  31 -13 1007.07 37.0890   2
  31  41 -13 1092.49 37.2269   4
  15  41 -31 99.9881 7.29791   4
  15  31 -41 94.9642 6.64344   4
  31  15 -41 129.974 9.20640   4
  31  41 -15 105.725 7.03093   4
  17  41 -31 89.5615 6.41165   4
  17  31 -41 72.2691 5.82332   4
  31  17 -41 100.174 7.68055   4
  31  41 -17 75.5012 5.75040   4
  19  41 -31 20.6997 4.42431   4
  31  19 -41 30.3197 5.16419   4
 -41  33   1 242.015 13.4701   2
 -41  33  -1 231.197 13.2599   2
 -33  41   1 268.313 13.2633   2
 -33  41  -1 243.317 13.3832   2
 -33  41   3 27.7931 8.60411   2
 -33  41  -3 21.2321 9.25634   2
 -41  33   3 34.6740 9.22148   2
 -41  33  -3 27.6997 8.67938   2
 -33  41  -5 471.275 20.3305   2
 -41  33   5 500.151 20.5032   2
 -33  41   5 486.572 19.7709   2
 -41  33  -5 489.438 19.8457   2
 -33  41   7 79.1977 8.12602   2
 -41  33  -7 103.979 8.37288   2
 -33  41   9 13.1906 6.11755   2
 -41  33  -9 9.50352 6.38297   2
 -33  41 -11 114.627 8.73790   2
  33  11 -41 97.0454 8.07264   4
 -41  33 -11 86.0363 6.70791   2
 -33  41 -13 3.79398 6.46548   2
  33  13 -41 2.14525 5.73936   4
 -33  41 -15 232.764 9.72168   2
  33  15 -41 191.492 9.33096   4
 -41  35   1 45.5367 7.26231   2
 -41  35  -1 53.8557 7.23329   2
 -35  41   1 39.2808 7.11771   2
 -35  41  -1 49.2601 7.41048   2
 -35  41  -3 4.86986 6.38227   2
 -41  35   3 6.75069 6.40530   2
 -35  41   3 4.61588 6.07728   2
 -41  35  -3 6.92974 5.97418   2
 -35  41   5 9.52456 5.61851   2
 -41  35  -5 7.11157 5.87344   2
 -35  41   7 65.6701 6.01631   2
 -41  35  -7 72.9049 6.16100   2
 -35  41  -9 24.6928 5.69842   2
 -35  41 -11 7.77714 4.43484   2
 -37  41  -1 465.151 17.2333   2
   0  42   0 3880.79 135.998   4
   0  42   2 378.971 22.2761   4
  -2  42   0 377.660 22.2497   4
   2  42   0 343.950 22.4591   4
   0  42  -2 385.564 22.4572   4
  -2  42   2 43.5875 15.2933   4
   2  42   2 65.4024 17.1084   4
   2  42  -2 54.1509 16.5360   4
   0  42   4 104.445 16.9700   4
  -4  42   0 92.7336 15.4054   4
   4  42   0 91.6569 17.7046   4
   0  42  -4 94.9196 16.2792   4
  -2  42   4 45.7592 16.3802   4
   2  42   4 50.2501 16.6491   4
  -4  42  -2 34.5287 14.4220   4
   4  42   2 28.8768 16.2980   4
  -2  42  -4 38.3966 13.7664   4
   4  42  -2 28.8944 16.2831   4
   2  42  -4 25.1458 15.1067   4
  -4  42   4 115.495 16.5373   4
   4  42   4 117.119 17.7090   4
  -4  42  -4 114.507 14.2920   4
   4  42  -4 102.186 16.9044   4
  -6  42   0 571.470 26.4833   4
   0  42   6 593.884 28.5233   4
   6  42   0 608.584 28.9397   4
   0  42  -6 595.362 27.4574   4
  -6  42   2 307.840 18.0514   4
  -6  42  -2 294.630 18.1046   4
  -2  42   6 264.304 20.5791   4
   2  42   6 270.739 21.2976   4
  -2  42  -6 280.415 19.1272   4
   6  42  -2 315.816 21.5087   4
   6  42   2 281.669 21.6418   4
   2  42  -6 270.720 19.9719   4
  -6  42   4 226.243 17.7645   4
  -4  42   6 213.475 17.9086   4
   4  42   6 211.092 20.1879   4
  -6  42  -4 203.694 15.8360   4
  -4  42  -6 195.105 16.1655   4
   6  42  -4 208.853 19.5526   4
   4  42  -6 204.681 18.4074   4
   6  42  -6 147.944 18.2271   4
  -6  42   6 162.264 16.1556   4
  -6  42  -6 136.584 13.8275   4
 -42   8   0 1106.57 41.0054   2
  -8  42   0 1009.26 41.1435   4
   0  42   8 1054.99 43.3778   4
   0  42  -8 1100.03 41.9295   4
 -42   8   2 1529.04 55.1387   2
 -42   8  -2 1492.24 54.5218   2
  -8  42   2 1498.56 55.0710   4
  -2  42   8 1522.80 56.3293   4
  -8  42  -2 1416.29 54.9250   4
   2  42   8 1495.42 57.1412   4
  -2  42  -8 1481.46 55.5482   4
   8  42  -2 1456.55 56.7572   4
   2  42  -8 1517.89 55.9287   4
 -42   8  -4 358.901 18.2457   2
  -8  42   4 397.863 20.6526   4
  -4  42   8 398.658 22.2566   4
  -8  42  -4 392.844 19.9589   4
  -4  42  -8 393.781 20.2853   4
   8  42  -4 384.510 24.0841   4
   4  42  -8 327.033 22.2410   4
   8  42  -6 50.1530 17.3860   4
   6  42  -8 68.2544 16.6825   4
  -8  42   6 35.8213 13.8889   4
  -6  42   8 40.3329 15.0138   4
  -8  42  -6 28.0689 11.2974   4
  -6  42  -8 49.1299 12.3462   4
   8  42  -8 1.32581 16.5820   4
  -8  42   8 37.0565 14.6443   4
   8  42   8 23.7740 16.8964   4
  -8  42  -8 16.7177 10.6738   4
 -42  10   0 55.8052 12.3533   2
 -10  42   0 60.0010 12.3260   4
   0  42  10 76.0350 16.7378   4
   0  42 -10 69.0370 14.1702   4
   2  42 -10 33.3167 14.4331   4
 -42  10   2 27.5296 12.8789   2
 -42  10  -2 25.9105 11.3397   2
 -10  42   2 27.5900 11.7792   4
  -2  42  10 14.0304 16.4189   4
 -10  42  -2 24.9532 11.6246   4
   2  42  10 13.8833 16.8323   4
  -2  42 -10 36.1021 13.0733   4
 -42  10   4 413.411 21.4220   2
 -42  10  -4 394.943 19.5675   2
 -10  42   4 401.783 20.9254   4
  -4  42  10 403.807 23.3515   4
 -10  42  -4 396.934 19.5382   4
  10  42   4 396.627 24.0967   4
  -4  42 -10 423.166 20.5840   4
   4  42 -10 402.673 22.3384   4
  10  42  -6 61.9240 17.4975   4
   6  42 -10 50.0227 16.3643   4
 -10  42   6 72.5902 12.9008   4
  -6  42  10 47.7521 15.1903   4
 -42  10  -6 55.8711 10.1942   2
 -10  42  -6 55.2188 10.7721   4
  10  42   6 72.6649 17.3831   4
  -6  42 -10 57.5545 11.7651   4
  10  42  -8 64.4777 17.0916   4
   8  42 -10 17.6726 16.2488   4
 -10  42   8 45.1017 13.3617   4
  -8  42  10 49.3550 14.7006   4
 -10  42  -8 42.9459 10.0751   4
   8  42  10 48.3850 17.4115   4
  10  42   8 50.5996 17.2416   4
  -8  42 -10 45.9366 10.5996   4
 -10  42  10 423.023 21.9064   4
 -10  42 -10 406.494 18.3626   4
  10  42  10 414.177 23.2891   4
  10  42 -10 436.477 23.5561   4
 -42  12   0 495.255 23.6561   2
 -12  42   0 489.807 21.9672   4
   0  42  12 475.206 25.7704   4
  12  42   0 465.934 26.4621   4
   0  42 -12 491.992 23.6173   4
 -42  12   2 615.718 27.1803   2
 -42  12  -2 606.788 26.5045   2
 -12  42   2 596.047 25.8469   4
  -2  42  12 641.016 29.2515   4
 -12  42  -2 571.859 24.8279   4
  12  42   2 563.202 29.1184   4
   2  42 -12 620.379 27.3080   4
 -42  12   4 466.809 23.5928   2
 -42  12  -4 461.659 22.3154   2
 -12  42   4 493.692 22.8169   4
  -4  42  12 492.069 25.1550   4
 -12  42  -4 459.682 20.9168   4
  12  42   4 497.428 26.1725   4
  -4  42 -12 506.075 22.5433   4
   4  42 -12 487.312 24.9993   4
 -42  12   6 405.584 21.5949   2
 -12  42   6 367.551 19.4487   4
  -6  42  12 402.459 22.4962   4
 -12  42  -6 349.648 17.2206   4
   6  42  12 382.022 23.3571   4
  12  42   6 369.801 23.2930   4
  -6  42 -12 383.772 18.5862   4
   8  42 -12 791.775 34.1175   4
 -12  42   8 817.748 32.4366   4
  -8  42  12 845.196 33.8323   4
 -42  12  -8 739.866 30.7207   2
   8  42  12 869.343 34.7855   4
  12  42   8 811.208 34.8630   4
  -8  42 -12 767.193 30.7072   4
  12  42 -10-0.42335 16.1610   4
  10  42 -12 0.41787 15.9484   4
  10  42  12-8.33957 15.7759   4
  12  42  10 4.16475 15.5799   4
  12  42 -12 596.216 29.1542   4
  12  42  12 626.860 28.5096   4
   0  42  14 9.13575 15.9790   4
 -42  14   0 4.03343 12.8842   2
  14  42   0 25.4743 16.9255   4
   0  42 -14 23.5585 12.8482   4
   2  42 -14 2.72819 13.4225   4
 -14  42   2-14.2103 9.79486   4
 -14  42  -2 4.99253 8.86930   4
  -2  42  14-8.61968 16.8230   4
 -42  14   2-23.9823 13.6639   2
 -42  14  -2 15.1964 12.5494   2
  14  42   2-9.04387 16.1460   4
  -2  42 -14 5.63808 11.5953   4
  14  42  -2 18.0470 17.0244   4
  14  42  -4 8.63558 17.0093   4
   4  42 -14 22.2897 13.7448   4
 -14  42   4 13.1072 10.3517   4
  -4  42  14 33.1925 16.3095   4
 -42  14   4 14.3027 13.4478   2
  14  42   4 7.25147 15.6704   4
 -42  14  -4 26.3267 12.1455   2
  -4  42 -14 13.9075 10.5787   4
 -42  14   6 639.622 28.2572   2
  -6  42  14 570.854 28.0107   4
   6  42  14 596.538 29.0482   4
 -42  14  -6 620.363 25.7203   2
  14  42   6 591.164 28.4373   4
  -6  42 -14 571.026 24.6101   4
   6  42 -14 590.464 27.2019   4
   8  42 -14 493.743 24.1249   4
 -42  14   8 468.847 24.3269   2
  -8  42  14 502.191 23.6218   4
 -14  42   8 418.838 20.2068   2
   8  42  14 482.603 24.8973   4
 -42  14  -8 482.687 20.9782   2
  14  42   8 464.420 24.5875   4
  -8  42 -14 443.061 19.6652   4
  10  42 -14 301.667 20.7045   4
 -42  14 -10 304.150 15.4760   2
  10  42  14 307.932 20.3855   4
  14  42  10 311.811 20.0055   4
  14  42 -12 84.9501 16.8580   4
  12  42 -14 69.8016 15.9090   4
  14  42  12 93.2993 15.4283   4
  14  42 -14 45.9954 15.9334   4
  14  42  14 72.8386 14.1036   4
 -42  16   0 1434.73 54.1028   2
  16  42   0 1482.07 54.7312   4
   0  42 -16 1426.43 53.2681   4
 -42  16   2 485.387 23.3232   2
  -2  42  16 426.761 24.7648   4
 -42  16  -2 463.857 22.4464   2
  16  42   2 460.125 24.2015   4
  -2  42 -16 418.865 20.7499   4
  16  42  -2 401.375 24.1139   4
   2  42 -16 442.663 21.9649   4
 -42  16   4 342.426 20.8439   2
  -4  42  16 385.830 21.8110   4
   4  42  16 354.494 21.7205   4
 -42  16  -4 320.874 19.2335   2
  16  42   4 360.766 22.0164   4
  -4  42 -16 349.305 17.6146   4
  16  42  -4 367.056 22.2979   4
   4  42 -16 372.143 20.2909   4
   6  42 -16 444.154 22.7320   4
 -42  16   6 488.475 23.5010   2
   6  42  16 463.158 24.3495   4
 -42  16  -6 426.986 20.8879   2
  16  42   6 469.820 23.6042   4
  -6  42 -16 383.949 18.9976   4
  16  42  -6 431.812 24.2667   4
  16  42  -8 300.823 20.5065   4
   8  42 -16 240.546 18.1752   4
 -16  42   8 257.473 14.8562   2
 -42  16   8 244.925 18.9267   2
   8  42  16 242.942 19.2410   4
 -42  16  -8 277.382 15.5255   2
  16  42   8 242.257 18.6207   4
  10  42 -16 133.627 16.1865   4
 -42  16  10 117.233 16.5294   2
 -16  42  10 99.5339 10.4098   2
  10  42  16 87.6293 15.9248   4
  16  42  10 118.035 15.3237   4
 -42  16 -10 108.677 11.2885   2
  12  42 -16 68.3131 15.7090   4
  12  42  16 91.5322 13.8622   4
  16  42  12 51.5192 13.8979   4
 -42  16 -12 96.0334 9.36090   2
  14  42 -16 1399.09 53.3724   4
  14  42  16 1428.66 52.4952   4
  16  42  14 1419.46 52.3780   4
  16  42 -16 2056.90 73.8846   4
  16  42  16 2048.43 73.0132   4
 -42  18   0 877.191 35.6684   2
  18  42   0 847.112 36.2620   4
   0  42 -18 893.751 34.4034   4
  -2  42  18 1410.69 53.6761   4
 -42  18   2 1417.62 53.1114   2
 -42  18  -2 1480.70 52.6250   2
  18  42   2 1421.95 53.1201   4
  18  42  -2 1422.34 53.4449   4
  -2  42 -18 1346.16 51.1787   4
   2  42 -18 1402.19 52.0345   4
   4  42 -18 212.259 16.4195   4
   4  42  18 267.331 19.3318   4
 -42  18  -4 224.689 15.8874   2
 -42  18   4 229.595 18.2438   2
  -4  42 -18 229.543 13.3880   4
  18  42   4 194.652 17.5863   4
  18  42  -4 243.350 18.6004   4
  18  42  -6 217.838 18.2865   4
 -42  18  -6 202.623 15.3882   2
   6  42 -18 224.575 16.7073   4
   6  42  18 190.880 18.2568   4
 -42  18   6 213.599 18.0110   2
  -6  42 -18 205.774 12.0754   4
  18  42   6 237.331 17.2569   4
   8  42 -18 495.152 23.2883   4
 -18  42   8 438.260 20.7273   2
 -42  18   8 469.967 24.1538   2
   8  42  18 498.702 24.0920   4
  18  42   8 443.770 23.1318   4
 -42  18  -8 430.110 21.0476   2
  18  42  -8 463.764 24.4924   4
  10  42 -18 378.758 20.6746   4
 -42  18  10 361.435 21.0734   2
  10  42  18 336.513 19.7019   4
  18  42  10 342.425 19.2234   4
 -42  18 -10 314.631 17.0047   2
 -18  42  10 326.903 16.7002   2
  18  42 -10 353.584 21.5109   4
  12  42 -18 2636.39 89.1536   4
  12  42  18 2646.74 88.9086   4
  18  42  12 2635.08 88.4571   4
 -42  18 -12 2482.06 87.2368   2
  14  42 -18 451.270 22.9529   4
  14  42  18 457.233 21.4092   4
  18  42  14 424.277 20.8071   4
  16  42 -18 35.1769 13.3336   4
  16  42  18 31.2327 10.9390   4
  18  42  16 24.8131 10.6695   4
  18  42  18 2211.41 77.5887   4
 -42  20   0 770.055 32.3046   2
  20  42   0 829.226 32.7082   4
   0  42 -20 739.047 30.4677   4
 -42  20  -2 109.121 14.5648   2
   2  42 -20 103.959 12.6732   4
   2  20 -42 73.5404 10.0507   4
 -42  20   2 104.737 14.9857   2
  20  42   2 98.7543 14.8369   4
  20  42  -2 77.1588 15.1074   4
  -2  42 -20 104.170 10.5298   4
   4  42 -20 83.5900 12.6859   4
 -42  20  -4 109.200 13.8072   2
 -42  20   4 113.340 15.7139   2
   4  20 -42 89.6345 11.3199   4
  20  42   4 105.274 14.4842   4
  -4  42 -20 81.7352 9.23164   4
  20  42  -4 82.7218 15.2351   4
  20  42  -6 81.1141 15.7412   4
   6  42 -20 81.2441 13.3377   4
 -42  20  -6 67.4387 12.5478   2
   6  42  20 75.3439 15.3982   4
 -42  20   6 78.3694 15.5012   2
  20  42   6 98.3272 13.5530   4
 -20  42   6 86.6146 12.4377   2
   8  42 -20 1178.91 45.2424   4
 -20  42   8 1165.55 44.2649   2
 -42  20   8 1193.70 46.3292   2
   8  42  20 1236.35 45.9105   4
  20  42   8 1204.68 45.0902   4
 -42  20  -8 1224.20 44.5800   2
  20  42  -8 1168.68 45.8544   4
  10  42 -20 600.245 26.8280   4
 -42  20  10 638.689 27.7658   2
  10  42  20 640.583 26.5926   4
  20  42  10 589.442 25.7792   4
 -42  20 -10 588.567 24.9045   2
 -20  42  10 577.013 24.5924   2
  20  42 -10 641.341 27.5642   4
  12  42 -20 339.939 19.3595   4
  12  42  20 367.264 18.3515   4
  20  42  12 340.619 17.3213   4
 -20  42  12 311.663 15.6522   2
 -42  20 -12 334.594 15.9349   2
  20  42 -12 319.162 19.9953   4
  20  42 -14 701.002 28.3672   4
  14  42 -20 700.859 27.5974   4
 -20  42  14 560.678 23.7574   2
  20  42  14 672.931 25.6394   4
 -42  20 -14 620.599 24.0927   2
  16  42 -20 181.959 15.4042   4
  20  42  16 173.239 12.1837   4
  18  42 -20 90.1770 13.5183   4
 -42  22   0 362.444 19.9065   2
  22  42   0 356.140 18.9603   4
   0  42 -22 328.434 16.5600   4
 -42  22  -2 226.755 15.6122   2
  22  42   2 206.937 15.9713   4
  22  42  -2 230.382 16.3959   4
  -2  42 -22 217.935 12.2686   4
 -42  22   2 209.263 16.9000   2
   2  42 -22 191.951 13.9216   4
   4  42 -22-3.92165 10.9219   4
 -42  22  -4 7.23827 11.8757   2
   4  22 -42 10.0475 9.19161   4
 -42  22   4 11.2829 13.7111   2
  22  42   4 15.7490 12.0393   4
  22  42  -4-0.69348 13.3162   4
   6  42 -22 38.1078 11.3903   4
 -42  22  -6 68.0133 12.2421   2
 -42  22   6 61.3522 14.2399   2
 -22  42   6 65.6065 12.1253   2
  22  42   6 60.6985 11.9589   4
   6  22 -42 48.6078 10.4814   4
  22  42  -6 44.3449 13.7343   4
  22  42  -8 53.7639 14.1018   4
   8  42 -22 50.4579 12.4892   4
 -42  22  -8 41.4192 11.2279   2
 -22  42   8 68.9695 11.0487   2
 -42  22   8 79.0109 14.9190   2
  22  42   8 50.2867 11.1049   4
   8  22 -42 42.4914 11.1996   4
  22  42 -10 3.04076 13.7253   4
  10  42 -22 5.40498 12.4828   4
 -22  42  10 10.4278 9.55046   2
 -42  22 -10-10.8342 9.52499   2
 -42  22  10 10.1672 13.9314   2
  22  42  10-8.29461 10.2861   4
  10  22 -42-3.96723 11.1137   4
  12  42 -22 336.163 18.6045   4
  22  42  12 341.351 16.3998   4
 -22  42  12 318.063 15.5214   2
  12  22 -42 347.284 18.0486   4
 -42  22 -12 323.423 15.8608   2
  22  42 -12 365.571 19.3828   4
  22  42 -14 217.730 16.1374   4
  14  42 -22 221.945 15.6943   4
 -22  42  14 187.809 10.9589   2
  22  42  14 220.633 12.0155   4
  14  22 -42 218.297 14.7976   4
 -42  22 -14 193.000 10.8102   2
  16  42 -22 11.0219 11.8215   4
  16  22 -42 27.8595 11.4085   4
  22  42 -18 8.81617 11.5404   4
  18  42 -22-1.36579 11.1456   4
  18  22 -42 8.36480 10.8653   4
  20  22 -42 69.1549 11.5093   4
  22  20 -42 51.4243 11.0485   4
  22  22 -42 27.9162 9.92164   4
  24  42   0 202.793 14.6877   4
   0  42 -24 179.335 11.3201   4
 -42  24   0 194.080 16.0496   2
   2  42 -24 87.2706 10.0206   4
 -42  24  -2 82.5021 13.3508   2
  24  42   2 81.2688 12.1464   4
 -42  24   2 98.7145 14.3893   2
  24  42  -2 86.4251 12.9084   4
   4  42 -24 43.5569 10.4098   4
 -42  24  -4 47.0413 12.0305   2
   4  24 -42 38.9035 8.16243   4
 -42  24   4 54.1820 13.7506   2
  24  42   4 52.6962 11.1366   4
 -24  42   4 68.2523 12.5142   2
  24  42  -4 52.3945 12.5366   4
   6  42 -24 9.43255 10.2278   4
 -42  24  -6 1.84584 11.0625   2
 -24  42   6 21.3956 11.3719   2
   6  24 -42 8.70756 8.52904   4
 -42  24   6 10.8214 13.9130   2
  24  42   6 14.5075 9.91183   4
  24  42  -6 4.38303 11.9232   4
   8  42 -24-12.2189 10.6793   4
 -42  24  -8 17.1731 10.3022   2
 -24  42   8 20.0682 10.1392   2
 -42  24   8 4.14276 13.4749   2
  24  42   8 8.37225 9.42889   4
   8  24 -42 1.28975 9.55023   4
  24  42  -8 8.68955 12.2980   4
  24  42 -10 20.4810 12.1824   4
 -24  42  10 14.9806 9.42892   2
  10  42 -24 10.5600 10.9064   4
 -42  24 -10 16.6739 9.41365   2
 -42  24  10 14.7730 13.2267   2
  24  42  10 25.2038 8.72493   4
  10  24 -42 16.5736 10.0830   4
  24  42 -12 141.832 13.5827   4
  12  42 -24 133.209 12.9464   4
 -42  24 -12 146.702 10.4428   2
  24  42  12 151.607 10.2280   4
  12  24 -42 175.627 12.7342   4
 -24  42  12 136.396 10.3737   2
  24  42 -14 93.3397 11.9716   4
 -42  24 -14 77.9994 7.98728   2
  14  42 -24 99.8752 12.1225   4
 -24  42  14 79.7975 7.36713   2
  24  42  14 81.7346 7.42815   4
  14  24 -42 87.7554 11.3283   4
  16  42 -24 222.674 14.6266   4
  16  24 -42 255.476 14.4081   4
  24  42 -16 262.916 15.2836   4
  24  42 -18 35.5698 10.3835   4
  18  42 -24 30.5359 9.67031   4
  18  24 -42 22.0266 9.58928   4
  20  42 -24 178.017 12.0545   4
  20  24 -42 175.880 11.8859   4
  24  20 -42 177.937 12.3215   4
  24  42 -20 183.934 11.9148   4
  24  42 -22 22.8651 7.82945   4
  22  24 -42 28.2941 8.02651   4
  24  22 -42 6.95700 8.35442   4
  24  42 -24 58.3508 7.14454   4
  24  24 -42 60.8570 7.36566   4
  26  42   0 107.044 11.2625   4
 -42  26   0 102.934 13.2091   2
   0  42 -26 77.7542 7.26416   4
  26  42   2 51.4087 10.1129   4
 -26  42   2 30.5242 11.6740   2
 -42  26   2 44.6573 12.8337   2
  26  42  -2 44.8682 10.7584   4
   2  42 -26 47.3914 7.64228   4
 -42  26  -2 41.4405 12.0482   2
 -26  42   4 172.135 13.9377   2
  26  42   4 201.346 12.5282   4
 -42  26   4 208.938 15.7706   2
 -42  26  -4 214.964 14.5534   2
  26  42  -4 209.497 13.8586   4
   4  42 -26 186.214 11.9171   4
   6  42 -26 100.791 10.4402   4
 -42  26  -6 100.842 11.7247   2
 -26  42   6 118.535 11.7245   2
   6  26 -42 91.6012 8.14451   4
 -42  26   6 120.545 14.0823   2
  26  42   6 90.6632 9.46345   4
  26  42  -6 95.1418 11.5095   4
   8  42 -26 125.370 11.1469   4
 -26  42   8 147.109 11.5232   2
 -42  26  -8 158.382 11.7270   2
 -42  26   8 131.357 14.1701   2
   8  26 -42 109.954 9.61605   4
  26  42   8 131.297 9.60618   4
  26  42  -8 136.661 12.1910   4
  10  42 -26 9.66460 9.51115   4
 -42  26 -10 5.95537 8.59044   2
 -42  26  10 19.8064 12.3967   2
  26  42  10 9.97657 6.01157   4
  10  26 -42 9.65962 8.47970   4
 -26  42  10 2.56269 8.68483   2
  26  42 -10 17.0365 10.3515   4
  26  42 -12-7.23006 10.3226   4
  12  42 -26 10.2655 9.56007   4
  12  26 -42 3.41217 8.72793   4
 -26  42  12 2.42181 7.40627   2
  26  42 -14 143.336 11.6564   4
 -42  26 -14 93.9860 7.85168   2
  14  42 -26 157.120 11.4281   4
 -26  42  14 101.110 7.77824   2
  26  42 -16 8.95653 9.42430   4
  16  42 -26 26.8584 9.21540   4
  16  26 -42 1.72384 8.37784   4
  18  42 -26 428.422 18.6118   4
  18  26 -42 437.599 18.3227   4
  26  42 -18 459.150 18.8499   4
  26  42 -20 7.63158 7.19065   4
  20  42 -26 7.56191 7.63383   4
  20  26 -42 3.99955 7.22150   4
  26  42 -22 46.3356 6.70569   4
  22  26 -42 39.4496 6.49769   4
  24  26 -42 6.59472 4.54757   4
  26  24 -42 10.7667 4.90911   4
  26  42 -24 9.78838 4.69040   4
  28  42   0 114.343 9.47225   4
 -28  42   0 113.426 12.5081   2
 -42  28   0 130.256 12.9228   2
 -28  42   2-15.6035 10.7506   2
  28  42   2-12.9523 7.82804   4
 -42  28   2 11.6229 11.5712   2
  28  42  -2-0.67486 8.43049   4
   2  42 -28-0.14934 5.05786   4
 -42  28  -2 7.57866 11.0075   2
 -42  28  -4 27.7856 10.5109   2
 -28  42   4 46.8983 10.6675   2
  28  42   4 20.7349 6.49977   4
 -42  28   4 31.5311 11.1520   2
  28  42  -4 14.9530 8.68812   4
   4  42 -28 21.4039 6.66967   4
 -42  28   6 206.972 14.0950   2
  28  42   6 171.474 9.68551   4
 -42  28  -6 202.664 13.1191   2
  28  42  -6 215.791 12.4434   4
 -28  42   6 220.431 12.9148   2
   6  42 -28 180.336 11.0377   4
   8  28 -42 156.125 9.75501   4
 -42  28   8 227.091 14.5066   2
 -28  42   8 212.870 12.1247   2
 -42  28  -8 210.553 12.2802   2
  28  42  -8 200.969 12.2601   4
   8  42 -28 192.234 11.1111   4
  10  42 -28-4.91614 7.88772   4
 -42  28 -10-7.16900 7.76998   2
  10  28 -42-5.20694 6.76487   4
 -28  42  10-0.82394 7.45715   2
  28  42 -10 1.78548 8.69320   4
 -42  28 -12 2.34618 6.88864   2
  12  42 -28 11.5434 8.05504   4
  12  28 -42 8.51835 7.27681   4
 -28  42  12 3.52320 6.13660   2
  28  42 -12 10.8969 8.14733   4
  14  42 -28 56.2110 8.28992   4
  14  28 -42 39.9396 7.18684   4
 -42  28 -14 31.5502 5.46907   2
  28  42 -14 59.4651 8.55475   4
  16  42 -28 313.386 14.3069   4
  16  28 -42 292.090 13.9545   4
  28  16 -42 355.564 15.8202   4
  28  42 -16 330.664 14.2644   4
  18  42 -28 72.8540 7.33407   4
  18  28 -42 61.7560 7.13103   4
  28  18 -42 74.1139 8.75136   4
  28  42 -18 78.9691 7.17334   4
  20  28 -42 125.673 7.75346   4
  28  42 -20 144.364 7.85213   4
  20  42 -28 146.579 8.19199   4
  22  42 -28 0.82154 4.27120   4
 -30  42   0 92.1459 10.7619   2
  30  42   0 64.7180 6.38917   4
 -42  30   0 90.1859 10.7626   2
 -30  42   2 22.6495 9.57247   2
 -30  42  -2 14.5349 10.2700   2
 -42  30   2 26.6239 10.2045   2
  30  42  -2 4.08128 6.19157   4
 -42  30  -2 14.4449 9.47239   2
 -30  42   4 6.03080 9.00655   2
 -42  30   4 13.0975 10.0784   2
  30  42  -4 4.45579 6.20780   4
 -30  42  -4 4.59391 9.88519   2
 -42  30  -4 2.58403 9.16775   2
 -42  30   6 424.888 17.9720   2
 -30  42   6 438.382 16.6625   2
 -42  30  -6 424.786 16.8535   2
  30  42  -6 371.821 15.1514   4
 -30  42   8 207.822 11.0832   2
 -42  30  -8 219.370 11.3441   2
  30  42  -8 189.869 10.1452   4
   8  42 -30 163.202 9.38823   4
  10  42 -30 8.31836 5.74697   4
  10  30 -42 11.5649 4.51952   4
 -30  42  10 3.31881 6.60563   2
  30  42 -10 4.25194 6.66157   4
 -42  30 -10 0.88543 6.81514   2
  12  30 -42 139.821 7.86494   4
 -42  30 -12 165.148 8.68293   2
  30  42 -12 178.249 9.26146   4
  12  42 -30 184.076 9.08023   4
  30  42 -14 145.831 8.52806   4
  14  42 -30 162.274 8.43307   4
  30  16 -42 197.966 9.95973   4
  30  42 -16 183.609 8.46898   4
  16  42 -30 202.970 8.93747   4
  18  42 -30 81.0399 5.76597   4
  30  18 -42 83.6926 6.53072   4
 -32  42   0 4.62502 8.30695   2
 -42  32   0 1.26343 8.27451   2
 -32  42  -2 690.225 25.4124   2
 -42  32   2 632.487 25.2069   2
 -42  32  -2 628.792 25.0219   2
 -32  42   2 654.639 25.1477   2
 -42  32   4 60.9283 9.19898   2
 -42  32  -4 47.4873 7.86925   2
 -32  42   4 42.3265 7.97040   2
 -42  32   6 24.3237 8.07749   2
 -32  42  -6 20.8421 8.49678   2
 -32  42   6 17.7494 7.06935   2
 -42  32  -6 16.4944 6.85200   2
 -32  42   8 110.391 7.71452   2
 -42  32  -8 96.2288 7.68969   2
 -42  32 -10 98.8105 6.52439   2
  32  12 -42 448.402 17.6434   4
  32  14 -42 12.5700 5.28885   4
 -32  42 -14 11.8671 5.34369   2
 -32  42 -16 43.7074 4.72788   2
 -42  34   0 363.289 15.1245   2
 -34  42   0 372.028 15.1071   2
 -34  42  -2 39.6110 6.73971   2
 -42  34   2 30.6984 6.50732   2
 -42  34  -2 24.1396 6.23528   2
 -34  42   2 32.9622 6.25960   2
 -34  42  -4 12.5246 6.09574   2
 -42  34   4 25.0272 6.22308   2
 -34  42   4 13.1132 5.50121   2
 -42  34  -4 10.7499 5.62632   2
 -34  42   6 133.447 7.35061   2
 -42  34  -6 119.306 7.26492   2
 -34  42  -6 145.510 8.32700   2
  -1  43   1-0.43228 14.9519   4
   1  43   1-16.3047 15.9314   4
  -1  43  -1 5.13050 14.9507   4
   1  43  -1-23.5379 14.7833   4
  -1  43   3 605.610 27.5634   4
  -3  43   1 564.769 26.4635   4
   1  43   3 508.003 27.1072   4
  -3  43  -1 557.003 26.1854   4
   3  43   1 586.945 27.3366   4
  -1  43  -3 487.239 25.3031   4
   3  43  -1 506.121 27.5395   4
   1  43  -3 560.272 26.2811   4
  -3  43   3 10.1917 14.8708   4
   3  43   3-16.0881 16.9163   4
  -3  43  -3-4.48490 14.1014   4
   3  43  -3-18.3334 16.0376   4
  -5  43   1 424.572 23.4623   4
  -1  43   5 508.828 25.3421   4
   1  43   5 492.226 25.5088   4
  -5  43  -1 462.057 23.4155   4
   5  43   1 483.963 25.9512   4
  -1  43  -5 461.135 24.2727   4
   5  43  -1 490.808 25.6553   4
   1  43  -5 467.408 24.5930   4
  -5  43   3 236.373 18.4911   4
  -3  43   5 253.306 19.1824   4
  -5  43  -3 282.791 17.2056   4
   3  43   5 268.727 20.6957   4
   5  43   3 283.484 21.3205   4
  -3  43  -5 249.630 18.0331   4
   5  43  -3 322.161 20.1678   4
   3  43  -5 282.342 19.1739   4
  -5  43   5 7.39847 13.9378   4
   5  43   5-6.69644 17.3062   4
  -5  43  -5-0.75853 12.3128   4
   5  43  -5 14.6811 16.2031   4
  -7  43   1 191.561 15.5649   4
  -1  43   7 192.467 18.7646   4
  -7  43  -1 195.020 15.8474   4
   1  43   7 211.651 18.8326   4
   7  43   1 210.267 19.8774   4
  -1  43  -7 205.331 16.9322   4
   7  43  -1 189.420 18.9732   4
   1  43  -7 195.523 17.1822   4
  -7  43   3 239.431 16.5392   4
  -3  43   7 215.875 18.5349   4
  -7  43  -3 214.248 16.1030   4
   3  43   7 257.293 20.2052   4
  -3  43  -7 218.143 16.7630   4
   7  43  -3 227.257 19.2319   4
   3  43  -7 259.818 18.7500   4
  -7  43   5 2648.33 93.1529   4
  -5  43   7 2659.74 93.4526   4
  -7  43  -5 2560.06 92.3370   4
  -5  43  -7 2575.12 92.6001   4
   7  43  -5 2640.11 93.6596   4
   5  43  -7 2672.66 93.5819   4
  -7  43   7 2.78923 13.7939   4
  -7  43  -7 1.02371 10.7998   4
   7  43  -7 3.41232 16.2276   4
 -43   9  -1 2147.70 77.2326   2
  -9  43   1 2182.94 77.6646   4
  -1  43   9 2185.71 78.9332   4
  -9  43  -1 2147.66 77.3593   4
   1  43   9 2184.28 79.1464   4
  -1  43  -9 2190.38 77.9452   4
   1  43  -9 2186.96 78.2969   4
 -43   9  -3 460.769 21.0660   2
  -9  43   3 466.425 22.5481   4
  -3  43   9 464.474 25.1583   4
  -9  43  -3 462.312 21.7154   4
   3  43   9 483.502 25.9783   4
   9  43  -3 445.792 25.6597   4
   3  43  -9 493.491 23.8058   4
  -9  43   5 3894.79 134.055   4
  -9  43  -5 3725.45 133.198   4
  -5  43  -9 3913.23 133.667   4
   9  43  -5 3914.53 135.015   4
  -9  43   7 295.036 18.9215   4
  -7  43   9 322.670 19.9051   4
  -9  43  -7 332.915 16.6000   4
  -7  43  -9 298.601 16.9873   4
   9  43   7 314.206 21.5626   4
   9  43  -7 325.083 21.0719   4
   7  43  -9 341.293 21.3356   4
   9  43  -9 11.7551 15.3810   4
  -9  43   9-2.30164 13.4117   4
  -9  43  -9-1.44010 9.35554   4
   9  43   9-5.50866 15.9143   4
 -43  11   1 3106.61 108.257   2
 -43  11  -1 3164.68 108.005   2
 -11  43   1 3009.35 107.585   4
 -11  43  -1 2999.30 107.398   4
  -1  43  11 3133.60 109.237   4
   1  43  11 3146.93 109.237   4
  -1  43 -11 3111.16 108.242   4
   1  43 -11 3052.05 108.410   4
 -43  11   3 13.7368 12.8111   2
 -43  11  -3 17.4109 10.7770   2
 -11  43   3 6.90022 11.8006   4
  -3  43  11 15.1478 15.9450   4
 -11  43  -3 14.0987 9.99229   4
  11  43   3 26.3238 17.0080   4
  -3  43 -11 10.6594 11.7892   4
   3  43 -11 28.5852 14.2858   4
 -43  11  -5 1116.06 42.5996   2
 -11  43   5 1146.61 43.6849   4
  -5  43  11 1214.79 45.0509   4
 -11  43  -5 1094.30 42.2414   4
  11  43   5 1181.44 45.8792   4
  -5  43 -11 1169.31 43.1353   4
   5  43 -11 1173.90 45.0862   4
  11  43  -7 66.8243 15.7086   4
   7  43 -11 75.8639 15.3472   4
 -11  43   7 64.6903 12.7786   4
  -7  43  11 77.8850 15.2826   4
 -11  43  -7 61.4937 9.34785   4
   7  43  11 109.918 17.3617   4
  11  43   7 73.4226 16.9778   4
  -7  43 -11 74.7425 10.5701   4
 -11  43   9 820.607 32.7438   4
  -9  43  11 831.613 33.5267   4
   9  43  11 826.875 34.7978   4
  -9  43 -11 755.434 30.4241   4
  11  43   9 802.431 34.4408   4
  11  43  -9 817.783 34.5048   4
   9  43 -11 817.797 34.3377   4
  11  43 -11 4.43407 15.5138   4
  11  43  11-1.19308 14.4226   4
 -43  13   1 508.782 23.8435   2
 -43  13  -1 514.659 23.8752   2
 -13  43   1 504.009 22.1803   4
 -13  43  -1 487.891 21.8461   4
  -1  43  13 534.332 26.2974   4
   1  43  13 562.778 26.7906   4
  13  43   1 530.301 26.7560   4
  13  43  -1 523.481 27.0973   4
  -1  43 -13 524.495 23.7097   4
   1  43 -13 523.183 24.0940   4
   3  43 -13 197.280 16.5699   4
 -43  13   3 195.724 16.3468   2
 -13  43  -3 175.853 12.0126   4
 -13  43   3 187.539 13.6472   4
  -3  43  13 191.564 18.7632   4
 -43  13  -3 202.121 14.5412   2
  -3  43 -13 224.755 14.6660   4
  13  43   3 174.879 18.9345   4
 -43  13   5 1499.80 52.6050   2
 -43  13  -5 1379.53 50.8817   2
 -13  43   5 1393.75 51.0551   4
  -5  43  13 1506.94 53.1782   4
 -13  43  -5 1288.67 49.6149   4
  13  43   5 1392.69 53.1030   4
  -5  43 -13 1379.17 50.7293   4
   5  43 -13 1443.30 52.5454   4
   7  43 -13 88.4146 14.8932   4
  -7  43  13 85.4396 15.3616   4
   7  43  13 79.9636 16.7391   4
 -43  13  -7 82.8872 10.4788   2
  13  43   7 64.3596 16.3463   4
  -7  43 -13 74.0114 9.93087   4
 -13  43   7 75.3616 9.69562   2
   9  43 -13-1.17896 14.8010   4
   9  43  13 7.53619 14.9549   4
  13  43   9-2.77013 14.3750   4
  13  43 -11 67.7452 16.5998   4
  11  43 -13 79.4316 15.2886   4
  11  43  13 62.2535 15.3498   4
  13  43  11 89.1194 15.3806   4
  13  43 -13-11.3750 14.8397   4
  13  43  13 2.54544 13.7494   4
  -1  43  15-20.1581 16.6849   4
 -43  15   1 9.15716 12.4631   2
 -43  15  -1 14.0368 11.9226   2
  15  43   1 18.7277 15.6891   4
  15  43  -1-17.1204 16.1984   4
  -1  43 -15 4.65132 11.3718   4
   1  43 -15 10.8540 12.1123   4
   3  43 -15 128.591 14.7629   4
  -3  43  15 165.497 17.6843   4
 -43  15   3 133.923 15.0321   2
 -43  15  -3 158.352 13.8515   2
  15  43   3 134.273 17.0293   4
  -3  43 -15 126.760 12.5966   4
  15  43  -3 127.877 17.4187   4
   5  43 -15 17.5911 12.9656   4
 -43  15   5 27.0775 13.8851   2
  -5  43  15 44.3208 15.5636   4
   5  43  15 52.2878 16.6763   4
 -43  15  -5 62.6467 11.3020   2
  15  43   5 28.2087 15.5102   4
  -5  43 -15 40.5096 9.79312   4
  15  43  -5 12.0779 16.1686   4
   7  43 -15 4.89333 14.1225   4
 -43  15   7 0.40141 14.5347   2
   7  43  15 13.0920 15.4806   4
  15  43   7 0.38866 14.8034   4
 -43  15  -7 0.30467 9.58771   2
  -7  43 -15 6.15617 8.03337   4
 -15  43   7 11.2726 9.50742   2
 -15  43   9 219.491 12.7828   2
   9  43 -15 232.139 17.7389   4
 -43  15  -9 227.676 13.2539   2
   9  43  15 235.814 18.6763   4
  15  43   9 230.923 17.6564   4
  11  43 -15 168.971 17.2593   4
  11  43  15 183.543 16.5471   4
  15  43  11 175.908 16.0607   4
  13  43 -15 432.161 22.6256   4
  13  43  15 431.852 21.6598   4
  15  43  13 399.329 21.1211   4
  15  43 -15-10.8929 14.2600   4
  15  43  15-2.57721 11.8528   4
  -1  43  17 90.2974 16.9899   4
 -43  17   1 80.2523 13.9898   2
 -43  17  -1 77.9806 13.3224   2
  17  43   1 96.1486 15.9576   4
  17  43  -1 103.705 16.1887   4
  -1  43 -17 90.3561 11.6057   4
   1  43 -17 100.846 12.8168   4
 -43  17   3 334.374 19.4707   2
 -43  17  -3 353.622 18.8984   2
  17  43   3 376.613 20.5012   4
  -3  43 -17 319.629 16.6134   4
  17  43  -3 323.959 20.7721   4
   3  43 -17 335.637 18.6192   4
 -43  17   5 2514.51 85.4163   2
   5  43  17 2415.66 85.7518   4
 -43  17  -5 2457.17 84.4165   2
  17  43   5 2398.59 85.2855   4
  -5  43 -17 2193.12 83.1054   4
  17  43  -5 2529.11 85.6343   4
   5  43 -17 2393.38 84.7126   4
  17  43  -7 23.0137 15.5560   4
   7  43 -17 27.3200 13.4616   4
 -43  17   7 17.5695 14.2842   2
   7  43  17 18.2246 15.4678   4
 -17  43   7 26.2639 9.80114   2
  17  43   7 15.7420 14.0801   4
 -43  17  -7 21.4283 10.2730   2
   9  43 -17 484.087 23.8113   4
 -17  43   9 471.219 20.5045   2
   9  43  17 510.512 24.1735   4
 -43  17  -9 455.205 20.7643   2
  17  43   9 537.796 23.4518   4
  17  43  -9 513.768 25.1655   4
  11  43 -17 863.975 33.3919   4
  11  43  17 888.649 33.2902   4
 -43  17 -11 781.727 30.1219   2
  17  43  11 862.338 32.6263   4
 -17  43  11 729.620 29.8383   2
  13  43 -17 26.1852 13.7053   4
  13  43  17 44.5955 13.0239   4
  17  43  13 29.7817 11.7276   4
  15  43 -17 43.5607 13.7259   4
  15  43  17 18.5630 10.9218   4
  17  43  15 27.7731 10.8738   4
  17  43  17 2.65687 9.60638   4
 -43  19   1 529.284 24.5702   2
 -43  19  -1 535.542 24.1934   2
  19  43   1 553.006 25.6586   4
  19  43  -1 559.497 25.5083   4
  -1  43 -19 520.581 22.3427   4
   1  43 -19 509.385 23.0089   4
 -43  19   3 359.870 19.7679   2
   3  43  19 385.247 21.3085   4
 -43  19  -3 352.477 18.8353   2
   3  19 -43 330.377 16.2189   4
  19  43   3 356.176 19.8836   4
  -3  43 -19 339.807 16.2791   4
  19  43  -3 340.098 20.6491   4
   3  43 -19 363.150 18.3713   4
   5  43 -19 68.0478 12.5877   4
   5  43  19 92.9638 15.8652   4
 -43  19   5 80.4909 14.9744   2
  19  43   5 75.0058 14.3946   4
 -43  19  -5 93.5784 12.1667   2
  19  43  -5 79.9757 15.2921   4
 -19  43   7 328.263 16.4948   2
 -43  19   7 333.105 19.6704   2
   7  43  19 312.592 19.8615   4
 -43  19  -7 340.621 17.1211   2
  19  43   7 323.685 18.5291   4
  19  43  -7 337.918 20.0162   4
   7  43 -19 301.481 17.8759   4
   9  43 -19 914.797 34.9064   4
 -43  19   9 914.923 36.0181   2
   9  43  19 932.446 35.5793   4
 -43  19  -9 852.015 33.3702   2
  19  43   9 897.939 34.9116   4
  19  43  -9 884.969 35.9838   4
 -19  43   9 839.107 33.1333   2
  19  43 -11 208.776 16.3216   4
  11  43 -19 212.908 16.2036   4
  11  43  19 221.781 15.2593   4
 -43  19 -11 183.689 11.5050   2
  19  43  11 212.559 14.0341   4
 -19  43  11 163.479 11.3182   2
  13  43 -19 1037.89 39.2182   4
  13  43  19 1028.54 38.5663   4
  19  43  13 1010.75 38.2302   4
  19  43 -13 975.455 39.4873   4
  15  43 -19 128.325 14.2119   4
  19  43  15 130.953 11.4027   4
  17  43 -19 1127.63 42.3071   4
 -43  21   1 1525.76 54.5534   2
 -43  21  -1 1513.06 54.3968   2
  21  43   1 1525.82 54.4681   4
  21  43  -1 1547.63 54.6842   4
  -1  43 -21 1385.92 52.6061   4
   1  43 -21 1448.11 53.0880   4
   3  43 -21 61.4927 11.0953   4
 -43  21   3 67.8002 13.6440   2
   3  21 -43 61.3508 8.35585   4
  21  43   3 73.1311 12.8031   4
  -3  43 -21 50.9268 8.18904   4
 -43  21  -3 97.0802 12.3549   2
  21  43  -3 89.2352 13.6867   4
 -43  21   5 621.420 26.6486   2
 -21  43   5 565.732 24.7871   2
   5  21 -43 558.853 23.7020   4
 -43  21  -5 586.844 25.1953   2
  21  43   5 631.840 25.6441   4
  21  43  -5 621.729 26.3820   4
   5  43 -21 573.669 24.8926   4
   7  43 -21 203.248 14.5172   4
 -21  43   7 190.077 13.3970   2
 -43  21   7 223.553 16.6376   2
  21  43   7 205.036 14.2305   4
   7  21 -43 188.905 13.0849   4
 -43  21  -7 192.477 13.7112   2
  21  43  -7 225.803 15.9587   4
   9  43 -21 461.000 21.3934   4
 -43  21   9 449.114 23.1275   2
  21  43   9 486.180 20.8477   4
 -43  21  -9 438.478 19.8911   2
   9  21 -43 444.527 20.5405   4
 -21  43   9 424.791 19.3142   2
  21  43  -9 493.913 22.5568   4
  11  43 -21 1487.57 51.5986   4
  21  43  11 1442.40 50.8502   4
 -21  43  11 1294.42 49.8981   2
 -43  21 -11 1330.34 50.0017   2
  11  21 -43 1478.68 51.2644   4
  21  43 -11 1535.48 52.2003   4
  21  43 -13 24.0538 12.6650   4
  13  43 -21 16.2235 11.6828   4
  21  43  13 8.93374 9.17210   4
 -21  43  13 5.75066 6.22972   2
  13  21 -43-6.08725 11.0076   4
  21  43 -15 68.0955 12.7134   4
  15  43 -21 59.2299 12.1143   4
  21  43  15 60.9979 8.78473   4
  15  21 -43 66.5864 11.4803   4
  21  43 -17 17.3417 11.3515   4
  17  43 -21 31.0315 10.6647   4
  17  21 -43 33.9752 11.1423   4
  19  43 -21 1132.05 42.2093   4
  19  21 -43 1162.19 42.1878   4
  21  21 -43-9.32937 9.48007   4
 -43  23   1 324.350 17.4463   2
 -43  23  -1 299.703 17.3022   2
  23  43   1 313.426 16.9966   4
  23  43  -1 319.368 17.1486   4
  -1  43 -23 276.314 13.5994   4
   1  43 -23 297.610 14.4623   4
   3  43 -23-0.75351 8.96956   4
 -43  23   3 5.99258 12.4078   2
  23  43   3-1.16739 11.0585   4
 -23  43   3-13.9740 10.9135   2
  23  43  -3-9.90237 12.0937   4
 -43  23  -3 9.63248 11.5678   2
 -23  43   5 419.430 20.0260   2
 -43  23   5 459.714 22.0315   2
   5  23 -43 388.743 18.0933   4
 -43  23  -5 435.109 20.2767   2
  23  43   5 489.992 20.1544   4
  23  43  -5 477.733 21.0323   4
   5  43 -23 455.852 19.7833   4
   7  43 -23 48.2115 10.7449   4
 -23  43   7 42.3927 10.0236   2
 -43  23   7 41.4021 13.3220   2
   7  23 -43 8.20657 8.30445   4
  23  43   7 39.8098 9.97333   4
  23  43  -7 27.6587 11.8839   4
   9  43 -23 22.0961 10.5065   4
 -23  43   9 17.2093 8.66997   2
 -43  23   9 4.88373 12.3818   2
  23  43   9 13.5462 9.28413   4
   9  23 -43 4.96553 9.46856   4
 -43  23  -9 10.9017 9.15903   2
  23  43  -9 21.7442 12.0661   4
  11  43 -23 246.778 14.8163   4
 -23  43  11 250.171 12.2136   2
  23  43  11 243.724 12.9560   4
  11  23 -43 230.983 13.6874   4
 -43  23 -11 231.689 12.7245   2
  23  43 -11 242.038 15.6683   4
  23  43 -13 41.3072 11.5512   4
  13  43 -23 28.5325 10.6368   4
 -23  43  13 25.0804 6.02882   2
  23  43  13 16.8880 6.77565   4
  13  23 -43 21.3176 9.95128   4
 -43  23 -13 23.9803 6.20851   2
  23  43 -15 27.3900 10.9298   4
  15  43 -23 35.9350 10.3582   4
  15  23 -43 39.6040 9.95251   4
  23  43 -17 30.8156 10.3670   4
  17  43 -23 32.2106 9.74522   4
  17  23 -43 35.1705 9.68099   4
  23  43 -19 166.955 11.3753   4
  19  43 -23 142.574 11.2662   4
  19  23 -43 142.265 11.0266   4
  23  19 -43 148.792 11.9662   4
  23  43 -21-0.78569 7.89218   4
  21  23 -43 3.14203 7.73858   4
  23  21 -43 8.83084 8.31880   4
  23  23 -43 9.78150 6.74976   4
 -43  25   1 884.698 33.1300   2
 -43  25  -1 885.650 32.8832   2
 -25  43   1 907.368 32.8234   2
  25  43   1 894.268 32.1422   4
  25  43  -1 876.408 32.2164   4
 -25  43   3 1562.73 55.2902   2
 -43  25   3 1623.65 55.9403   2
 -43  25  -3 1615.00 55.4398   2
  25  43   3 1558.80 54.7925   4
  25  43  -3 1569.81 55.2062   4
   3  43 -25 1374.78 53.9632   4
   5  43 -25 51.1879 9.06481   4
 -25  43   5 69.1776 10.5862   2
 -43  25   5 72.7456 12.8245   2
  25  43   5 58.7368 9.52079   4
  25  43  -5 81.7653 11.2340   4
 -43  25  -5 84.3703 10.9984   2
   7  43 -25 10.0902 8.98787   4
 -25  43   7 13.1692 9.21869   2
 -43  25   7-3.32969 12.1554   2
   7  25 -43 3.60962 6.98342   4
  25  43   7 6.40770 7.75546   4
  25  43  -7 18.0670 10.7043   4
 -43  25  -7-8.05581 9.18474   2
 -43  25   9 4520.71 141.014   2
   9  25 -43 3841.96 139.386   4
  25  43   9 3785.24 139.235   4
 -25  43   9 3962.17 139.673   2
 -43  25  -9 4116.30 139.782   2
  25  43  -9 4528.06 140.546   4
   9  43 -25 4201.68 139.974   4
 -25  43  11 2318.90 85.6398   2
  11  25 -43 2639.70 86.1581   4
  25  43  11 2221.34 85.2850   4
 -43  25 -11 2418.46 85.7661   2
  25  43 -11 3037.81 87.1953   4
  11  43 -25 2695.99 86.6149   4
  13  43 -25 431.539 17.2556   4
 -25  43  13 313.945 14.6066   2
  13  25 -43 422.275 16.6381   4
 -43  25 -13 331.236 14.6635   2
  25  43 -13 501.987 18.0649   4
  25  43 -15-3.65707 9.49290   4
  15  43 -25-12.0145 8.61813   4
  15  25 -43 5.16960 8.10482   4
  17  25 -43 535.970 22.4920   4
  25  43 -17 592.430 23.0814   4
  17  43 -25 613.932 22.9373   4
  19  25 -43 138.437 9.44565   4
  25  19 -43 156.303 10.7216   4
  25  43 -19 172.119 10.1937   4
  19  43 -25 156.618 9.92910   4
  21  25 -43 1719.13 62.2365   4
  25  21 -43 1783.61 62.4656   4
  25  43 -21 1831.64 62.3608   4
  21  43 -25 1855.50 62.4037   4
  23  25 -43 477.596 18.7262   4
  25  23 -43 533.125 18.9467   4
  25  43 -23 504.202 18.7859   4
 -27  43   1 27.9084 10.0720   2
 -43  27   1 26.2377 10.7098   2
  27  43   1 38.4159 7.99224   4
  27  43  -1 24.5181 8.51878   4
 -43  27  -1 2.40747 10.4648   2
 -27  43  -1 38.0135 11.0979   2
 -27  43   3 11.9987 9.84693   2
 -43  27   3 8.24487 10.8000   2
  27  43   3 5.68337 7.03231   4
  27  43  -3 18.1574 8.53683   4
 -43  27  -3-1.28846 9.76339   2
   3  43 -27-2.03752 5.61683   4
 -43  27   5 442.278 18.8413   2
  27  43   5 320.772 15.3290   4
 -43  27  -5 425.500 17.4892   2
  27  43  -5 397.130 17.0424   4
 -27  43   5 414.269 17.2667   2
   5  43 -27 332.387 15.1834   4
 -43  27   7 552.619 21.5532   2
 -43  27  -7 531.751 20.0978   2
 -27  43   7 489.591 19.6844   2
  27  43  -7 517.262 20.1269   4
   7  43 -27 477.940 18.9276   4
   9  43 -27 32.1044 7.77574   4
   9  27 -43 21.3016 6.11792   4
 -27  43   9 29.2072 7.30100   2
 -43  27  -9 29.4894 7.59707   2
  27  43  -9 34.8050 8.89393   4
  11  43 -27 19.7736 7.92779   4
  11  27 -43 11.3102 6.38072   4
 -27  43  11 19.9542 5.88537   2
 -43  27 -11 22.3319 6.40291   2
  27  43 -11 21.4682 8.37477   4
  13  43 -27 5.89311 7.30325   4
  13  27 -43 4.58495 6.52027   4
 -43  27 -13 7.32068 4.49156   2
  27  43 -13-1.00903 7.95991   4
  15  43 -27 59.6365 7.63727   4
  15  27 -43 56.5159 7.11043   4
  27  43 -15 63.2510 8.15498   4
  17  27 -43 188.134 10.0645   4
  27  43 -17 211.094 10.7061   4
  17  43 -27 244.154 10.9803   4
  19  43 -27 65.1428 6.30384   4
  19  27 -43 47.6532 5.71159   4
  27  43 -19 62.9200 6.46241   4
  27  43 -21 12.7311 4.20804   4
  21  43 -27 18.3484 4.43973   4
 -29  43   1 134.754 10.8615   2
  29  43   1 107.897 7.26306   4
 -29  43  -1 147.356 11.2440   2
  29  43  -1 112.977 7.94621   4
 -43  29   1 150.601 11.1553   2
 -43  29  -1 150.958 10.9920   2
 -29  43   3 21.4843 8.70055   2
 -43  29   3 21.9349 9.88319   2
  29  43   3 10.9575 4.53044   4
 -29  43  -3 21.5760 9.71734   2
  29  43  -3 18.1067 6.52524   4
 -43  29  -3 17.4796 8.56444   2
 -43  29   5 1127.52 33.7311   2
 -43  29  -5 1053.12 32.8555   2
 -29  43  -5 1143.09 33.9263   2
 -29  43   5 1074.01 32.9100   2
  29  43  -5 952.618 32.0084   4
 -43  29   7 15.2230 9.85930   2
 -29  43   7 8.54376 7.22943   2
 -43  29  -7 21.5119 7.42255   2
  29  43  -7 17.0374 6.68289   4
   7  43 -29 7.22881 5.04555   4
 -29  43   9 288.727 12.4746   2
 -43  29  -9 294.823 12.5435   2
  29  43  -9 291.651 12.9817   4
   9  43 -29 253.962 11.8666   4
 -43  29 -11 78.4312 6.21670   2
  29  43 -11 103.609 7.67305   4
  11  43 -29 105.766 7.34691   4
  13  43 -29 12.3238 5.54489   4
  29  43 -13 26.3326 6.05231   4
  29  15 -43 250.777 11.5943   4
  29  43 -15 227.401 10.1960   4
  15  43 -29 210.321 10.1397   4
  29  17 -43 296.489 11.6960   4
  29  43 -17 243.873 10.7379   4
  17  43 -29 265.388 10.9028   4
 -31  43   1 124.589 9.43384   2
 -31  43  -1 118.182 9.71393   2
 -43  31   1 133.929 9.68821   2
 -43  31  -1 130.875 9.61584   2
 -31  43  -3 238.797 12.7589   2
 -43  31   3 270.361 12.8486   2
 -43  31  -3 238.240 12.0840   2
 -31  43   3 240.964 12.1110   2
 -31  43  -5 339.441 14.3274   2
 -43  31   5 318.739 14.0571   2
 -43  31  -5 285.960 13.0103   2
 -31  43   5 260.270 13.1054   2
 -31  43   7 106.818 7.51315   2
 -43  31  -7 107.092 7.51228   2
 -31  43  -7 123.448 9.44506   2
 -31  43   9 222.494 9.87621   2
 -43  31  -9 198.863 9.78511   2
  31  11 -43 71.0776 7.32129   4
  31  13 -43 41.4176 5.96307   4
 -31  43 -15 12.2242 4.45309   2
 -43  33   1 197.593 9.96841   2
 -43  33  -1 186.074 9.67415   2
 -33  43   1 205.806 9.80303   2
 -33  43  -1 216.187 10.1496   2
 -43  33  -3 110.789 7.14285   2
 -33  43   3 103.865 7.02034   2
 -33  43  -3 114.650 7.78635   2
 -33  43   5 602.312 22.3254   2
 -43  33  -5 564.747 22.2339   2
 -33  43  -7 106.032 7.12744   2
   0  44   0 7696.26 263.879   4
   0  44   2-5.51345 15.8379   4
  -2  44   0 3.28160 14.6204   4
   2  44   0-0.42700 15.5072   4
   0  44  -2 12.4416 14.7385   4
  -2  44   2 14.8933 14.6577   4
   2  44   2 5.58299 15.7106   4
  -2  44  -2 14.1105 14.4790   4
   2  44  -2 13.9223 15.3698   4
  -4  44   0 543.574 24.7274   4
   0  44   4 503.093 25.2632   4
   4  44   0 493.390 25.8015   4
   0  44  -4 507.948 25.2457   4
  -4  44   2 301.700 18.3831   4
  -4  44  -2 270.444 18.4577   4
  -2  44  -4 289.693 18.3673   4
   2  44   4 260.628 20.2098   4
   4  44   2 301.382 21.0168   4
   4  44  -2 293.210 20.5787   4
  -4  44   4 768.134 32.8798   4
   4  44   4 784.101 34.2191   4
  -4  44  -4 760.211 32.1832   4
   4  44  -4 773.070 33.1657   4
  -6  44   0 1178.75 44.9139   4
   0  44   6 1189.82 46.1464   4
   6  44   0 1143.76 46.4623   4
   0  44  -6 1178.36 45.4137   4
  -6  44   2 52.1408 13.4872   4
  -2  44   6 72.4578 15.9360   4
  -6  44  -2 46.9371 12.9840   4
   2  44   6 32.5171 16.2999   4
   6  44   2 57.4093 17.4074   4
  -2  44  -6 44.0855 13.3757   4
   6  44  -2 52.0865 17.0163   4
   2  44  -6 56.4872 15.0423   4
  -6  44   4 415.036 21.6866   4
  -4  44   6 405.977 22.0435   4
  -6  44  -4 391.626 20.5465   4
   4  44   6 397.391 23.3268   4
   6  44   4 392.932 23.8106   4
  -4  44  -6 379.300 20.5799   4
   6  44  -4 422.654 23.4412   4
   4  44  -6 401.487 22.7100   4
  -6  44   6-1.16430 13.1201   4
  -6  44  -6 6.54184 11.8881   4
   6  44  -6 21.4349 15.2898   4
  -8  44   0 2086.18 76.2027   4
   0  44   8 2204.54 77.8159   4
   8  44   0 2150.85 77.6775   4
   0  44  -8 2145.76 76.8723   4
  -8  44   2 458.267 22.4066   4
  -2  44   8 480.984 24.9102   4
  -8  44  -2 436.352 21.6393   4
   2  44   8 462.778 25.1874   4
  -2  44  -8 464.371 22.8281   4
   8  44  -2 508.725 25.8043   4
   2  44  -8 496.880 23.3379   4
  -4  44   8 264.042 18.9462   4
  -8  44   4 231.269 16.6487   4
  -8  44  -4 199.823 15.0264   4
   4  44   8 225.977 20.2371   4
  -4  44  -8 238.251 15.9193   4
   8  44  -4 251.404 19.9673   4
   4  44  -8 235.605 18.4108   4
  -8  44   6 501.800 24.3656   4
  -6  44   8 518.771 25.5469   4
  -8  44  -6 515.792 22.7937   4
  -6  44  -8 491.110 23.2702   4
   8  44  -6 592.212 26.8469   4
   6  44  -8 586.119 26.2176   4
  -8  44   8 38.3721 12.8652   4
  -8  44  -8 32.0880 9.88863   4
   8  44  -8 44.2461 15.7863   4
 -10  44   0 2003.23 71.4581   4
   0  44  10 2004.86 73.2621   4
   0  44 -10 2007.20 72.1611   4
 -10  44   2 107.774 12.8424   4
  -2  44  10 107.939 16.4797   4
 -10  44  -2 108.658 11.8831   4
   2  44  10 107.143 17.6723   4
  -2  44 -10 124.879 13.5988   4
   2  44 -10 104.758 14.8658   4
 -10  44   4 1.02991 11.1823   4
  -4  44  10 14.4154 14.2939   4
 -10  44  -4-5.90998 9.67029   4
  -4  44 -10 2.99949 11.5537   4
  10  44  -4 14.8751 16.5507   4
   4  44 -10 31.3195 14.0566   4
 -10  44   6 43.6990 11.7401   4
  -6  44  10 47.7074 14.3645   4
 -10  44  -6 41.7098 9.41563   4
  10  44   6 37.9545 16.6338   4
  -6  44 -10 49.0908 10.9032   4
  10  44  -6 49.4619 15.3312   4
   6  44 -10 35.6010 14.8435   4
   8  44 -10 25.9731 14.9768   4
 -10  44   8 49.0568 12.8465   4
  -8  44  10 44.5180 13.4024   4
 -10  44  -8 52.0707 8.77715   4
   8  44  10 55.1812 16.5066   4
  -8  44 -10 41.1632 9.53614   4
  10  44   8 52.8580 16.1992   4
  10  44  -8 35.4932 15.9358   4
  10  44  10 527.879 25.9950   4
  10  44 -10 510.861 25.7599   4
 -44  12   0 549.836 24.1991   2
 -12  44   0 548.946 23.1279   4
   0  44  12 525.055 27.0942   4
   0  44 -12 549.241 24.4095   4
 -44  12  -2 9.46043 10.5959   2
 -12  44   2 22.9284 10.4218   4
 -12  44  -2 1.66232 8.88465   4
  -2  44  12 14.4984 15.2768   4
  12  44   2 10.6247 16.2543   4
  -2  44 -12 22.1631 11.4526   4
   2  44 -12-7.26612 12.8116   4
 -44  12  -4 25.8632 10.0681   2
 -12  44   4 22.2823 10.9256   4
  -4  44  12 29.6670 15.2650   4
 -12  44  -4 24.0037 8.79859   4
  12  44   4 13.3792 15.8983   4
  -4  44 -12 18.7552 10.7322   4
   4  44 -12 3.35197 13.3216   4
 -44  12  -6 628.829 25.2481   2
 -12  44   6 621.891 26.5165   4
  -6  44  12 655.702 29.0116   4
 -12  44  -6 581.890 24.5710   4
   6  44  12 665.606 29.8931   4
  12  44   6 721.405 29.7067   4
  -6  44 -12 652.661 25.8339   4
   6  44 -12 691.985 28.8793   4
   8  44 -12 71.6068 15.0955   4
  -8  44  12 98.8932 14.5862   4
   8  44  12 98.0149 17.0956   4
  -8  44 -12 83.4570 9.13785   4
  12  44   8 78.2365 16.0662   4
  12  44  -8 66.7465 15.5937   4
  12  44 -10 87.0263 16.3146   4
  10  44 -12 81.9936 15.6000   4
  10  44  12 98.5715 15.7883   4
  12  44  10 91.1930 15.1389   4
  12  44  12 942.603 38.3061   4
  12  44 -12 982.285 38.3664   4
 -44  14   0 1058.51 39.9227   2
   0  44  14 1021.23 41.6530   4
  14  44   0 1098.09 41.8403   4
   0  44 -14 985.449 39.5376   4
 -44  14   2 41.1792 12.5183   2
 -14  44  -2 28.1944 7.72972   4
  -2  44  14 54.1195 15.9987   4
 -44  14  -2 39.0669 11.3236   2
  14  44   2 52.7696 16.1188   4
  -2  44 -14 37.6751 10.8671   4
  14  44  -2 51.4159 15.2582   4
   2  44 -14 49.2424 12.6895   4
 -44  14   4 301.465 18.3705   2
 -44  14  -4 333.832 16.7787   2
  -4  44  14 336.134 19.8690   4
  14  44   4 329.907 20.6628   4
  -4  44 -14 306.506 16.2287   4
   4  44 -14 310.338 18.8187   4
   6  44 -14-2.90440 13.5791   4
 -44  14  -6 12.3406 9.24062   2
   6  44  14-5.03153 15.4668   4
  14  44   6-9.17806 14.9250   4
  -6  44 -14 5.37346 8.50202   4
 -14  44   6 6.63410 8.54527   2
   8  44  14 379.865 22.1067   4
  14  44   8 393.126 21.6275   4
   8  44 -14 384.733 21.2240   4
  10  44  14 477.042 23.1670   4
  14  44  10 453.729 23.3863   4
  10  44 -14 473.891 23.3485   4
  12  44  14 451.555 22.7101   4
  14  44  12 453.438 22.5276   4
  14  44 -12 468.605 23.5118   4
  12  44 -14 472.578 23.1522   4
  14  44 -14-1.37044 13.2923   4
  14  44  14-1.93615 12.5374   4
 -44  16   0 118.004 13.1855   2
  16  44   0 134.186 16.4131   4
   0  44 -16 118.836 12.5629   4
 -44  16   2 660.904 27.9887   2
 -44  16  -2 671.079 27.6399   2
  -2  44  16 672.703 29.8335   4
  16  44   2 691.124 29.6180   4
  -2  44 -16 641.427 26.5981   4
  16  44  -2 637.330 29.5348   4
   2  44 -16 661.407 27.4781   4
 -44  16   4 1635.43 57.0082   2
 -44  16  -4 1550.75 55.8274   2
   4  44  16 1519.98 57.5543   4
  16  44   4 1577.30 57.4029   4
  -4  44 -16 1462.90 55.0427   4
  16  44  -4 1552.87 57.5035   4
   4  44 -16 1556.65 56.4362   4
 -44  16  -6 275.622 14.8557   2
 -16  44   6 267.005 14.4579   2
   6  44  16 305.013 19.2501   4
  16  44   6 312.205 18.9101   4
  -6  44 -16 249.223 13.3718   4
  16  44  -6 292.091 19.5337   4
   6  44 -16 279.408 17.4363   4
 -16  44   8 826.856 33.7807   2
 -44  16  -8 867.044 34.0678   2
   8  44  16 1037.66 37.5049   4
  16  44   8 1008.61 36.8211   4
   8  44 -16 999.309 36.6711   4
  10  44 -16 17.0355 13.1973   4
  10  44  16 22.6768 13.2485   4
  16  44  10 4.31513 12.2368   4
  12  44 -16 18.6609 12.7290   4
  12  44  16 11.6764 12.6662   4
  16  44  12 11.3009 11.6357   4
  14  44  16 1201.78 43.7682   4
  16  44  14 1185.83 43.4923   4
  14  44 -16 1111.13 44.1416   4
  16  44  16 2493.20 86.7487   4
  16  44 -16 2466.08 87.4683   4
 -44  18   0 896.607 34.5234   2
  18  44   0 897.387 35.4916   4
   0  44 -18 838.843 33.2865   4
 -44  18   2 72.3907 12.6765   2
 -44  18  -2 71.3697 11.9260   2
  18  44   2 69.2452 14.0581   4
  -2  44 -18 50.5868 9.45057   4
  18  44  -2 66.0903 13.8017   4
   2  44 -18 75.4338 11.5658   4
   4  44 -18 116.259 12.8549   4
 -44  18   4 142.842 14.0641   2
   4  44  18 142.784 16.0518   4
 -44  18  -4 136.456 12.3595   2
  18  44   4 134.799 14.6893   4
   4  18 -44 118.110 10.7550   4
  -4  44 -18 116.180 9.30536   4
  18  44  -4 116.531 15.9168   4
 -18  44   6 400.210 18.2513   2
 -44  18   6 402.938 21.1220   2
 -44  18  -6 378.961 18.5788   2
   6  44  18 424.165 21.3020   4
  18  44   6 421.604 20.7592   4
  18  44  -6 397.211 21.0852   4
   6  44 -18 423.958 20.3943   4
   8  44 -18 38.1307 12.0890   4
 -18  44   8 18.8826 8.20713   2
   8  44  18 34.7715 13.8584   4
  18  44   8 14.3859 12.1080   4
 -44  18  -8 23.7912 9.07062   2
  18  44  -8 41.8891 14.3566   4
 -44  18 -10 499.812 21.9570   2
  10  44  18 617.751 25.5232   4
  18  44  10 636.546 24.7536   4
 -18  44  10 533.393 21.7452   2
  18  44 -10 638.197 26.2640   4
  10  44 -18 621.391 25.4384   4
  12  44 -18 143.451 14.1966   4
  12  44  18 141.949 13.5984   4
  18  44  12 125.207 12.4975   4
  14  44 -18 172.474 14.6463   4
  14  44  18 165.988 13.0588   4
  18  44  14 172.309 12.3486   4
  16  44 -18-0.28584 11.7025   4
  18  44  16-0.23637 9.05908   4
 -44  20   0 1534.20 54.5315   2
  20  44   0 1562.06 54.9125   4
   0  44 -20 1418.06 53.1099   4
 -44  20   2 58.1569 12.2493   2
 -44  20  -2 55.3733 11.6441   2
  20  44   2 63.8414 12.5970   4
  -2  44 -20 36.1275 7.95215   4
  20  44  -2 43.0988 13.3740   4
   2  44 -20 44.7710 10.0958   4
 -44  20   4 457.557 20.7965   2
 -44  20  -4 442.895 19.6942   2
 -20  44   4 427.272 19.3879   2
   4  20 -44 361.137 17.2524   4
  20  44   4 430.835 20.7599   4
  20  44  -4 429.859 21.4239   4
   4  44 -20 436.438 19.4366   4
 -20  44   6 763.994 30.4936   2
 -44  20   6 877.358 32.7170   2
 -44  20  -6 802.150 30.8646   2
   6  20 -44 756.668 30.2698   4
  20  44   6 846.419 31.7912   4
  20  44  -6 810.159 32.3966   4
   6  44 -20 760.745 31.2003   4
 -44  20  -8 303.323 15.0120   2
  20  44   8 324.434 16.6739   4
   8  20 -44 306.798 15.7335   4
  20  44  -8 314.758 18.4378   4
 -20  44   8 285.960 14.6104   2
   8  44 -20 332.242 17.0006   4
 -44  20 -10 178.376 10.7245   2
  20  44  10 224.840 13.4347   4
 -20  44  10 156.607 10.5425   2
  10  20 -44 213.404 13.5055   4
  10  44 -20 223.995 14.7810   4
  20  44 -10 214.966 15.7249   4
  20  44 -12 76.3849 13.0745   4
  12  44 -20 90.4513 12.4939   4
  20  44  12 102.094 10.6293   4
  12  20 -44 79.1173 11.3612   4
  20  44 -14 72.4417 12.6426   4
  14  44 -20 84.6167 11.9392   4
  20  44  14 78.3053 9.48573   4
  14  20 -44 76.6877 11.1917   4
  16  44 -20 25.0135 11.0192   4
  16  20 -44 20.3496 10.3685   4
  18  44 -20 64.2265 10.5522   4
  18  20 -44 63.6777 10.5029   4
  20  20 -44 1971.54 69.2452   4
 -44  22   0 93.0235 12.1371   2
  22  44   0 100.677 12.6095   4
   0  44 -22 94.8575 8.57918   4
 -44  22   2 19.5693 11.5403   2
 -44  22  -2 19.8553 10.7710   2
  22  44   2-0.29057 11.0620   4
  22  44  -2 12.3303 11.3192   4
 -22  44   2 8.58221 10.5267   2
   2  44 -22 4.12498 8.26479   4
 -44  22   4 126.901 13.7001   2
 -22  44   4 125.977 11.5323   2
  22  44   4 133.487 12.4571   4
 -44  22  -4 117.812 11.9320   2
  22  44  -4 147.321 13.8527   4
   4  44 -22 131.341 10.8229   4
   6  44 -22 125.378 11.3872   4
 -22  44   6 94.1673 10.5035   2
 -44  22   6 105.955 13.0868   2
   6  22 -44 97.0648 8.38613   4
  22  44   6 115.609 11.4142   4
 -44  22  -6 117.861 10.6461   2
  22  44  -6 107.847 13.4082   4
 -44  22  -8 156.086 10.8755   2
   8  22 -44 169.233 11.0146   4
  22  44   8 182.825 12.1030   4
 -22  44   8 156.339 11.0113   2
  22  44  -8 181.057 14.3739   4
   8  44 -22 182.234 12.7483   4
  10  44 -22 8.60808 10.2187   4
  22  44  10 13.4999 8.80288   4
  10  22 -44-3.28952 8.37278   4
 -44  22 -10 7.28632 7.15943   2
 -22  44  10 4.78380 6.35834   2
  22  44 -10 6.77176 11.6125   4
  22  44  12 271.509 13.3208   4
  12  22 -44 270.433 14.2553   4
  22  44 -12 262.596 15.6731   4
  12  44 -22 281.605 15.2583   4
  22  44 -14 69.4309 11.1674   4
  14  44 -22 99.1544 10.7209   4
  22  44  14 71.2124 7.41979   4
  14  22 -44 78.6362 10.0888   4
  22  44 -16 37.6227 10.2995   4
  16  44 -22 52.5257 10.2314   4
  16  22 -44 27.8038 9.31320   4
  22  44 -18 22.1899 9.12819   4
  18  44 -22 30.3877 9.05026   4
  18  22 -44 18.8213 8.47588   4
  22  18 -44 2.09490 9.56454   4
  20  44 -22 84.3498 8.92497   4
  20  22 -44 82.9816 8.54246   4
  22  20 -44 74.9914 9.05134   4
  22  22 -44 231.427 11.1434   4
 -44  24   0 1563.55 47.8483   2
  24  44   0 1511.77 47.4128   4
 -24  44   2 310.590 15.6492   2
 -44  24   2 316.175 16.2797   2
 -44  24  -2 274.396 15.2501   2
  24  44   2 282.438 15.1704   4
  24  44  -2 305.356 15.4427   4
   2  44 -24 249.222 12.6892   4
 -44  24   4 51.1876 11.5513   2
 -24  44   4 39.0288 9.41954   2
  24  44   4 42.2174 9.46174   4
 -44  24  -4 52.0049 9.72183   2
  24  44  -4 54.2836 11.0462   4
   4  44 -24 36.4821 8.22384   4
 -24  44   6 72.0182 9.17959   2
 -44  24   6 80.6929 12.0654   2
  24  44   6 68.9252 9.42063   4
 -44  24  -6 77.3016 9.67870   2
  24  44  -6 79.0815 11.3997   4
   6  44 -24 61.4227 9.17277   4
   8  44 -24 10.1731 8.76406   4
   8  24 -44 11.8455 6.81420   4
  24  44   8 9.16113 7.40629   4
  24  44  -8 19.9438 10.5924   4
 -24  44   8 12.9424 7.37920   2
 -24  44  10 335.431 15.1867   2
 -44  24 -10 341.339 15.1689   2
  10  24 -44 363.713 15.9590   4
  24  44  10 358.144 15.5363   4
  24  44 -10 472.050 18.1873   4
  10  44 -24 433.185 17.2044   4
  12  44 -24 10.8969 8.59266   4
 -24  44  12-0.13324 4.52406   2
  24  44  12 11.1789 5.69007   4
  12  24 -44 3.14947 7.10245   4
 -44  24 -12 4.94185 4.87230   2
  24  44 -12 14.0744 9.58174   4
  14  24 -44 580.819 23.7848   4
  24  44 -14 658.155 24.9076   4
  14  44 -24 648.750 24.4927   4
  16  24 -44 208.402 12.2401   4
  24  44 -16 278.136 13.2117   4
  16  44 -24 270.420 13.0464   4
  18  24 -44 368.524 16.1535   4
  24  18 -44 435.683 17.3704   4
  24  44 -18 406.654 16.7048   4
  18  44 -24 383.314 16.5914   4
  20  24 -44 152.964 9.03523   4
  24  20 -44 185.956 9.99688   4
  24  44 -20 168.434 9.36679   4
  20  44 -24 186.357 9.76601   4
  22  24 -44 46.3772 5.36386   4
  24  44 -22 61.7489 5.68297   4
 -26  44   0 717.205 28.2032   2
 -44  26   0 746.611 28.2816   2
  26  44   0 701.781 27.5062   4
 -26  44   2 186.056 12.1000   2
 -44  26   2 184.883 12.7327   2
 -44  26  -2 175.126 12.0411   2
  26  44   2 156.827 10.7543   4
  26  44  -2 176.794 11.3128   4
 -26  44  -2 154.152 12.2908   2
 -26  44   4 1.79924 8.56263   2
 -44  26   4 29.3111 10.3339   2
  26  44   4 20.9577 7.22993   4
 -44  26  -4 17.8374 8.82318   2
  26  44  -4 25.5508 9.00696   4
   4  44 -26 18.6574 6.24547   4
 -26  44   6 26.4531 8.13041   2
 -44  26   6 29.1392 10.5193   2
  26  44   6 23.5492 6.06665   4
 -44  26  -6 24.7680 8.24969   2
  26  44  -6 24.6349 9.03687   4
   6  44 -26 24.7709 6.93054   4
   8  26 -44 59.9382 5.62386   4
  26  44   8 62.7625 5.94107   4
 -44  26  -8 72.0204 7.49298   2
 -26  44   8 68.7273 7.71917   2
  26  44  -8 94.5568 9.55191   4
   8  44 -26 93.2547 7.87203   4
  10  44 -26 53.1301 7.77979   4
  10  26 -44 36.2777 5.52878   4
 -26  44  10 44.8882 5.74891   2
 -44  26 -10 38.3972 6.10862   2
  26  44 -10 56.0212 8.91221   4
  26  44 -12 405.651 15.7319   4
  12  44 -26 365.333 14.9593   4
  14  44 -26 70.8085 7.58238   4
  14  26 -44 63.8057 6.67834   4
  26  44 -14 82.4958 8.39790   4
  16  26 -44 255.634 12.0404   4
  26  44 -16 310.548 13.0452   4
  16  44 -26 313.651 12.9648   4
  18  44 -26 51.6036 6.35062   4
  18  26 -44 26.6136 5.08272   4
  26  44 -18 35.9859 6.02708   4
  26  20 -44 128.306 7.01788   4
  26  44 -20 123.595 6.65126   4
  20  44 -26 119.876 6.60574   4
 -28  44   0 7.68719 8.45867   2
 -44  28   0 2.42039 8.35917   2
  28  44   0 6.41079 5.57899   4
 -28  44   2 18.3689 8.14541   2
 -44  28   2 22.2459 8.90802   2
 -44  28  -2 9.45384 8.11625   2
  28  44   2 19.6648 5.05101   4
 -28  44  -2 4.95444 8.86450   2
  28  44  -2 17.4255 6.19026   4
 -28  44   4 139.739 9.26551   2
 -44  28   4 161.909 11.1075   2
  28  44   4 94.5396 6.54736   4
 -44  28  -4 132.028 9.51978   2
  28  44  -4 116.708 8.38598   4
 -28  44  -4 147.456 10.9788   2
 -44  28  -6 17.1621 6.64913   2
  28  44  -6 17.2674 7.00711   4
 -28  44   6 25.7470 6.76993   2
 -28  44  -6 33.3196 9.34023   2
   6  44 -28 14.6038 4.43301   4
 -28  44   8 65.4929 6.39220   2
 -44  28  -8 62.3786 6.42423   2
  28  44  -8 87.8431 7.45979   4
   8  44 -28 62.4333 5.77930   4
 -28  44  10 19.2257 4.37454   2
 -44  28 -10 25.2006 4.57057   2
  28  44 -10 29.1301 6.67199   4
  10  44 -28 27.8358 5.35988   4
  28  44 -12-4.20126 6.11091   4
  12  44 -28 6.94771 4.98593   4
  28  14 -44-1.77413 7.16305   4
  28  44 -14 4.49292 5.42153   4
  14  44 -28 7.62147 4.83911   4
  28  44 -16 185.062 8.84566   4
  16  44 -28 213.709 8.84817   4
 -44  30   0 1027.47 37.3653   2
 -30  44   0 1053.09 37.4213   2
 -30  44   2 15.2978 6.62457   2
 -30  44  -2-3.93056 7.21546   2
 -44  30   2 18.7148 7.35213   2
 -44  30  -2 8.38557 6.72879   2
 -30  44  -4 146.218 9.41809   2
 -44  30  -4 109.615 8.26701   2
 -30  44   4 143.296 8.33593   2
 -30  44  -6 323.976 13.2262   2
 -44  30  -6 261.793 11.7023   2
 -30  44   6 262.866 11.6007   2
 -30  44  -8 45.0578 7.44388   2
 -30  44 -10 319.908 13.8334   2
 -30  44 -12 51.1043 6.30927   2
  30  12 -44 33.5609 5.74879   4
  30  14 -44 145.298 7.34359   4
 -32  44   0 440.506 16.9249   2
 -32  44  -2 5.46367 5.27555   2
 -44  32  -2 1.56946 4.71495   2
 -32  44   2 1.16651 4.59228   2
 -32  44  -4 10.0328 5.16008   2
 -32  44  -6 198.658 9.30007   2
 -32  44  -8 11.2840 4.85623   2
  -1  45   1-9.97608 14.4851   4
   1  45   1 6.93673 14.2876   4
  -1  45  -1 5.13182 14.1884   4
   1  45  -1 4.03335 14.0980   4
  -3  45   1 21.1891 13.3515   4
  -1  45   3 17.6055 14.1229   4
  -3  45  -1 4.56649 13.3959   4
   1  45   3 16.7617 15.3241   4
   3  45   1 16.8875 14.8641   4
  -1  45  -3 10.0558 13.9351   4
   3  45  -1 11.8554 15.4438   4
   1  45  -3 11.9127 14.3103   4
  -3  45   3 15.1300 13.8275   4
   3  45   3-3.72861 16.3016   4
  -3  45  -3-2.61010 12.6102   4
   3  45  -3 4.02821 14.1122   4
  -5  45   1-2.20960 12.6243   4
  -1  45   5-5.19735 15.1460   4
  -5  45  -1-7.94848 12.8372   4
   1  45   5-7.32309 14.2532   4
   5  45   1 6.19773 16.2325   4
  -1  45  -5 0.37717 13.2270   4
   5  45  -1-2.45703 15.8686   4
   1  45  -5-12.0208 13.5307   4
  -5  45   3 831.495 33.6726   4
  -3  45   5 847.381 34.5325   4
  -5  45  -3 814.867 33.4959   4
   3  45   5 853.363 35.6710   4
   5  45   3 853.794 35.3827   4
  -3  45  -5 817.372 33.4570   4
   5  45  -3 814.625 35.3239   4
   3  45  -5 845.235 34.9188   4
  -5  45   5 3.75094 13.6604   4
  -5  45  -5-0.34130 11.9330   4
   5  45   5 8.21779 15.7449   4
   5  45  -5 2.39076 15.0334   4
  -7  45   1 1948.75 70.8393   4
  -1  45   7 2091.20 72.2218   4
  -7  45  -1 1896.99 70.7080   4
   1  45   7 2059.39 72.1269   4
   7  45   1 1990.37 72.5116   4
  -1  45  -7 1913.96 71.2062   4
   7  45  -1 1993.92 72.3191   4
   1  45  -7 2005.28 71.6442   4
  -7  45   3 947.799 37.7343   4
  -3  45   7 1021.83 38.9588   4
  -7  45  -3 910.342 37.1370   4
   3  45   7 967.717 39.6016   4
  -3  45  -7 966.152 37.6399   4
   7  45  -3 991.467 39.3470   4
   3  45  -7 986.090 38.6705   4
  -7  45   5 427.672 21.3849   4
  -5  45   7 425.850 22.1089   4
  -7  45  -5 399.202 19.6940   4
  -5  45  -7 400.620 20.1621   4
   7  45  -5 428.444 23.1591   4
   5  45  -7 414.518 22.7108   4
  -7  45   7-11.5336 12.1037   4
  -7  45  -7-3.86023 10.1149   4
   7  45  -7 15.1423 15.1526   4
  -9  45   1 93.4281 12.3675   4
  -9  45  -1 104.715 11.9437   4
  -1  45   9 106.991 16.5885   4
   1  45   9 115.041 17.1094   4
  -1  45  -9 97.2669 13.5338   4
   1  45  -9 113.308 14.1235   4
  -9  45   3 95.1710 12.2604   4
  -3  45   9 66.4399 15.4217   4
  -9  45  -3 67.9026 11.0211   4
   3  45   9 90.1234 16.6120   4
  -3  45  -9 103.621 12.4293   4
   9  45  -3 94.3455 16.9280   4
   3  45  -9 91.4499 14.2526   4
  -9  45   5 142.538 13.5832   4
  -5  45   9 154.492 16.3199   4
  -9  45  -5 136.729 11.5638   4
  -5  45  -9 130.200 12.6635   4
   9  45  -5 157.794 17.5534   4
   5  45  -9 146.889 15.7969   4
  -9  45   7 5674.85 191.002   4
  -7  45   9 5814.51 191.452   4
  -9  45  -7 5325.31 189.939   4
  -7  45  -9 5292.79 190.098   4
   9  45   7 5548.51 191.761   4
   9  45  -7 5741.23 191.652   4
   7  45  -9 5813.98 191.628   4
  -9  45   9 8.78714 12.4490   4
  -9  45  -9 8.27496 7.84452   4
   9  45   9 4.56923 15.1790   4
   9  45  -9-0.74421 14.7098   4
 -11  45   1 1031.48 39.6856   4
 -11  45  -1 1019.09 39.3587   4
  -1  45  11 1055.38 41.8722   4
   1  45  11 1049.32 42.1765   4
  -1  45 -11 1137.71 40.6617   4
   1  45 -11 1093.43 40.7730   4
 -11  45   3 158.418 12.8575   4
  -3  45  11 156.836 16.8625   4
 -11  45  -3 138.681 11.3599   4
  11  45   3 164.836 17.8103   4
  -3  45 -11 167.737 12.9783   4
   3  45 -11 150.517 14.9585   4
 -11  45   5 47.8460 11.3194   4
  -5  45  11 18.2038 13.9923   4
 -11  45  -5 26.5195 8.72486   4
  11  45   5 4.26789 15.6704   4
  -5  45 -11 28.6712 9.86134   4
  11  45  -5 36.9871 15.5351   4
   5  45 -11 51.7490 13.2562   4
  -7  45  11 2228.25 77.5357   4
   7  45  11 2146.74 77.9841   4
  -7  45 -11 2007.45 75.7035   4
  11  45   7 2244.89 78.0920   4
  11  45  -7 2335.27 78.0919   4
   7  45 -11 2180.44 77.7483   4
   9  45  11 126.285 15.9430   4
  11  45   9 103.795 14.7394   4
  11  45  -9 76.3677 15.5772   4
   9  45 -11 113.246 15.3472   4
  11  45  11-13.3942 14.1410   4
  11  45 -11-0.35393 14.0630   4
 -13  45  -1 1661.00 64.0926   4
  -1  45  13 1922.66 66.9638   4
   1  45  13 1904.87 66.9944   4
  13  45   1 1902.17 66.9953   4
  13  45  -1 1826.45 66.8695   4
  -1  45 -13 1885.22 65.4938   4
   1  45 -13 1855.72 65.6392   4
 -13  45  -3 1675.42 63.4571   4
  -3  45  13 2028.47 66.4222   4
  13  45   3 1864.81 66.5551   4
  -3  45 -13 1812.40 64.6520   4
   3  45 -13 1884.20 65.5601   4
  -5  45  13 123.750 15.2901   4
  13  45   5 124.819 16.4180   4
  -5  45 -13 127.866 10.6881   4
 -13  45   5 121.206 9.55713   2
   5  45 -13 110.853 13.9913   4
   7  45  13 498.921 24.1345   4
  -7  45 -13 449.421 19.1586   4
  13  45   7 499.465 23.9912   4
   7  45 -13 481.475 22.9910   4
   9  45  13 3257.23 115.111   4
  13  45   9 3303.89 115.056   4
  13  45  -9 3240.75 115.120   4
   9  45 -13 3351.61 114.900   4
  11  45  13 930.480 36.6113   4
  13  45  11 926.507 36.3788   4
  13  45 -11 921.565 36.6519   4
  11  45 -13 885.969 36.2151   4
  13  45 -13 0.66071 13.1579   4
  13  45  13-5.41863 12.4671   4
 -45  15   1 28.2752 11.5251   2
 -45  15  -1 17.3939 10.5413   2
  -1  45  15 34.3146 15.2086   4
  15  45   1 23.5868 14.3432   4
  15  45  -1 14.9637 14.6259   4
  -1  45 -15 22.3113 10.2552   4
   1  45 -15 37.3775 11.1354   4
 -45  15  -3 277.519 15.3762   2
  -3  45  15 318.952 18.7397   4
  15  45   3 302.143 18.6865   4
  -3  45 -15 288.087 14.8430   4
   3  45 -15 266.253 16.6661   4
  15  45  -3 280.593 18.9570   4
 -45  15  -5 85.7338 9.72535   2
   5  45  15 93.2601 15.1765   4
  15  45   5 108.978 14.9432   4
 -15  45   5 74.8568 9.08643   2
  -5  45 -15 83.0240 8.84162   4
   5  45 -15 94.8781 12.9230   4
 -45  15  -7 13.2173 7.40406   2
   7  45  15 7.35810 13.8072   4
  15  45   7 5.81571 13.2548   4
   7  45 -15 5.21342 12.7589   4
   9  45 -15 114.291 13.8805   4
   9  45  15 107.594 14.9651   4
  15  45   9 104.535 14.0394   4
  11  45 -15 189.232 15.5628   4
  11  45  15 200.037 15.5834   4
  15  45  11 186.305 14.7820   4
  15  45 -13-2.85110 13.1257   4
  13  45 -15-8.13161 12.5267   4
  13  45  15 7.17358 11.7073   4
  15  45  13-4.71868 11.5745   4
  15  45 -15 1.19680 12.1486   4
  15  45  15 6.02414 10.6460   4
 -45  17   1 1781.18 63.6617   2
 -45  17  -1 1768.33 63.4050   2
  17  45   1 1890.04 64.5620   4
  17  45  -1 1793.17 64.5586   4
  -1  45 -17 1754.70 62.7394   4
   1  45 -17 1698.32 63.0088   4
 -45  17   3 935.720 35.4839   2
 -45  17  -3 889.175 34.5076   2
  17  45   3 953.325 36.3206   4
  -3  45 -17 841.870 33.4598   4
  17  45  -3 986.681 36.5891   4
   3  45 -17 916.333 34.7939   4
   5  45  17 28.9505 13.8705   4
 -45  17  -5 31.5880 9.04537   2
 -17  45   5 24.7185 8.75250   2
  17  45   5 8.89276 12.7935   4
  17  45  -5 27.8820 14.0132   4
   5  45 -17 9.82165 11.0846   4
 -45  17  -7 1107.21 42.0943   2
   7  45  17 1297.89 44.6274   4
  17  45   7 1312.10 44.5306   4
  17  45  -7 1266.90 44.9059   4
   7  45 -17 1260.59 43.9568   4
 -17  45   7 1032.24 41.9330   2
   9  45  17 1137.23 43.7066   4
  17  45   9 1189.71 43.3483   4
   9  45 -17 1137.45 43.2370   4
  11  45  17 229.744 16.1232   4
  17  45  11 272.318 15.3699   4
  11  45 -17 255.765 16.0807   4
  13  45  17 259.910 15.5435   4
  17  45  13 279.178 15.3091   4
  13  45 -17 287.427 16.6035   4
  15  45 -17 14.4616 11.7673   4
  17  45  15 13.7781 9.37460   4
  17  45 -17-4.44034 10.9177   4
 -45  19   1 290.238 15.4349   2
 -45  19  -1 265.869 15.1656   2
  19  45   1 302.168 16.7157   4
  19  45  -1 270.437 17.0566   4
  -1  45 -19 230.218 13.1760   4
   1  45 -19 226.999 13.7220   4
 -45  19   3 914.368 33.1971   2
 -45  19  -3 879.676 32.2661   2
 -19  45   3 862.220 31.9813   2
  19  45   3 899.758 33.4825   4
  19  45  -3 965.013 33.9222   4
   3  45 -19 823.774 32.0649   4
 -45  19  -5 38.6657 9.05552   2
 -19  45   5 27.5420 8.69203   2
  19  45   5 19.2095 11.6369   4
   5  19 -45 21.4810 7.51499   4
  19  45  -5 26.6243 12.3744   4
   5  45 -19 38.8880 10.2712   4
 -45  19  -7 385.933 17.4139   2
  19  45   7 431.049 19.5803   4
   7  19 -45 393.203 17.6887   4
  19  45  -7 434.802 20.9912   4
 -19  45   7 396.236 17.2252   2
   7  45 -19 432.254 19.3822   4
  19  45   9 561.476 20.8397   4
   9  19 -45 500.683 19.8391   4
  19  45  -9 540.062 21.9796   4
   9  45 -19 549.646 21.1693   4
  19  45  11 954.452 34.9084   4
  11  19 -45 903.747 34.7741   4
  19  45 -11 933.180 35.7415   4
  11  45 -19 911.264 35.3961   4
  13  45 -19 5.32117 10.9250   4
  19  45  13 13.6091 8.93186   4
  13  19 -45 0.25316 9.83449   4
  15  45 -19 11.9189 10.5423   4
  19  45  15 2.85344 7.91647   4
  15  19 -45 11.3589 9.70032   4
  17  45 -19 173.345 12.2696   4
  17  19 -45 149.432 11.6854   4
  19  19 -45 4.14025 8.68353   4
 -45  21   1 20.6753 10.5909   2
 -45  21  -1 17.4685 10.0378   2
  21  45   1 8.56144 10.6996   4
  21  45  -1 5.78944 11.0479   4
  -1  45 -21 15.5657 6.47717   4
   1  45 -21 18.0092 7.98981   4
 -45  21   3 110.307 12.2406   2
 -45  21  -3 91.7676 10.6198   2
 -21  45   3 94.9519 10.2919   2
  21  45   3 109.061 12.0324   4
  21  45  -3 92.2712 12.6047   4
   3  45 -21 87.9798 9.59229   4
 -21  45   5 17.8344 8.57037   2
 -45  21  -5 11.5557 8.52007   2
  21  45   5 3.72077 10.0917   4
  21  45  -5 17.6466 11.9722   4
   5  45 -21 3.56740 8.94503   4
 -45  21  -7 884.085 34.0777   2
   7  21 -45 814.765 33.5983   4
  21  45   7 1052.85 35.2403   4
 -21  45   7 893.103 33.7997   2
  21  45  -7 1081.26 36.0732   4
   7  45 -21 1031.19 35.1267   4
 -45  21  -9 165.015 9.71704   2
 -21  45   9 155.294 9.52352   2
  21  45   9 219.524 12.3533   4
   9  21 -45 211.582 10.8650   4
  21  45  -9 224.236 14.0813   4
   9  45 -21 208.671 12.8829   4
  11  45 -21 146.320 11.7946   4
  21  45  11 143.510 10.4620   4
  11  21 -45 144.882 10.4829   4
  21  45 -11 115.238 12.8435   4
  21  45  13 863.127 33.0590   4
  13  21 -45 879.774 33.7135   4
  21  45 -13 965.019 34.7085   4
  13  45 -21 967.820 34.2441   4
  15  45 -21 11.0642 9.44211   4
  15  21 -45 7.24728 8.08956   4
  21  45 -15 19.1179 10.0459   4
  17  21 -45 557.338 22.8515   4
  17  45 -21 620.211 23.3566   4
  19  21 -45 386.589 17.7482   4
  21  19 -45 439.096 18.2387   4
  21  21 -45-3.70546 6.32274   4
 -45  23   1 249.397 13.8717   2
 -45  23  -1 238.880 13.5846   2
 -23  45   1 230.118 13.3074   2
  23  45   1 253.007 13.7104   4
  23  45  -1 255.002 14.0625   4
   1  45 -23 185.404 10.6241   4
 -23  45   3 313.286 14.7928   2
 -45  23   3 334.123 16.0573   2
 -45  23  -3 318.892 15.1340   2
  23  45   3 305.844 15.3026   4
  23  45  -3 336.859 16.1297   4
   3  45 -23 247.683 13.2191   4
 -23  45   5 54.6164 8.28557   2
 -45  23  -5 71.2799 8.75885   2
  23  45   5 65.4425 9.42903   4
  23  45  -5 61.5661 10.4909   4
   5  45 -23 66.3100 8.54618   4
 -45  23  -7 831.613 31.1611   2
  23  45   7 1035.38 31.8867   4
 -23  45   7 878.839 31.0977   2
  23  45  -7 1055.99 33.0544   4
   7  45 -23 977.836 31.7067   4
 -45  23  -9 372.973 16.2195   2
   9  23 -45 412.184 16.5217   4
  23  45   9 477.678 17.4111   4
  23  45  -9 536.293 19.4458   4
   9  45 -23 485.631 18.0589   4
  23  45  11 669.958 27.6666   4
  11  23 -45 720.502 27.8181   4
  23  45 -11 896.968 29.6429   4
  11  45 -23 859.076 28.9397   4
  13  23 -45 743.120 29.1317   4
  23  45 -13 886.915 30.4400   4
  15  45 -23 72.2879 8.57880   4
  15  23 -45 58.7862 7.38172   4
  23  45 -15 93.9814 9.23741   4
  17  23 -45 702.698 28.6494   4
  23  17 -45 811.892 29.6201   4
  23  45 -17 823.911 29.3521   4
  17  45 -23 855.195 29.2558   4
  19  23 -45 7.25874 5.59736   4
  23  19 -45 20.3212 6.79860   4
  23  45 -19 18.3795 6.45852   4
  19  45 -23 20.3125 6.41189   4
  21  23 -45 88.8945 6.08032   4
  23  21 -45 95.2592 6.49872   4
  23  45 -21 111.929 6.81818   4
  21  45 -23 89.8894 6.50410   4
 -45  25   1 22.2299 9.28884   2
 -25  45   1 9.36331 8.47264   2
  25  45   1 7.18819 7.76459   4
 -25  45  -1-0.93103 8.87921   2
  25  45  -1 9.38729 8.28288   4
 -25  45   3 13.5179 7.83538   2
 -45  25   3-3.11621 9.14321   2
 -45  25  -3 5.74256 7.87830   2
  25  45   3 3.08555 7.57125   4
  25  45  -3 4.78386 8.48689   4
   3  45 -25 7.81189 5.05740   4
 -25  45   5 4.16664 7.24887   2
 -45  25  -5 2.52127 7.05719   2
  25  45   5 1.77091 6.86877   4
  25  45  -5 2.61002 8.38328   4
   5  45 -25 12.2756 5.89284   4
 -45  25  -7 26.8340 6.55711   2
  25  45   7 29.8353 6.27908   4
 -25  45   7 18.5893 6.17412   2
  25  45  -7 37.5921 8.78473   4
   7  45 -25 27.3258 6.63882   4
 -45  25  -9 37.2099 5.20325   2
  25  45   9 43.6339 5.26265   4
 -25  45   9 41.4154 5.21168   2
  25  45  -9 45.0399 8.69001   4
   9  45 -25 36.3137 6.97799   4
  11  25 -45 9.84549 4.58233   4
  25  45 -11 4.77704 7.87190   4
  11  45 -25 5.32489 6.70860   4
  13  25 -45 4.24828 4.70629   4
  25  45 -13 2.23195 7.26003   4
  13  45 -25 5.65449 6.23397   4
  15  25 -45 5.16071 4.75865   4
  25  15 -45-3.63088 7.14134   4
  25  45 -15 6.43341 6.71335   4
  15  45 -25-1.40118 5.73689   4
  25  17 -45 23.8363 6.67088   4
  25  45 -17 22.4736 6.03314   4
  17  45 -25 27.6509 5.67097   4
  25  19 -45 73.7830 5.97845   4
  25  45 -19 79.6328 5.56927   4
  19  45 -25 67.2719 5.30791   4
 -27  45   1 6.17494 7.16325   2
 -45  27   1 8.55433 7.81109   2
 -45  27  -1 3.90610 7.43367   2
 -27  45  -1 6.08707 7.52179   2
  27  45   1 4.76153 5.70643   4
  27  45  -1 1.77070 6.20002   4
 -27  45  -3 223.992 11.8433   2
 -45  27  -3 211.233 10.6561   2
  27  45   3 162.121 8.95502   4
  27  45  -3 219.675 10.3071   4
 -27  45   3 203.044 10.4885   2
 -45  27  -5 24.1519 6.46592   2
  27  45   5 18.5792 4.25857   4
  27  45  -5 35.1618 7.00065   4
 -27  45  -5 35.4221 8.47888   2
 -27  45   5 25.2957 5.99091   2
 -45  27  -7 201.519 9.70362   2
 -27  45   7 198.810 9.56904   2
  27  45  -7 257.505 10.7692   4
   7  45 -27 186.339 9.01210   4
 -27  45  -7 265.221 12.2145   2
  27  45  -9 461.709 16.3346   4
   9  45 -27 359.574 15.1098   4
  27  45 -11 601.880 20.5986   4
  11  45 -27 496.626 19.8073   4
  27  45 -13 391.245 14.2485   4
  13  45 -27 321.437 13.4792   4
  27  45 -15 19.7101 4.68012   4
  15  45 -27 21.9234 4.17179   4
 -29  45  -1 115.809 8.08809   2
 -45  29  -1 130.764 8.04495   2
 -29  45   1 117.845 8.04624   2
 -29  45  -3 218.563 10.5647   2
 -45  29  -3 196.247 9.61770   2
 -29  45   3 197.168 9.61621   2
 -45  29  -5 12.9050 4.66049   2
 -29  45  -5 6.85584 6.67307   2
 -29  45   5 4.51565 4.56706   2
 -29  45  -7 1237.31 43.7273   2
 -29  45  -9 172.331 9.25871   2
 -29  45 -11 104.123 6.88802   2
  29  11 -45 89.7880 6.87873   4
 -29  45 -13 714.822 23.5143   2
  29  13 -45 589.711 23.3001   4
 -31  45  -1 207.028 9.14715   2
 -31  45  -3 32.2683 5.00869   2
 -31  45  -5 146.272 7.48489   2
 -31  45  -7 58.9290 5.14629   2
   0  46   0 1362.15 51.4291   4
  -2  46   0 1364.80 51.8330   4
   0  46   2 1416.23 52.4418   4
   2  46   0 1427.91 52.3257   4
   0  46  -2 1349.60 52.0895   4
  -2  46   2 988.004 39.8916   4
  -2  46  -2 1075.11 39.6348   4
   2  46   2 965.289 40.2824   4
   2  46  -2 1019.45 40.2005   4
  -4  46   0 621.996 27.3453   4
   0  46   4 646.334 28.8669   4
   4  46   0 647.049 28.9715   4
   0  46  -4 610.396 27.8468   4
  -4  46   2 1973.96 70.4307   4
  -2  46   4 1935.40 70.7864   4
  -4  46  -2 1925.66 70.1621   4
   2  46   4 1890.67 71.2036   4
   4  46   2 2018.01 71.4624   4
  -2  46  -4 2016.16 70.4263   4
   4  46  -2 1940.62 71.1466   4
   2  46  -4 1973.00 70.8837   4
  -4  46   4 1554.36 57.5123   4
  -4  46  -4 1522.95 57.1059   4
   4  46   4 1606.95 58.3870   4
   4  46  -4 1601.86 58.1376   4
  -6  46   0 95.3555 12.2472   4
   0  46   6 63.1576 15.1149   4
   6  46   0 75.1230 15.3461   4
   0  46  -6 83.7998 13.7180   4
  -6  46   2 573.070 25.1398   4
  -2  46   6 579.961 26.1721   4
  -6  46  -2 540.266 24.3506   4
   2  46   6 577.819 27.0553   4
   6  46   2 561.344 27.1348   4
  -2  46  -6 569.584 25.2226   4
   6  46  -2 555.135 26.6742   4
   2  46  -6 574.724 25.7829   4
  -6  46   4 233.183 15.9481   4
  -4  46   6 230.517 17.0038   4
  -6  46  -4 220.795 14.4699   4
   4  46   6 217.116 18.6046   4
  -4  46  -6 171.302 14.4475   4
   6  46   4 196.810 18.0292   4
   6  46  -4 208.851 17.9008   4
   4  46  -6 196.691 16.8542   4
  -6  46   6 93.0349 13.6317   4
  -6  46  -6 55.0787 10.9101   4
   6  46  -6 82.3683 15.0188   4
  -8  46   0 229.088 14.6929   4
   0  46   8 222.162 18.1440   4
   8  46   0 226.339 18.8757   4
   0  46  -8 222.375 16.0769   4
  -8  46   2 149.543 13.5871   4
  -2  46   8 164.708 15.8551   4
  -8  46  -2 142.378 12.5644   4
   2  46   8 157.063 17.0082   4
  -2  46  -8 140.932 13.5711   4
   8  46  -2 191.914 17.4319   4
   2  46  -8 170.941 15.3995   4
  -8  46   4 15.8022 11.6494   4
  -4  46   8 9.71329 13.2505   4
  -8  46  -4 23.2846 9.71035   4
   4  46   8 1.88702 14.9148   4
  -4  46  -8 8.86762 10.6979   4
   8  46  -4 19.5816 14.9053   4
   4  46  -8 22.8993 13.3744   4
  -8  46   6 36.3090 12.3557   4
  -6  46   8 50.8058 12.7733   4
  -8  46  -6 47.1864 9.66755   4
  -6  46  -8 51.1399 10.0481   4
   8  46  -6 39.4655 15.1121   4
   6  46  -8 56.1425 14.4054   4
  -8  46   8 533.657 22.7333   4
  -8  46  -8 449.234 20.0657   4
   8  46  -8 491.352 24.0010   4
 -10  46   0 306.437 15.9402   4
   0  46  10 310.847 19.9198   4
   0  46 -10 298.388 17.2018   4
 -10  46   2 443.677 20.9247   4
 -10  46  -2 453.323 20.3080   4
  -2  46  10 514.266 23.6323   4
   2  46  10 490.620 24.1885   4
  -2  46 -10 464.882 21.4891   4
   2  46 -10 497.966 22.6741   4
 -10  46   4 179.256 13.4461   4
  -4  46  10 192.725 15.9633   4
 -10  46  -4 152.503 11.2399   4
  -4  46 -10 171.878 12.8894   4
  10  46  -4 205.810 17.4288   4
   4  46 -10 190.785 15.5178   4
 -10  46   6 23.6447 10.7158   4
  -6  46  10 28.9712 13.2485   4
 -10  46  -6 19.8162 7.56806   4
  -6  46 -10 27.4311 9.11366   4
  10  46   6 25.5886 14.8783   4
  10  46  -6 10.5089 14.6036   4
   6  46 -10 23.1369 13.3786   4
   8  46  10 16.3081 14.3356   4
  -8  46 -10 26.5722 7.67440   4
  10  46   8 19.5342 14.4799   4
  10  46  -8 8.44217 14.1221   4
   8  46 -10 28.5438 13.5980   4
  10  46  10 267.790 18.1091   4
  10  46 -10 266.982 17.6361   4
 -12  46   0 7.67442 8.03384   4
   0  46  12 7.22701 14.6618   4
   0  46 -12 37.1485 11.2397   4
 -12  46  -2 203.278 12.1465   4
   2  46  12 266.711 17.9877   4
  -2  46  12 244.249 17.6282   4
  -2  46 -12 247.596 14.3732   4
  12  46   2 213.807 18.0757   4
   2  46 -12 229.889 15.1314   4
  -4  46  12 1225.26 44.3690   4
  12  46   4 1175.92 44.5259   4
  -4  46 -12 1072.13 42.0247   4
   4  46 -12 1186.57 43.5712   4
  -6  46 -12 29.4892 8.02690   4
  12  46   6 15.4447 14.3277   4
   6  46 -12 39.1303 12.8805   4
   8  46  12 1732.92 60.1317   4
  12  46   8 1616.76 59.8799   4
  12  46  -8 1597.29 60.0169   4
   8  46 -12 1609.91 59.5372   4
  10  46  12 21.4039 13.5953   4
  12  46  10-2.92944 12.9925   4
  12  46 -10 8.53453 13.1504   4
  10  46 -12 19.9676 12.9223   4
  12  46  12 22.1199 12.5028   4
  12  46 -12 4.70352 12.1984   4
   0  46  14 1828.48 64.5416   4
  14  46   0 1746.84 64.4116   4
   0  46 -14 1747.21 63.0877   4
  -2  46  14 29.1720 14.1718   4
  14  46   2 27.3617 13.7897   4
  -2  46 -14 22.9515 9.44246   4
  14  46  -2 19.4963 14.0957   4
   2  46 -14 6.51191 10.7804   4
 -14  46   4-2.58150 7.39978   2
  14  46   4-5.47676 13.1933   4
  -4  46 -14 2.09415 7.80146   4
   4  46 -14-12.1741 11.5646   4
   6  46  14 759.091 28.7013   4
  14  46   6 697.827 28.0305   4
   6  46 -14 712.268 27.0248   4
   8  46  14 104.167 14.5537   4
  14  46   8 100.129 14.3714   4
   8  46 -14 120.074 12.8215   4
  10  46  14 938.943 35.4999   4
  14  46  10 879.963 35.2179   4
  14  46 -10 860.310 35.3836   4
  10  46 -14 915.932 35.2772   4
  12  46  14 478.578 22.4053   4
  14  46  12 508.221 22.5626   4
  14  46 -12 516.628 22.8337   4
  12  46 -14 483.642 22.7346   4
  14  46  14 947.817 35.4505   4
  14  46 -14 905.262 35.8483   4
  16  46   0 507.935 22.3953   4
   0  46 -16 413.936 19.4921   4
  16  46   2 1339.92 46.7298   4
  -2  46 -16 1169.04 44.4761   4
  16  46  -2 1294.18 46.8906   4
   2  46 -16 1215.83 45.2514   4
 -16  46   4 986.195 37.2575   2
  16  46   4 1165.63 39.8347   4
  -4  46 -16 957.347 36.9421   4
   4  16 -46 924.943 36.9375   4
  16  46  -4 1230.34 40.3962   4
   4  46 -16 1158.10 38.8536   4
   6  46  16 1075.92 39.2563   4
  16  46   6 1019.19 39.0321   4
  16  46  -6 1034.14 39.4683   4
   6  46 -16 944.904 38.1603   4
   8  46  16-0.61633 12.5750   4
  16  46   8 7.38546 11.6013   4
   8  46 -16 1.71335 11.2921   4
  10  46  16 194.286 14.4112   4
  16  46  10 180.482 13.7321   4
  10  46 -16 157.882 13.6658   4
  12  46  16 1467.57 52.7814   4
  16  46  12 1437.59 52.5056   4
  12  46 -16 1465.19 52.7881   4
  14  46  16 226.056 13.4755   4
  16  46  14 221.712 13.5533   4
  16  46 -14 221.538 14.6991   4
  14  46 -16 233.080 14.6836   4
  16  46 -16 507.542 21.9526   4
  18  46   0 1330.67 45.6628   4
   0  46 -18 1150.51 43.6415   4
  18  46   2 112.047 13.4917   4
  -2  46 -18 104.409 8.85312   4
 -18  46   2 116.523 9.81599   2
  18  46  -2 128.009 13.9207   4
   2  46 -18 124.139 10.5910   4
 -18  46   4 478.478 21.1582   2
  18  46   4 577.476 23.7420   4
  18  46  -4 559.707 24.3279   4
   4  46 -18 568.593 22.4432   4
 -18  46   6 78.0359 7.46685   2
  18  46   6 111.871 12.3248   4
   6  18 -46 70.0419 8.00610   4
  18  46  -6 111.780 13.5412   4
   6  46 -18 78.8229 10.8206   4
  18  46   8 49.8466 10.9844   4
   8  18 -46 72.5365 8.85005   4
  18  46  -8 45.4959 12.2270   4
   8  46 -18 67.1082 10.8227   4
  18  46  10 247.997 13.7916   4
  10  18 -46 200.674 12.6993   4
  18  46 -10 217.627 14.8123   4
  10  46 -18 246.716 14.2006   4
  18  46  12 135.200 11.0815   4
  12  18 -46 145.669 11.3000   4
  12  46 -18 151.806 12.4128   4
  18  46  14 3.75500 7.94752   4
  14  46 -18 18.0830 10.2156   4
  16  18 -46 810.388 31.6599   4
  16  46 -18 889.014 32.0598   4
  18  18 -46 20.0232 8.58684   4
  18  46 -18 7.68671 8.47900   4
  20  46   0 364.110 16.9094   4
   0  46 -20 272.188 13.1337   4
 -46  20  -2 55.1830 9.28899   2
 -20  46   2 37.5009 8.26925   2
  20  46   2 66.8070 11.4701   4
  20  46  -2 55.7552 11.8503   4
   2  46 -20 53.8892 7.96550   4
 -20  46   4 253.942 13.1326   2
 -46  20  -4 239.829 12.9730   2
  20  46   4 303.169 15.2952   4
  20  46  -4 320.158 16.4759   4
   4  46 -20 282.302 13.7262   4
 -46  20  -6 150.729 9.77606   2
  20  46   6 217.338 12.6593   4
 -20  46   6 154.009 9.24727   2
  20  46  -6 221.573 13.6206   4
   6  46 -20 180.583 11.6359   4
  20  46   8 26.9069 9.39407   4
   8  20 -46 24.4496 6.52141   4
  20  46  -8 1.06714 10.7478   4
   8  46 -20 19.4209 9.33811   4
  20  46  10 4.34131 8.34195   4
  10  20 -46-5.00718 7.41805   4
  20  46 -10-0.76996 10.4146   4
  10  46 -20 0.22978 9.00366   4
  20  46  12 74.7052 8.35761   4
  12  20 -46 48.5194 7.97763   4
  20  46 -12 86.5528 10.8164   4
  12  46 -20 66.7007 9.51469   4
  14  20 -46 94.8241 8.80514   4
  20  46 -14 103.833 10.4587   4
  14  46 -20 121.712 10.2347   4
  16  20 -46 96.6324 8.50208   4
  16  46 -20 97.7322 9.26568   4
  18  20 -46 175.430 10.0660   4
  20  18 -46 174.098 10.3848   4
  18  46 -20 199.317 10.7022   4
  20  20 -46 110.018 7.74418   4
 -22  46   0 328.280 15.8224   2
  22  46   0 353.942 16.5190   4
 -46  22  -2 55.8621 8.47452   2
 -22  46   2 67.4227 8.63047   2
  22  46   2 61.0815 9.73728   4
  22  46  -2 74.6779 10.3328   4
   2  46 -22 32.4839 6.49928   4
 -22  46   4 50.0254 7.10111   2
 -46  22  -4 60.0916 7.78125   2
  22  46   4 62.4327 9.43216   4
  22  46  -4 60.7992 10.4574   4
   4  46 -22 71.1676 7.52255   4
 -46  22  -6 353.039 16.0155   2
  22  46   6 466.602 17.4979   4
 -22  46   6 349.440 15.8885   2
  22  46  -6 499.635 18.8936   4
   6  46 -22 429.404 17.0466   4
   8  22 -46 90.6842 6.23026   4
  22  46   8 111.666 8.98709   4
 -22  46   8 76.8624 5.94018   2
  22  46  -8 129.341 10.8601   4
   8  46 -22 109.039 8.91136   4
  22  46  10-1.91540 6.77358   4
  10  22 -46 0.14860 5.12563   4
  22  46 -10 4.10402 9.52939   4
  10  46 -22-6.51764 7.85885   4
  12  22 -46 2.17695 5.51792   4
  22  46 -12-7.32646 9.24395   4
  12  46 -22 0.19276 7.72645   4
  14  22 -46 40.3464 6.35966   4
  14  46 -22 43.4879 7.79746   4
  16  22 -46 23.9687 5.84096   4
  22  16 -46 33.7559 7.74445   4
  22  46 -16 25.0866 7.37019   4
  16  46 -22 27.4581 6.81298   4
  18  22 -46 183.473 9.61795   4
  22  18 -46 230.159 10.6728   4
  22  46 -18 241.879 10.8066   4
  18  46 -22 225.039 10.2935   4
  22  20 -46 79.2286 5.85532   4
  20  46 -22 91.6996 6.24850   4
 -24  46   0 24.9210 7.63259   2
  24  46   0 20.0627 8.04176   4
 -46  24  -2 862.163 33.1013   2
 -24  46  -2 924.208 33.5972   2
  24  46   2 964.994 33.3969   4
  24  46  -2 958.765 33.7815   4
 -24  46   2 866.282 33.0731   2
 -46  24  -4 970.571 35.1441   2
  24  46   4 1091.76 35.5060   4
  24  46  -4 1249.30 36.3437   4
 -24  46   4 1000.95 35.1123   2
   4  46 -24 810.036 34.3040   4
  24  46   6 133.342 8.02404   4
 -24  46   6 104.705 7.22429   2
   6  46 -24 120.908 7.78422   4
  24  46  -6 151.013 10.1916   4
  24  46   8 21.6916 5.44679   4
  24  46  -8 15.3580 8.26839   4
   8  46 -24 27.2074 6.10543   4
  24  46 -10 112.451 9.10706   4
  10  46 -24 92.1035 7.59060   4
  24  46 -12 174.458 10.1218   4
  12  46 -24 161.439 9.15347   4
  24  46 -14 341.954 13.8303   4
  14  46 -24 299.470 13.1725   4
  24  16 -46 341.486 13.6210   4
  24  46 -16 309.049 12.9322   4
  16  46 -24 294.492 12.6998   4
  24  18 -46 466.051 17.4943   4
  24  46 -18 481.350 17.4939   4
  18  46 -24 458.097 17.2629   4
 -26  46   0 19.6466 6.66937   2
  26  46   0 11.2131 5.58740   4
 -26  46  -2 710.051 23.8803   2
  26  46  -2 655.688 23.3253   4
 -26  46   2 621.909 23.1281   2
 -26  46  -4 1115.67 33.5211   2
 -26  46   4 883.409 32.3662   2
  26  46  -4 1042.49 33.0370   4
 -26  46   6 41.3952 4.68249   2
  26  46  -6 50.9939 6.90236   4
 -26  46  -6 62.5821 7.65048   2
  26  46  -8 103.577 7.79949   4
 -26  46  -8 104.434 8.43743   2
  26  46 -10 14.3233 5.79719   4
  10  46 -26 11.3731 4.19704   4
  26  46 -12 359.926 13.2248   4
  12  46 -26 294.884 12.3857   4
  26  46 -14 101.035 6.30052   4
  26  16 -46 628.505 22.6275   4
 -28  46   0 368.563 14.5929   2
 -28  46   2 100.154 6.29104   2
 -28  46  -2 113.997 7.14152   2
 -28  46  -4 25.3994 5.84054   2
 -28  46  -6 420.739 16.4570   2
 -28  46  -8 25.7921 5.56226   2
 -28  46 -10 211.715 9.60284   2
  -1  47   1 9.09301 12.6715   4
  -1  47  -1-0.69143 12.8131   4
   1  47   1-7.54738 13.5156   4
   1  47  -1 6.06372 13.5298   4
  -3  47   1 471.809 22.6940   4
  -1  47   3 501.892 23.2441   4
  -3  47  -1 498.796 22.5001   4
   1  47   3 477.718 23.7495   4
  -1  47  -3 466.870 22.7731   4
   3  47   1 471.614 23.9786   4
   3  47  -1 451.632 23.8383   4
   1  47  -3 501.938 23.3718   4
  -3  47   3 5.77670 12.4038   4
  -3  47  -3 0.32257 11.5055   4
   3  47   3 3.27908 14.2562   4
   3  47  -3-0.71193 13.2137   4
  -5  47   1 126.143 13.4824   4
  -1  47   5 137.696 15.3978   4
  -5  47  -1 128.341 12.9386   4
   1  47   5 149.571 15.3621   4
   5  47   1 137.627 16.3222   4
  -1  47  -5 154.000 13.9778   4
   5  47  -1 144.562 15.7973   4
   1  47  -5 139.502 14.6696   4
  -5  47   3 172.431 14.3628   4
  -3  47   5 143.044 14.8143   4
  -5  47  -3 145.244 12.9336   4
   3  47   5 159.876 16.1403   4
  -3  47  -5 144.932 13.3619   4
   5  47   3 127.774 16.1288   4
   5  47  -3 144.771 16.3587   4
   3  47  -5 163.391 15.0514   4
  -5  47   5 15.4388 12.2694   4
  -5  47  -5-2.88569 10.1875   4
   5  47   5-1.44068 14.5523   4
   5  47  -5-4.89060 13.2449   4
  -7  47   1 344.043 17.7962   4
  -7  47  -1 337.367 17.3916   4
  -1  47   7 391.695 20.0037   4
   1  47   7 350.593 20.4918   4
   7  47   1 348.562 20.4989   4
  -1  47  -7 347.352 18.4454   4
   7  47  -1 357.594 20.1500   4
   1  47  -7 342.136 18.8582   4
  -7  47   3 570.174 25.0334   4
  -3  47   7 588.661 26.0552   4
  -7  47  -3 580.650 24.1550   4
   3  47   7 610.868 26.7626   4
  -3  47  -7 581.768 24.6201   4
   7  47   3 554.465 26.9450   4
   7  47  -3 583.829 26.8833   4
   3  47  -7 617.941 26.1369   4
  -7  47   5 1344.58 48.2516   4
  -5  47   7 1343.30 48.8330   4
  -7  47  -5 1246.64 47.2526   4
   5  47   7 1317.32 49.2346   4
  -5  47  -7 1272.17 47.5645   4
   7  47  -5 1297.00 49.1314   4
   5  47  -7 1382.14 49.2133   4
  -7  47   7-9.59756 11.1015   4
  -7  47  -7-2.64510 8.24753   4
   7  47  -7 6.44063 13.1382   4
  -9  47   1 50.1143 10.3112   4
  -9  47  -1 50.7004 9.57439   4
  -1  47   9 40.4524 13.3070   4
   1  47   9 54.5721 13.8174   4
  -1  47  -9 47.1614 10.9252   4
   9  47  -1 48.5643 14.8326   4
   1  47  -9 35.6416 11.7797   4
  -9  47   3 17.3990 10.2324   4
  -3  47   9 11.4650 12.7926   4
  -9  47  -3 17.1933 8.64716   4
   3  47   9 26.5437 14.6136   4
  -3  47  -9 23.4569 10.3411   4
   9  47  -3 25.5264 13.8984   4
   3  47  -9 13.8191 11.7533   4
  -9  47   5 29.8351 10.3083   4
  -5  47   9-2.59575 12.6279   4
  -9  47  -5 10.1900 7.65134   4
  -5  47  -9-10.8151 8.88741   4
   9  47  -5-10.3198 13.6540   4
   5  47  -9 6.84794 11.9289   4
  -7  47   9 21.4110 11.7061   4
  -9  47  -7 15.6188 7.23987   4
  -7  47  -9 16.0091 7.92457   4
   9  47  -7 23.0750 13.5680   4
   7  47  -9 18.9247 12.8981   4
   9  47   9-1.64043 12.8713   4
   9  47  -9-4.83839 12.7100   4
 -11  47   1 601.885 24.1297   4
 -11  47  -1 587.218 23.8041   4
  -1  47  11 649.413 27.2352   4
  -1  47 -11 596.379 25.2522   4
   1  47 -11 662.424 25.7777   4
 -11  47  -3 173.540 10.3501   4
  -3  47  11 216.211 15.5960   4
   3  47  11 180.819 16.1173   4
  -3  47 -11 196.418 12.5075   4
   3  47 -11 177.041 14.0290   4
  -5  47  11 5.38085 12.4078   4
  -5  47 -11 17.0122 7.91329   4
  11  47   5 1.34052 13.1474   4
  11  47  -5 15.0772 13.8126   4
   5  47 -11-8.66560 12.0102   4
  -7  47 -11 127.626 8.91936   4
  11  47   7 157.146 15.3938   4
  11  47  -7 133.488 15.1147   4
   7  47 -11 161.496 14.2014   4
   9  47  11 4.12001 13.2556   4
  11  47   9 22.5928 12.4743   4
  11  47  -9 3.14859 12.7770   4
   9  47 -11 28.2739 12.1223   4
  11  47  11-12.6952 12.7205   4
  11  47 -11-4.19788 12.0908   4
  -1  47  13 908.976 34.5607   4
   1  47  13 876.312 34.6223   4
  13  47   1 886.160 34.7982   4
  -1  47 -13 828.423 32.6686   4
   1  47 -13 843.287 33.0808   4
  13  47   3-2.28703 13.0976   4
  -3  47 -13 16.2000 8.24732   4
   3  47 -13-3.40424 10.4075   4
  -5  47 -13 444.770 18.9627   4
  13  47   5 520.703 23.1914   4
   5  47 -13 533.719 21.8480   4
   7  47  13 12.8927 12.7413   4
  13  47   7-2.77747 12.5137   4
   7  47 -13 11.9740 11.3241   4
   9  47  13 7.24962 12.4953   4
  13  47   9 2.66148 11.9392   4
  13  47  -9-3.33737 12.5051   4
   9  47 -13 19.6552 11.4387   4
  13  47  11 220.963 14.4595   4
  11  47  13 197.338 14.5378   4
  13  47 -11 193.072 14.8414   4
  11  47 -13 184.365 14.5592   4
  13  47  13-9.54458 10.1339   4
  13  47 -13-8.16496 11.1057   4
  15  47   1 104.935 13.0922   4
  -1  47 -15 73.0210 9.26058   4
  15  47  -1 97.4435 13.5856   4
 -15  47   3-5.38423 5.77771   2
  -3  47 -15 6.36798 6.62029   4
  15  47   3 5.82580 12.4003   4
  15  47  -3 12.3943 12.8498   4
   3  47 -15-5.71190 9.62037   4
   5  47  15 0.30584 12.8858   4
  15  47   5 4.17224 11.8745   4
   5  47 -15 2.14109 10.1412   4
   7  47  15 172.094 14.5745   4
  15  47   7 165.032 13.6818   4
   7  47 -15 149.879 12.9296   4
   9  47  15 3.11557 11.5313   4
  15  47   9 15.3271 10.7007   4
   9  47 -15 13.6790 10.7778   4
  11  47  15 63.2000 11.0387   4
  15  47  11 71.0717 11.1023   4
  11  47 -15 56.8680 11.1200   4
  13  47  15 85.8414 10.6004   4
  15  47  13 70.7740 10.1352   4
  15  47 -13 63.3064 11.3822   4
  13  47 -15 75.2174 11.2626   4
  15  47  15 8.85776 8.60778   4
  15  47 -15 4.06064 9.72416   4
  17  47   1 38.9374 12.2048   4
  -1  47 -17 36.1226 7.53730   4
  17  47  -1 40.0792 11.6875   4
 -17  47   1 22.0603 7.88968   2
   1  47 -17 37.7086 7.90906   4
 -17  47   3 166.211 9.76151   2
  -3  47 -17 153.397 8.86166   4
  17  47   3 216.933 14.2258   4
   3  47 -17 195.453 11.7765   4
  17  47  -3 187.907 14.2807   4
  17  47   5 1045.64 38.7778   4
  17  47  -5 1059.59 39.2227   4
   5  47 -17 1001.42 38.0034   4
  17  47   7 62.1932 10.8989   4
   7  17 -47 32.2352 7.03061   4
  17  47  -7 58.4982 11.4327   4
   7  47 -17 23.7499 9.64081   4
  17  47   9 12.3590 9.72976   4
   9  17 -47 15.4988 7.70485   4
   9  47 -17 21.4720 9.75436   4
  17  47  11-0.46139 9.02888   4
  11  17 -47-11.3491 7.52043   4
  11  47 -17 10.0236 9.46900   4
  17  47  13 2.51275 8.20765   4
  13  17 -47 11.5944 7.98786   4
  13  47 -17 10.5406 9.35591   4
  15  17 -47 60.6563 8.47900   4
  17  47 -15 78.5524 10.0568   4
  15  47 -17 76.7072 9.93907   4
  17  17 -47 10.8546 7.34973   4
  17  47 -17 7.80612 8.25616   4
 -19  47   1 0.59682 7.33675   2
  19  47   1 5.48672 10.1634   4
  -1  47 -19-0.45267 5.03516   4
  19  47  -1-7.65571 10.8593   4
   1  47 -19 3.95963 6.75370   4
 -19  47   3 60.5500 6.94163   2
  19  47   3 70.4824 10.6383   4
  19  47  -3 67.9316 11.0206   4
   3  47 -19 49.3751 8.06164   4
 -19  47   5 2.51029 5.19929   2
  19  47   5-9.72822 9.67932   4
  19  47  -5 8.08838 10.8917   4
   5  47 -19 5.88569 8.28106   4
  19  47   7 969.380 36.0316   4
  19  47  -7 1008.04 36.6434   4
   7  47 -19 947.605 35.6618   4
  19  47   9-2.15970 8.43883   4
   9  19 -47-2.54448 5.43303   4
  19  47  -9-4.66979 10.3445   4
   9  47 -19 2.80767 8.61722   4
  11  19 -47 29.3459 6.45601   4
  19  47 -11 40.9520 10.1506   4
  11  47 -19 34.5448 8.64172   4
  13  19 -47 295.172 13.3150   4
  13  47 -19 333.724 14.8159   4
  15  19 -47 12.7648 6.43697   4
  15  47 -19 11.4771 7.81345   4
  17  19 -47 88.9682 7.52249   4
  19  17 -47 116.506 8.40179   4
  17  47 -19 112.878 8.67937   4
  19  19 -47-4.16978 5.21502   4
  19  47 -19-3.84488 5.87497   4
 -21  47   1 75.2990 7.53325   2
  21  47   1 84.2815 9.97202   4
 -21  47  -1 96.8792 8.43954   2
  21  47  -1 105.965 10.3604   4
   1  47 -21 59.5644 5.78496   4
 -21  47   3 42.7222 6.53014   2
  21  47   3 54.8886 9.06172   4
  21  47  -3 70.2377 9.87462   4
   3  47 -21 46.0204 6.19184   4
  21  47   5 272.467 12.5303   4
  21  47  -5 279.458 13.5730   4
   5  47 -21 237.109 11.0321   4
  21  47  -7 43.0965 9.43143   4
   7  47 -21 38.2828 7.58242   4
  21  47   9 35.1497 7.22525   4
  21  47  -9 25.1249 9.17259   4
   9  47 -21 34.2731 7.39617   4
  21  47  11 35.2764 6.01105   4
  11  21 -47 29.5875 5.04380   4
  21  47 -11 41.6080 8.67784   4
  13  21 -47 4.69449 4.80272   4
  21  47 -13 10.3982 7.61897   4
  13  47 -21 17.8718 7.00943   4
  15  21 -47 11.3001 4.78021   4
  21  15 -47 22.0808 7.28476   4
  21  47 -15 10.6512 7.17262   4
  15  47 -21 16.4807 6.30360   4
  21  17 -47 97.7241 7.14361   4
  17  47 -21 96.5350 7.15317   4
  19  47 -21 129.137 6.92279   4
 -23  47   1 32.7472 6.06351   2
 -23  47  -1 32.0831 7.19095   2
  23  47   1 20.9691 7.32666   4
  23  47  -1 21.1503 7.63898   4
 -23  47   3 84.8720 6.49781   2
  23  47   3 95.0899 8.12179   4
 -23  47  -3 101.554 8.36747   2
  23  47  -3 110.602 9.20989   4
  23  47   5 113.224 7.85440   4
  23  47  -5 112.376 9.21720   4
 -23  47   5 71.6401 5.53963   2
   5  47 -23 79.5921 5.93587   4
 -23  47  -5 127.595 8.58056   2
  23  47   7-1.49166 5.34217   4
  23  47  -7 8.50032 7.64516   4
   7  47 -23-1.41089 5.43229   4
  23  47   9 17.0542 4.57408   4
  23  47  -9 6.29918 7.39000   4
   9  47 -23 7.14581 5.62456   4
  23  47 -11-1.74671 6.80804   4
  11  47 -23-7.67243 5.60429   4
  23  47 -13 63.3168 7.11641   4
  13  47 -23 55.3257 6.12959   4
  23  15 -47 30.2742 6.15848   4
  23  47 -15 28.0118 5.92466   4
  15  47 -23 35.6576 5.17085   4
  23  17 -47 30.9274 4.46250   4
  23  47 -17 27.6691 4.65730   4
 -25  47   1 26.4144 5.41798   2
 -25  47  -1 11.4458 5.70042   2
  25  47   1 18.6309 5.48756   4
  25  47  -1 29.0264 5.91826   4
 -25  47  -3 17.8643 6.02472   2
  25  47   3 12.3761 4.66466   4
  25  47  -3 8.30181 5.86423   4
 -25  47   3 15.2374 4.37127   2
 -25  47  -5 11.7107 6.18409   2
  25  47  -5 3.87008 6.01266   4
 -25  47  -7 425.168 16.8246   2
  25  47  -7 419.358 16.5754   4
  25  47  -9 19.8171 5.67280   4
 -25  47  -9 16.5367 5.85686   2
  25  47 -11 27.5929 5.21833   4
  25  13 -47 356.855 14.4694   4
  25  47 -13 378.580 14.1881   4
 -27  47  -3 15.9882 4.59937   2
 -27  47  -5-3.54654 4.52690   2
 -27  47  -7 7.23965 4.47588   2
   0  48   0 756.531 31.0154   4
  -2  48   0 142.205 13.7164   4
   0  48   2 160.763 14.6301   4
   0  48  -2 152.672 13.9472   4
   2  48   0 173.618 14.9996   4
  -2  48   2 21.2551 11.9706   4
  -2  48  -2 16.2726 11.5212   4
   2  48   2 12.3892 13.3700   4
   2  48  -2 26.0070 12.7751   4
  -4  48   0 413.302 19.5837   4
   0  48   4 417.610 21.0191   4
   0  48  -4 399.870 20.0181   4
   4  48   0 395.155 21.0134   4
  -4  48   2 500.124 21.9211   4
  -2  48   4 467.195 22.7744   4
  -4  48  -2 466.534 21.6323   4
   2  48   4 502.918 22.9539   4
  -2  48  -4 471.573 21.9339   4
   4  48   2 506.551 23.5910   4
   4  48  -2 501.060 23.3825   4
   2  48  -4 505.733 22.9327   4
  -4  48   4 278.730 16.9876   4
  -4  48  -4 307.546 16.0811   4
   4  48   4 274.847 18.2134   4
   4  48  -4 318.015 18.0480   4
  -6  48   0 112.292 11.5063   4
   0  48   6 113.439 14.2733   4
   6  48   0 95.9896 14.3196   4
   0  48  -6 121.267 12.7941   4
  -6  48   2 354.615 18.1894   4
  -2  48   6 385.928 19.6631   4
  -6  48  -2 358.060 17.6140   4
   2  48   6 409.579 20.6508   4
  -2  48  -6 358.838 18.0543   4
   6  48   2 371.418 19.9259   4
   6  48  -2 375.435 20.4509   4
   2  48  -6 394.931 19.4885   4
  -6  48   4 165.628 12.8808   4
  -4  48   6 160.057 14.0254   4
  -6  48  -4 165.055 11.9260   4
   4  48   6 165.886 15.5528   4
  -4  48  -6 164.040 12.1198   4
   6  48   4 142.442 15.5224   4
   6  48  -4 175.331 15.0883   4
   4  48  -6 160.619 14.5449   4
  -6  48   6 219.239 14.0332   4
  -6  48  -6 181.029 11.9002   4
   6  48   6 207.630 16.3285   4
   6  48  -6 206.208 14.9886   4
  -8  48   0 54.5333 9.84491   4
   0  48   8 81.6621 13.6930   4
   8  48   0 82.7387 14.6634   4
   0  48  -8 59.9748 11.4183   4
  -8  48   2 187.990 12.8670   4
  -8  48  -2 185.214 11.9082   4
  -2  48   8 200.867 14.9333   4
   2  48   8 226.069 16.1810   4
  -2  48  -8 196.810 13.2219   4
   8  48   2 192.146 16.4020   4
   8  48  -2 194.343 16.1409   4
   2  48  -8 171.687 14.0743   4
  -8  48   4 10.3955 9.91026   4
  -4  48   8-5.51036 11.8578   4
  -8  48  -4-7.14250 8.02669   4
   4  48   8-3.24903 13.2604   4
  -4  48  -8-5.62758 9.07279   4
   8  48  -4-3.87431 13.0671   4
   4  48  -8-1.81887 11.7325   4
  -6  48   8 184.598 13.7192   4
  -8  48  -6 162.363 10.4313   4
  -6  48  -8 179.297 10.6983   4
   8  48  -6 184.307 15.0281   4
   6  48  -8 161.260 14.6200   4
  -8  48  -8 1020.96 39.1445   4
   8  48  -8 1348.51 42.4607   4
 -10  48   0 772.878 30.6617   4
   0  48  10 860.964 33.2315   4
   0  48 -10 867.033 31.8175   4
 -10  48  -2 12.1045 6.91182   4
  -2  48  10 13.3590 12.4580   4
   2  48  10 21.3330 12.6300   4
  -2  48 -10 15.4031 9.42881   4
  10  48  -2 31.6839 13.2054   4
   2  48 -10 6.99237 10.4013   4
  -4  48  10 31.0381 12.0235   4
 -10  48  -4 21.4160 6.82137   4
  -4  48 -10 37.7756 8.06422   4
  10  48  -4 15.7598 12.1595   4
   4  48 -10 11.1777 11.0736   4
  -6  48 -10 20.1029 6.93599   4
  10  48   6 20.3648 13.0527   4
  10  48  -6 28.2382 12.3557   4
   6  48 -10 16.5176 11.6297   4
   8  48  10-0.90535 12.4478   4
  10  48   8 11.3602 11.9945   4
  10  48  -8-3.26196 12.1228   4
   8  48 -10-2.01942 11.5901   4
  10  48 -10 196.999 14.3571   4
   0  48  12 144.155 13.9968   4
   0  48 -12 128.271 11.2509   4
  -2  48  12 590.300 24.6678   4
   2  48  12 586.410 25.0671   4
  -2  48 -12 534.501 22.3262   4
   2  48 -12 557.723 23.2351   4
  -4  48 -12 13.2426 7.23034   4
  12  48   4 9.65024 12.5709   4
   4  48 -12 3.47436 10.3297   4
  12  48  -6-11.2585 12.2959   4
   6  48 -12 14.9454 10.6884   4
   8  48  12 808.285 31.9225   4
  12  48   8 819.296 31.7290   4
  12  48  -8 779.169 31.5541   4
   8  48 -12 784.943 31.1894   4
  10  48  12 23.2875 11.3617   4
  12  48  10 24.2373 11.4802   4
  12  48 -10 25.6820 11.6618   4
  10  48 -12 22.6422 10.7361   4
  12  48  12 1960.24 69.4836   4
  12  48 -12 1975.26 69.5202   4
   0  48 -14 99.2017 9.68854   4
 -14  48   0 71.9435 7.28330   2
  -2  48 -14 10.7235 6.69328   4
   2  48 -14 5.17620 8.74056   4
  -4  48 -14 15.6630 5.82181   4
  14  48   4-0.56651 11.3048   4
   4  48 -14 3.91951 9.45023   4
   6  48  14 43.9712 11.9874   4
  14  48   6 38.6621 11.4685   4
   6  14 -48 25.5588 6.49529   4
   6  48 -14 44.5778 10.2825   4
   8  48  14 316.195 17.2382   4
  14  48   8 331.927 16.9281   4
   8  48 -14 328.282 16.4766   4
  10  48  14 13.5592 10.0775   4
  14  48  10 18.3204 10.2383   4
  14  48 -10 9.35775 10.6408   4
  10  48 -14 14.5707 9.80370   4
  12  48  14 211.679 13.2663   4
  14  48  12 232.759 13.4138   4
  14  48 -12 221.271 14.1320   4
  12  48 -14 238.275 13.8211   4
  14  48  14 132.682 10.4068   4
  14  48 -14 126.064 11.0919   4
 -16  48   0 411.639 17.9080   2
   0  48 -16 471.645 18.3316   4
  -2  48 -16 12.3052 5.86745   4
  16  48   2 13.6867 11.0994   4
  16  48  -2 11.1591 11.4313   4
   2  48 -16 6.81857 7.65977   4
  16  48   4 237.106 14.5579   4
  16  48  -4 224.317 14.7324   4
   4  48 -16 208.266 12.5171   4
  16  48   6 180.750 12.8156   4
   6  48 -16 167.079 11.6148   4
  16  48   8 102.756 10.9047   4
   8  16 -48 69.2044 6.65652   4
   8  48 -16 87.8952 9.89201   4
  16  48  10 102.560 10.0776   4
  10  16 -48 72.7371 7.62230   4
  10  48 -16 95.0165 10.1312   4
  16  48  12 38.8710 8.34204   4
  12  16 -48 11.5134 6.54138   4
  12  48 -16 23.8129 9.00885   4
  14  16 -48 229.427 11.7997   4
  16  48 -14 249.419 13.1655   4
  14  48 -16 267.490 13.1451   4
  16  16 -48 1.19128 6.52309   4
  16  48 -16 13.1042 7.55386   4
 -18  48   0 45.1936 6.20395   2
   0  48 -18 25.6848 5.40720   4
  18  48   0 42.2546 10.2094   4
 -18  48   2 88.0235 6.75316   2
  18  48   2 136.881 11.2478   4
  18  48  -2 159.137 11.9133   4
   2  48 -18 112.517 8.22359   4
 -18  48  -2 113.373 8.38780   2
  18  48   4 569.795 22.6904   4
  18  48  -4 581.359 23.1759   4
   4  48 -18 519.806 21.2087   4
  18  48   6 0.22291 8.55598   4
  18  48  -6 1.44801 10.1098   4
   6  48 -18 2.93980 7.57583   4
  18  48   8 531.937 21.0232   4
  18  48  -8 523.885 21.8497   4
   8  48 -18 501.889 20.7440   4
  18  48  10 107.230 8.83730   4
  10  18 -48 65.1852 5.90351   4
  10  48 -18 90.5959 8.84246   4
  18  48  12 158.734 9.12018   4
  12  48 -18 199.337 10.1827   4
  14  18 -48 219.099 10.6561   4
  14  48 -18 293.263 12.2847   4
  16  18 -48 350.565 15.0279   4
  18  16 -48 397.495 15.6798   4
  16  48 -18 448.582 16.1399   4
  18  18 -48 18.4590 4.51215   4
  18  48 -18 27.5829 5.71568   4
 -20  48   0 2.62736 5.59114   2
  20  48   0 20.6274 8.84414   4
 -20  48  -2 172.886 9.12289   2
  20  48   2 222.765 11.3065   4
  20  48  -2 241.990 11.9713   4
   2  48 -20 145.107 8.00675   4
 -20  48   2 136.296 7.93011   2
  20  48   4 391.170 15.7559   4
  20  48  -4 387.349 16.3816   4
  20  48   6 19.9319 7.73356   4
  20  48  -6 27.9042 8.98975   4
   6  48 -20 25.4581 6.18723   4
  20  48   8 17.1877 7.06802   4
  20  48  -8 14.9154 8.83344   4
   8  48 -20 19.1193 6.47442   4
  20  48  10 2.31720 6.04204   4
  20  48 -10 23.5458 8.35125   4
  10  48 -20 14.7885 6.71439   4
  20  48 -12 165.850 9.82229   4
  12  48 -20 141.803 8.91089   4
  20  14 -48 135.431 8.53593   4
  14  48 -20 128.872 7.92036   4
  20  16 -48 142.879 7.94377   4
  16  48 -20 163.519 8.09211   4
  18  48 -20 214.691 9.11475   4
 -22  48   0 69.0738 6.06468   2
  22  48   0 104.490 8.24616   4
 -22  48  -2 204.380 10.3927   2
  22  48   2 240.622 11.6390   4
  22  48  -2 277.771 12.1313   4
 -22  48  -4 141.495 8.94394   2
  22  48   4 167.044 9.28663   4
  22  48  -4 181.422 10.1705   4
  22  48   6 116.317 7.45709   4
   6  48 -22 88.9139 6.11408   4
  22  48  -6 139.033 9.08013   4
 -22  48  -6 104.276 7.66141   2
  22  48   8-3.85671 4.66040   4
  22  48  -8 5.26199 6.96726   4
   8  48 -22 5.78696 4.56486   4
  22  48 -10 8.93262 6.64614   4
  10  48 -22 10.1046 4.73692   4
  22  48 -12 196.192 9.23298   4
  12  48 -22 149.727 7.94499   4
  22  14 -48 4.76947 4.91328   4
  22  48 -14 5.11593 4.64053   4
  14  48 -22 1.47873 4.16814   4
  22  48 -16 33.2659 4.34021   4
  24  48   0 632.857 23.1128   4
 -24  48  -2 15.3386 4.51208   2
  24  48   2 20.2045 4.90228   4
  24  48  -2 23.2692 5.52001   4
 -24  48  -4 318.116 13.0339   2
  24  48  -4 343.218 13.4871   4
 -24  48  -6 84.7180 6.22917   2
  24  48  -6 85.9232 6.75495   4
  24  48  -8 10.7546 4.99495   4
 -24  48 -10 105.854 6.37809   2
  24  48 -10 105.292 6.49516   4
  24  48 -12-4.91902 4.08529   4
  24  12 -48 0.75963 4.30403   4
  -1  49   1 2.62915 11.3376   4
  -1  49  -1 0.57344 10.9814   4
   1  49   1 4.81529 11.7514   4
   1  49  -1 16.0643 11.6604   4
  -3  49   1 41.3425 10.8483   4
  -1  49   3 36.9569 12.1089   4
  -3  49  -1 29.6900 10.4094   4
   1  49   3 26.3088 12.1421   4
  -1  49  -3 33.2112 10.6490   4
   3  49   1 27.5820 12.3579   4
   1  49  -3 39.2442 11.3993   4
   3  49  -1 28.2211 11.9114   4
  -3  49   3 3.41583 11.1209   4
  -3  49  -3-1.57343 9.66129   4
   3  49   3 25.6522 12.6152   4
   3  49  -3-4.47240 11.7350   4
  -5  49   1 4.20461 9.76727   4
  -1  49   5 0.59365 11.7315   4
  -5  49  -1 5.59919 9.39417   4
   1  49   5 11.7670 11.9272   4
  -1  49  -5 12.8492 9.97598   4
   5  49   1-3.37512 12.3140   4
   1  49  -5 5.34472 10.6099   4
   5  49  -1 2.44455 12.1930   4
  -5  49   3 973.470 36.4443   4
  -3  49   5 942.266 36.7919   4
   3  49   5 951.668 37.1962   4
  -3  49  -5 939.852 36.0049   4
   5  49   3 981.049 37.5772   4
   5  49  -3 999.461 37.3040   4
   3  49  -5 992.115 36.9414   4
  -5  49   5 15.9710 10.2840   4
  -5  49  -5 15.6494 8.45905   4
   5  49   5-1.51118 12.3757   4
   5  49  -5 0.29267 11.5683   4
  -7  49   1 467.806 20.5070   4
  -7  49  -1 462.345 20.1745   4
  -1  49   7 503.604 22.2513   4
   1  49   7 484.922 22.6447   4
  -1  49  -7 493.812 20.9688   4
   7  49   1 480.133 22.7625   4
   1  49  -7 511.671 21.2653   4
   7  49  -1 509.915 22.8089   4
  -7  49   3 297.309 15.9727   4
  -3  49   7 359.534 17.6936   4
  -7  49  -3 318.031 15.2006   4
   3  49   7 359.021 18.6401   4
  -3  49  -7 326.688 15.7314   4
   7  49   3 339.946 18.4486   4
   7  49  -3 338.183 18.1836   4
   3  49  -7 336.136 17.2604   4
  -7  49   5 102.949 10.8251   4
  -5  49   7 125.244 12.0607   4
  -7  49  -5 124.512 9.30622   4
   5  49   7 130.484 14.1396   4
  -5  49  -7 129.305 9.57927   4
   7  49  -5 138.128 13.4667   4
   5  49  -7 125.500 12.4799   4
  -7  49  -7 3.29775 6.18102   4
   7  49  -7 2.52436 11.5487   4
  -9  49  -1 103.736 8.68084   4
  -1  49   9 125.428 13.2499   4
   1  49   9 120.521 13.5119   4
  -1  49  -9 124.864 10.7263   4
   9  49  -1 112.781 13.6913   4
   1  49  -9 131.523 11.3331   4
  -9  49  -3 187.553 10.5991   4
   3  49   9 234.844 15.3351   4
  -3  49   9 223.233 14.6923   4
  -3  49  -9 221.203 11.9473   4
   9  49  -3 235.209 15.5325   4
   3  49  -9 243.211 13.7662   4
  -5  49  -9 264.717 12.1873   4
   9  49  -5 318.528 16.4260   4
   5  49  -9 294.769 15.1333   4
   9  49  -7 698.534 28.6060   4
   7  49  -9 730.157 28.7030   4
   9  49   9-4.36287 11.3755   4
   9  49  -9-4.46090 10.3240   4
  -1  49  11-3.33096 11.1754   4
   1  49  11 6.21522 11.5981   4
  -1  49 -11 9.36596 7.88910   4
   1  49 -11 10.9094 8.90853   4
   3  49  11 7.65587 11.7273   4
  -3  49 -11 1.12383 6.51892   4
  11  49  -3-7.35395 11.1049   4
   3  49 -11 1.45590 9.30578   4
  11  49   5 1093.33 35.5130   4
  11  49  -5 1109.43 35.6455   4
   5  49 -11 1053.68 34.7235   4
  11  49   7 1264.89 46.2756   4
  11  49  -7 1273.24 46.2904   4
   7  49 -11 1240.56 45.7892   4
   9  49  11-7.52102 10.7219   4
  11  49   9-4.64399 10.8696   4
  11  49  -9 15.0077 10.4612   4
   9  49 -11 16.7585 9.99834   4
  11  49  11-1.46632 10.2358   4
  11  49 -11-0.95875 9.92391   4
  -1  49 -13 76.7061 7.74314   4
  13  49   1 98.3609 11.8302   4
   1  49 -13 95.9412 9.03472   4
  13  49   3 276.236 14.9914   4
   3  49 -13 269.103 12.8360   4
  13  49   5 951.742 36.0222   4
   5  49 -13 946.737 35.2135   4
   7  49  13 230.344 13.3978   4
  13  49   7 219.215 13.3008   4
  13  49  -7 236.878 13.6755   4
   7  49 -13 233.336 12.4370   4
   9  49  13 1122.02 40.5820   4
  13  49   9 1117.03 40.4929   4
  13  49  -9 1090.53 40.3649   4
   9  49 -13 1064.00 40.0761   4
  11  49  13 638.692 24.8673   4
  13  49  11 614.996 24.7734   4
  13  49 -11 611.362 24.8563   4
  11  49 -13 626.306 24.6840   4
  13  49  13 1.43219 8.25474   4
  13  49 -13-8.02619 8.83148   4
  -1  49 -15-2.58654 5.22838   4
  15  49   1 17.0274 10.2564   4
   1  49 -15 9.75915 6.31361   4
  15  49  -1 5.55796 10.1776   4
  15  49   3 26.0369 10.3728   4
  15  49  -3 14.0725 9.91131   4
   3  49 -15 11.0268 7.29038   4
  15  49   5 300.228 15.4786   4
  15  49   7 149.722 11.3955   4
   7  49 -15 133.983 10.2577   4
  15  49   9 13.8081 8.77533   4
   9  15 -49 3.95910 4.70756   4
   9  49 -15-5.54553 8.20202   4
  15  49  11 27.7628 8.30198   4
  11  15 -49 21.9609 5.35322   4
  15  49 -11 45.9359 8.86840   4
  11  49 -15 31.0079 8.12646   4
  13  15 -49 255.042 12.3139   4
  15  49 -13 334.385 14.3538   4
  13  49 -15 335.494 14.0449   4
  15  15 -49-1.87547 5.28307   4
  15  49 -15 1.76375 6.97428   4
  17  49   1 3.62282 9.21471   4
   1  49 -17 14.5037 4.94857   4
  17  49  -1 26.8864 9.57967   4
  17  49   3 118.844 10.2204   4
  17  49  -3 111.984 10.7842   4
   3  49 -17 79.5852 7.06625   4
 -17  49  -3 71.7382 6.24751   2
  17  49   5 216.393 11.8837   4
  17  49  -5 186.384 12.1671   4
   5  49 -17 158.026 9.88809   4
  17  49   7 479.674 19.5394   4
  17  49  -7 494.774 20.2228   4
   7  49 -17 459.059 18.8322   4
  17  49   9 409.865 16.7771   4
   9  49 -17 390.138 16.5177   4
  17  49  11 90.0378 7.79435   4
  11  49 -17 89.2090 8.00127   4
  13  49 -17 190.121 10.0852   4
  17  15 -49 80.3814 6.24056   4
  17  49 -15 100.296 7.68423   4
  15  49 -17 100.031 7.28225   4
 -19  49  -1 20.3044 4.27996   2
  19  49   1 22.4052 8.05531   4
  19  49  -1 39.5694 8.51531   4
  19  49   3 241.097 11.1570   4
  19  49  -3 274.424 12.0205   4
  19  49   5 394.705 14.4486   4
  19  49  -5 403.597 15.1647   4
  19  49   7 198.820 9.97820   4
   7  49 -19 163.467 8.99422   4
  19  49   9 6.08026 5.86880   4
  19  49  -9 17.4768 7.39365   4
   9  49 -19 8.27642 5.71839   4
  19  49 -11 29.3988 7.21454   4
  11  49 -19 20.6245 5.82667   4
  19  13 -49 284.304 12.5079   4
  13  49 -19 321.407 12.5780   4
  15  49 -19 18.6815 4.63865   4
  19  49 -17-3.48399 3.95107   4
  21  49   1 1.79341 6.24757   4
  21  49  -1 1.68527 6.42946   4
  21  49   3 12.3376 6.01395   4
  21  49  -3 12.5860 6.74770   4
 -21  49  -5 170.548 8.76956   2
  21  49   5 207.446 9.65477   4
  21  49  -5 241.533 10.5974   4
 -21  49  -7 189.372 8.94679   2
  21  49   7 179.901 8.97317   4
  21  49  -7 240.327 10.3541   4
  21  49  -9 4.31885 5.72898   4
 -21  49  -9 2.08511 4.40950   2
  21  49 -11 4.66895 5.76151   4
  21  49 -13 281.061 11.5286   4
  23  49   1 2.03778 4.46650   4
  23  49  -1 6.31400 4.77035   4
  23  49  -3 173.028 8.44512   4
  23  49  -5 26.5512 5.07996   4
  23  49  -7 2.59721 4.68500   4
  23  49  -9 182.951 8.34801   4
   0  50   0 8594.03 292.403   4
  -2  50   0 386.768 18.1412   4
   0  50   2 396.769 18.7447   4
   0  50  -2 372.206 18.0752   4
   2  50   0 404.879 18.9122   4
  -2  50   2 585.840 24.2269   4
  -2  50  -2 564.617 23.8605   4
   2  50   2 627.141 25.0486   4
   2  50  -2 585.286 24.6745   4
  -4  50   0 859.723 33.4342   4
   0  50   4 906.111 34.3464   4
   0  50  -4 879.977 33.5933   4
   4  50   0 938.051 34.3698   4
  -4  50   2 336.271 16.3225   4
  -2  50   4 334.703 16.9863   4
  -4  50  -2 315.002 15.6909   4
   2  50   4 352.706 17.4139   4
  -2  50  -4 318.473 15.8820   4
   4  50   2 344.615 17.8175   4
   2  50  -4 325.443 16.7010   4
   4  50  -2 364.365 17.5762   4
  -4  50   4 1124.23 41.2642   4
  -4  50  -4 1076.53 40.6335   4
   4  50   4 1163.16 41.9236   4
   4  50  -4 1153.14 41.7087   4
  -6  50   0 4333.42 153.552   4
   0  50   6 4706.33 154.458   4
   0  50  -6 4400.64 153.854   4
   6  50   0 4622.01 154.478   4
  -6  50   2 226.184 12.9885   4
  -2  50   6 239.400 14.4043   4
  -6  50  -2 235.436 12.3675   4
   2  50   6 252.645 15.1031   4
  -2  50  -6 232.841 12.8751   4
   6  50   2 246.485 15.4295   4
   2  50  -6 255.514 14.0172   4
   6  50  -2 229.176 14.9311   4
  -6  50   4 93.2864 9.65865   4
  -4  50   6 102.260 10.6946   4
  -6  50  -4 101.021 8.05760   4
   4  50   6 77.4400 12.1844   4
  -4  50  -6 83.1716 8.49598   4
   6  50   4 96.3606 11.6723   4
   4  50  -6 96.2665 11.0050   4
   6  50  -4 100.762 12.0318   4
   6  50   6 642.504 23.5981   4
   6  50  -6 609.872 23.1114   4
   0  50   8 415.914 19.2027   4
   0  50  -8 397.240 17.5006   4
   8  50   0 388.784 19.1609   4
  -2  50   8 60.7751 10.8240   4
   2  50   8 62.4506 11.6618   4
  -2  50  -8 56.5034 7.99032   4
   8  50   2 82.7337 11.7812   4
   2  50  -8 47.5845 9.59829   4
   8  50  -2 33.5853 11.2993   4
   4  50   8 26.5514 11.2904   4
  -4  50  -8 19.7219 6.19307   4
   8  50  -4 5.48239 10.7975   4
   4  50  -8 8.87063 9.19896   4
   8  50  -6 227.031 12.9092   4
   6  50  -8 192.103 12.2327   4
   8  50  -8 298.959 15.4502   4
   0  50  10 349.150 16.4497   4
   0  50 -10 290.563 14.4180   4
   2  50  10 4.11422 10.0411   4
  -2  50 -10-2.81331 6.13822   4
   2  50 -10 0.64131 8.22043   4
  10  50  -2 7.74847 10.3408   4
   4  50  10 135.970 12.3514   4
  -4  50 -10 96.1644 7.08782   4
  10  50  -4 144.920 12.2339   4
   4  50 -10 131.058 10.3062   4
  10  50  -6 333.555 16.9290   4
   6  50 -10 359.679 16.3946   4
  10  50   8 13.9383 10.0022   4
  10  50  -8 17.3149 9.65915   4
   8  50 -10-3.37614 9.12597   4
  10  50  10 6.63512 9.48693   4
  10  50 -10 14.9520 9.17313   4
   0  50 -12 677.952 25.1754   4
  -2  50 -12 36.2794 5.81394   4
   2  50 -12 38.4251 7.66615   4
  12  50   4-0.23954 10.0590   4
  12  50   6 1219.25 44.8517   4
  12  50  -6 1303.49 44.9954   4
   6  50 -12 1195.73 44.2826   4
   8  50  12 1183.75 41.8929   4
  12  50   8 1148.11 41.7925   4
  12  50  -8 1183.88 41.8979   4
   8  50 -12 1092.58 41.3439   4
  10  50  12 5.51255 8.72723   4
  12  50  10 2.75207 8.73762   4
  12  50 -10 5.89325 8.65257   4
  10  50 -12 11.9435 7.96655   4
  10  12 -50 9.52249 4.91877   4
  12  50  12 375.320 15.8919   4
  12  50 -12 338.429 15.6086   4
   0  50 -14 1326.90 52.6718   4
  14  50   0 2070.29 54.9920   4
  14  50   2 33.4979 9.66286   4
   2  50 -14 25.9463 6.02686   4
  14  50   4 908.639 31.3520   4
   4  50 -14 771.491 29.9595   4
  14  50   6 416.512 17.3132   4
   6  50 -14 365.653 16.2346   4
  14  50   8 328.706 15.0697   4
  14  50  -8 337.589 15.4276   4
   8  50 -14 309.548 14.3022   4
  14  50  10 11.3203 7.59768   4
  14  50 -10 7.68211 7.92097   4
  10  50 -14 11.2262 7.16101   4
  14  50 -12 255.180 12.3082   4
  12  50 -14 245.732 12.0235   4
  14  50 -14 4.98531 6.26049   4
  16  50   0 143.935 10.6063   4
  16  50   2 84.8444 9.33692   4
   2  50 -16 60.8649 5.63160   4
  16  50  -2 104.168 9.47236   4
  16  50   4 821.363 28.1542   4
  16  50  -4 878.047 28.5299   4
  16  50   6 5.33090 7.61261   4
   6  50 -16 7.26258 5.85288   4
  16  50   8 0.53488 7.03506   4
   8  50 -16 1.89637 6.02767   4
  16  50  10 15.6071 6.29329   4
  10  50 -16 9.82293 5.82490   4
  16  50 -12 269.553 11.7954   4
  16  12 -50 215.303 10.4566   4
  12  50 -16 275.260 11.3609   4
  16  50 -14 280.812 11.9193   4
  14  50 -16 274.819 11.7143   4
  16  50 -16 300.779 11.9679   4
  18  50   0 22.3416 7.36230   4
  18  50   2 574.296 22.6480   4
  18  50  -2 608.983 22.8512   4
  18  50   4 336.710 14.8239   4
  18  50  -4 361.639 15.2093   4
  18  50   6 284.261 12.1639   4
  18  50  -6 330.907 12.8856   4
  18  50   8 75.2700 6.59450   4
  18  50  -8 68.7258 7.53727   4
   8  50 -18 70.6979 5.65752   4
  10  50 -18 9.46747 4.66182   4
  12  50 -18 318.621 12.5799   4
  20  50   0 4456.36 151.759   4
  20  50   2 75.4296 6.67165   4
  20  50  -2 69.4262 6.73615   4
  20  50   4 136.515 7.74343   4
  20  50  -4 145.054 8.30852   4
  20  50   6 984.565 37.9741   4
  20  50  -6 1252.48 38.6527   4
  20  50  -8 90.2329 6.60016   4
  20  50 -10 381.079 14.8025   4
  20  50 -12 254.889 10.3183   4
  22  50  -2 54.1092 4.89520   4
  22  50  -4 74.3153 5.27883   4
  -1  51   1 10.0900 9.15997   4
  -1  51  -1 2.45734 8.64569   4
   1  51   1-4.04483 9.30978   4
   1  51  -1-8.14058 9.22416   4
  -3  51   1 33.5961 8.62427   4
  -1  51   3 39.2830 9.41971   4
  -3  51  -1 20.6969 8.00622   4
   1  51   3 25.9926 9.92556   4
  -1  51  -3 22.3185 8.58647   4
   3  51   1 28.5862 9.92145   4
   1  51  -3 38.9967 9.05843   4
   3  51  -1 11.1782 9.74904   4
  -3  51   3 0.65733 8.29455   4
  -3  51  -3 11.7816 7.27898   4
   3  51   3 10.4988 10.1064   4
   3  51  -3-7.86042 9.26783   4
  -5  51   1 43.2383 7.78107   4
  -5  51  -1 50.6462 7.49993   4
  -1  51   5 56.8021 9.86654   4
   1  51   5 59.1824 10.1416   4
  -1  51  -5 59.9825 8.47613   4
   5  51   1 50.3998 10.4118   4
   1  51  -5 36.7322 8.61861   4
   5  51  -1 48.6145 9.99282   4
  -3  51   5 580.825 21.9052   4
  -5  51  -3 472.592 20.3474   4
   3  51   5 577.323 22.6819   4
  -3  51  -5 504.270 20.5879   4
   5  51   3 579.885 22.6415   4
   3  51  -5 555.907 21.8933   4
   5  51  -3 565.558 22.2633   4
  -5  51  -5 12.5889 5.69212   4
   5  51   5-2.65393 9.53820   4
   5  51  -5 4.51058 9.21494   4
  -1  51   7 2.05508 9.09985   4
   1  51   7 9.88683 9.66009   4
  -1  51  -7 20.2909 6.93397   4
   7  51   1 8.81185 9.50728   4
   1  51  -7 0.79314 8.01693   4
   7  51  -1-5.69435 9.83204   4
   3  51   7 259.058 14.2738   4
  -3  51  -7 214.413 11.4357   4
   7  51   3 273.277 14.2497   4
   3  51  -7 265.212 13.0683   4
   7  51  -3 286.294 14.1799   4
  -5  51  -7 62.1381 5.80101   4
   5  51   7 101.778 10.7169   4
   7  51   5 100.898 10.9851   4
   5  51  -7 88.4302 9.54689   4
   7  51  -5 99.1525 10.3567   4
   7  51  -7-7.28614 8.72526   4
   1  51   9-6.36481 9.28094   4
  -1  51  -9 9.52858 6.01669   4
   9  51   1-0.23080 9.52677   4
   1  51  -9 3.77478 6.66826   4
   9  51  -1-9.00263 9.67518   4
   3  51   9 6.18257 8.98492   4
  -3  51  -9 2.84794 5.04094   4
   3  51  -9-0.38399 7.52759   4
   9  51  -3-8.60972 9.28789   4
   5  51   9 604.726 23.9496   4
   5  51  -9 596.065 23.2548   4
   9  51  -5 589.139 23.9295   4
   7  51  -9 404.975 17.2791   4
   9  51  -7 395.275 17.5431   4
   9  51   9-13.8382 8.94247   4
   9  51  -9 0.78703 7.93123   4
  -1  51 -11-0.67477 4.72182   4
   1  51 -11 0.93773 5.93325   4
   3  51 -11 123.024 8.40038   4
  11  51  -3 138.435 10.9921   4
  11  51   5 61.0737 9.37730   4
   5  51 -11 43.3947 7.63851   4
  11  51  -5 62.4952 9.33134   4
  11  51   7 375.810 16.9666   4
   7  51 -11 372.498 16.2428   4
  11  51  -7 415.345 17.1322   4
   9  51  11 39.5032 8.14302   4
  11  51  -9 18.1817 7.49981   4
   9  51 -11 14.5813 7.24067   4
  11  51 -11-9.72250 6.84463   4
   1  51 -13 38.5445 5.11864   4
  13  51   3 301.999 13.5892   4
   3  51 -13 234.379 11.2615   4
  13  51   5 232.126 11.6386   4
   5  51 -13 183.070 9.77914   4
  13  51   7 17.6280 7.73209   4
   7  51 -13 13.5928 6.17783   4
  13  51  -7 14.5719 7.94091   4
  13  51   9 181.980 9.90361   4
  13  51  -9 176.753 10.0191   4
   9  51 -13 149.302 9.08777   4
  13  51 -11 406.291 16.1692   4
  11  51 -13 393.637 15.9475   4
  13  51 -13-2.28477 5.32132   4
  15  51   1 31.6072 7.54149   4
  15  51  -1 31.2299 7.71149   4
  15  51   3-6.51983 7.44894   4
   3  51 -15-1.21076 4.13195   4
  15  51   5 0.34924 6.91535   4
   5  51 -15 4.61629 4.62850   4
  15  51   7 62.1735 7.01625   4
   7  51 -15 45.7121 5.44054   4
  15  51   9 3.13478 5.78441   4
   9  51 -15-0.26549 4.93746   4
  15  51 -11 3.21008 5.75752   4
  11  51 -15 0.76800 4.72519   4
  15  51 -13 37.4771 5.25062   4
  13  51 -15 22.0976 4.70661   4
  17  51   1 16.0632 6.31740   4
  17  51  -1 25.8972 6.74230   4
  17  51   3 100.538 7.55249   4
  17  51  -3 101.984 7.76361   4
  17  51   5 15.0158 5.87419   4
  17  51  -5 2.68186 6.40216   4
  17  51   7 42.9139 5.52071   4
  19  51   1 3.50057 4.94370   4
  19  51  -1 9.69048 5.02929   4
  19  51   3 76.2806 5.71681   4
  19  51  -3 73.8201 5.86357   4
  19  51   5 0.77036 3.90239   4
  19  51  -5 7.69657 4.66770   4
  19  51  -7 65.8418 5.48669   4
  19  51  -9-0.22202 3.79127   4
   0  52   0 7.87841 7.80961   4
  -2  52   0 94.1928 8.37691   4
   0  52   2 114.753 9.48031   4
   0  52  -2 93.2505 8.75755   4
   2  52   0 102.449 9.61611   4
  -2  52   2 119.072 9.46168   4
   2  52  -2 144.841 9.92448   4
  -2  52  -2 121.082 8.85027   4
   2  52   2 126.736 10.1376   4
  -4  52   0 404.385 17.1668   4
   0  52   4 482.341 18.5828   4
   0  52  -4 414.345 17.7477   4
   4  52   0 490.680 18.7826   4
  -2  52   4 590.136 21.5183   4
   2  52   4 576.968 21.9102   4
  -2  52  -4 503.742 20.4196   4
   4  52   2 615.675 22.0866   4
   2  52  -4 565.884 21.3835   4
   4  52  -2 618.652 21.8904   4
   4  52   4 771.061 24.8344   4
   4  52  -4 736.404 24.3603   4
   0  52   6 58.7317 8.57225   4
   0  52  -6 55.0973 6.99860   4
   6  52   0 54.8400 9.15618   4
   2  52   6 27.9492 8.49609   4
  -2  52  -6 19.6736 5.39548   4
   6  52   2 17.7660 8.53222   4
   2  52  -6 15.2295 7.17756   4
   6  52  -2 10.3104 8.44677   4
   4  52   6 175.750 10.8090   4
   6  52   4 183.354 10.7022   4
   4  52  -6 173.156 9.42328   4
   6  52  -4 179.014 10.1466   4
   6  52   6 2.64609 8.37786   4
   6  52  -6 10.5160 7.27767   4
   0  52  -8 61.8483 6.20883   4
   8  52   0 86.3955 8.93528   4
   8  52   2 383.392 14.5784   4
   2  52  -8 320.823 12.5667   4
   8  52  -2 380.438 14.3231   4
   4  52   8 9.74009 8.18614   4
   8  52   4-6.02666 8.16895   4
   4  52  -8 2.83584 6.34026   4
   8  52  -4 4.21857 7.77427   4
   6  52   8 54.2973 8.20834   4
   6  52  -8 54.7078 7.27139   4
   8  52  -6 40.7508 7.57619   4
   8  52  -8 336.301 14.4894   4
   0  52 -10 6.77432 4.19371   4
  10  52   0 17.1673 8.09434   4
   2  52 -10 1.35639 5.19733   4
  10  52  -2 6.24799 7.39252   4
   4  52 -10 11.1830 5.46555   4
  10  52  -4 6.64246 7.41983   4
   6  52 -10 3.51786 6.11150   4
  10  52  -6 5.99467 6.89779   4
  10  52   8 9.73295 7.25551   4
   8  52 -10 10.5821 6.01935   4
  10  52  -8 12.2879 6.55229   4
  10  52 -10 28.2701 5.95246   4
  12  52   4 39.0893 7.50331   4
   4  52 -12 29.4198 4.81964   4
  12  52  -4 48.0430 7.55980   4
  12  52   6 48.9448 6.93399   4
   6  52 -12 39.2144 5.41422   4
  12  52  -6 46.3091 6.81619   4
  12  52   8 579.385 21.3221   4
   8  52 -12 512.598 20.7508   4
  12  52  -8 626.676 21.4513   4
  10  52 -12 36.5272 5.17354   4
  12  52 -10 44.1438 5.86861   4
  12  52 -12 1373.93 47.6103   4
  14  52   0 264.658 12.1536   4
  14  52   2 31.0675 6.80769   4
  14  52   4 12.4359 6.22348   4
  14  52   6 19.8305 5.63303   4
  14  52  -8 34.3746 5.93489   4
  14  52 -10 72.7897 5.76691   4
  16  52   0 52.5070 5.76973   4
  16  52   2 70.0075 6.41092   4
  16  52  -2 73.5883 6.07900   4
  16  52   4 224.535 9.91382   4
  16  52  -4 227.465 9.99820   4
  16  52   6 18.6313 4.27900   4
  18  52   0 131.272 6.62338   4
  18  52  -2 23.2963 4.41134   4
  18  52  -4 180.994 7.98748   4
  -1  53   1 2.95078 6.04787   4
  -1  53  -1-1.92598 5.58277   4
   1  53   1 4.35559 6.25766   4
   1  53  -1 4.70156 6.21923   4
   1  53   3 12.5131 6.68866   4
  -1  53  -3 16.4744 5.28373   4
   3  53   1 27.8197 6.94612   4
   1  53  -3 13.8004 5.81288   4
   3  53  -1 19.2268 6.58035   4
   3  53   3 7.35085 6.86720   4
   3  53  -3 4.01359 6.21605   4
  -1  53  -5 63.6678 5.55291   4
   1  53  -5 83.2578 6.27338   4
   5  53   1 97.7529 8.01185   4
   5  53  -1 90.9690 7.85627   4
   3  53   5 22.5826 7.10214   4
   5  53   3 15.4475 6.78640   4
   3  53  -5 22.4695 6.10949   4
   5  53  -3 11.9709 6.56129   4
   5  53   5-5.68105 6.82107   4
   5  53  -5 0.61173 5.78269   4
   1  53  -7 44.5954 5.04767   4
   7  53   1 71.6023 7.66040   4
   7  53  -1 71.9903 7.34701   4
   7  53   3 22.1151 7.19317   4
   3  53  -7 15.8914 4.98839   4
   7  53  -3 24.5429 6.75125   4
   7  53   5 599.413 22.2626   4
   5  53  -7 557.795 21.6358   4
   7  53  -5 612.739 22.0676   4
   7  53  -7 0.83741 5.38712   4
   9  53   1 6.39524 6.19377   4
   9  53  -1 5.17451 6.49441   4
   9  53   3 26.6745 6.21739   4
   3  53  -9 18.4741 4.23864   4
   9  53  -3 18.9427 6.38312   4
   5  53  -9 24.2832 4.68900   4
   9  53  -5 18.4649 5.95301   4
   7  53  -9 14.6692 4.65794   4
   9  53  -7 19.7138 5.19608   4
   9  53  -9 4.17538 4.38788   4
  11  53  -1 33.9097 6.39856   4
  11  53  -3 70.5596 6.75547   4
  11  53  -5 30.7118 5.52185   4
  11  53  -7 171.383 8.39339   4
  11  53  -9 2.11186 4.10070   4
  13  53   3 16.6551 4.82647   4
  13  53   5 293.698 11.7977   4
  13  53  -5 280.436 11.7101   4
  13  53  -7 42.6984 4.48532   4
  15  53   1 18.4495 4.31693   4
  15  53  -1 24.1384 4.39035   4
   2  54   0 39.9192 5.27928   4
   2  54  -2 57.8583 5.15959   4
   4  54   0 418.496 16.1309   4
   4  54   2 735.752 25.0963   4
   4  54  -2 649.602 24.7774   4
   4  54  -4 572.650 20.7901   4
   6  54   0 408.990 15.8185   4
   6  54   2 73.7689 6.31537   4
   6  54  -2 70.7415 6.00844   4
   6  54  -4 260.380 10.7321   4
   8  54   0 5.56103 4.66417   4
   8  54   2 9.46647 5.13196   4
   8  54  -2 3.73736 4.40620   4
   8  54   4 72.7113 5.73637   4
   8  54  -4 54.5480 5.03971   4
  10  54   0 48.0110 4.75748   4
  10  54   2-4.15668 4.23960   4
  10  54  -2 11.3406 4.11711   4
  10  54  -4 7.39542 3.93260   4
   0   0   0    0.00    0.00   0

TITL XXJ-DMF-100K in Fm-3c
REM Fm-3c (#226 in standard setting)
CELL 1.54184  43.547448  43.547448  43.547448  90.0000  90.0000  90.0000
ZERR  353.00   0.000120   0.000120   0.000120   0.0000   0.0000   0.0000
LATT  4
SYMM -x,-y, z
SYMM -x, y,-z
SYMM  x,-y,-z
SYMM  z, x, y
SYMM  z,-x,-y
SYMM -z,-x, y
SYMM -z, x,-y
SYMM  y, z, x
SYMM -y, z,-x
SYMM  y,-z,-x
SYMM -y,-z, x
SYMM  y+1/2, x+1/2,-z+1/2
SYMM -y+1/2,-x+1/2,-z+1/2
SYMM  y+1/2,-x+1/2, z+1/2
SYMM -y+1/2, x+1/2, z+1/2
SYMM  x+1/2, z+1/2,-y+1/2
SYMM -x+1/2, z+1/2, y+1/2
SYMM -x+1/2,-z+1/2,-y+1/2
SYMM  x+1/2,-z+1/2, y+1/2
SYMM  z+1/2, y+1/2,-x+1/2
SYMM  z+1/2,-y+1/2, x+1/2
SYMM -z+1/2, y+1/2, x+1/2
SYMM -z+1/2,-y+1/2,-x+1/2
SFAC C H N O
UNIT 3883.00 3530.00 353.00 353.00
TREF
HKLF 4
END
;
_shelx_hkl_checksum              11853
_shelx_fab_file
;
    0    2    4   -719.93      0.00
    2    2    4   -981.28      0.00
    0    4    4    446.94      0.00
    2    4    4    118.79      0.00
    4    4    4   -679.07      0.00
    1    3    5   -218.52      0.00
    0    0    6   -596.37      0.00
    0    2    6   -539.89      0.00
    2    2    6    803.02      0.00
    0    4    6    113.28      0.00
    2    4    6   -116.89      0.00
    4    4    6   -202.49      0.00
    0    6    6   1063.95      0.00
    2    6    6   -129.31      0.00
    4    6    6   -184.17      0.00
    6    6    6     38.64      0.00
    1    3    7   -391.05      0.00
    1    5    7   -403.78      0.00
    3    5    7    -80.02      0.00
    0    0    8    932.07      0.00
    0    2    8     81.44      0.00
    2    2    8    149.06      0.00
    0    4    8    877.03      0.00
    2    4    8   -119.11      0.00
    4    4    8    164.02      0.00
    0    6    8   -951.47      0.00
    2    6    8    430.64      0.00
    4    6    8    -46.67      0.00
    6    6    8    219.46      0.00
    0    8    8    634.11      0.00
    2    8    8   -487.84      0.00
    4    8    8    236.28      0.00
    6    8    8    128.00      0.00
    8    8    8   -293.04      0.00
    1    3    9    -98.55      0.00
    1    5    9   -245.11      0.00
    3    5    9    -86.63      0.00
    1    7    9   -188.10      0.00
    3    7    9     83.44      0.00
    5    7    9    159.34      0.00
    0    2   10   -137.90      0.00
    2    2   10    285.45      0.00
    0    4   10   -131.69      0.00
    2    4   10   -455.35      0.00
    4    4   10    295.04      0.00
    0    6   10     17.11      0.00
    2    6   10    147.25      0.00
    4    6   10    -37.97      0.00
    6    6   10     50.60      0.00
    0    8   10   -109.38      0.00
    2    8   10      8.59      0.00
    4    8   10    132.48      0.00
    6    8   10    -72.61      0.00
    8    8   10     45.12      0.00
    0   10   10    -90.04      0.00
    2   10   10     83.59      0.00
    4   10   10   -271.84      0.00
    6   10   10    -79.06      0.00
    8   10   10   -146.39      0.00
   10   10   10    185.21      0.00
    1    3   11    138.12      0.00
    1    5   11    120.66      0.00
    3    5   11    234.97      0.00
    1    7   11    -88.10      0.00
    3    7   11     88.13      0.00
    5    7   11    159.10      0.00
    1    9   11   -100.85      0.00
    3    9   11    178.01      0.00
    5    9   11    140.73      0.00
    7    9   11    136.37      0.00
    0    0   12    628.41      0.00
    0    2   12   -575.34      0.00
    2    2   12   -257.74      0.00
    0    4   12    -65.85      0.00
    2    4   12     -2.52      0.00
    4    4   12   -160.55      0.00
    0    6   12    176.80      0.00
    2    6   12     -1.11      0.00
    4    6   12   -130.42      0.00
    6    6   12    282.48      0.00
    0    8   12    286.30      0.00
    2    8   12     90.38      0.00
    4    8   12     26.57      0.00
    6    8   12   -296.17      0.00
    8    8   12    185.77      0.00
    0   10   12   -159.12      0.00
    2   10   12    -68.83      0.00
    4   10   12   -134.56      0.00
    6   10   12    105.67      0.00
    8   10   12     55.58      0.00
   10   10   12    -67.35      0.00
    0   12   12    140.99      0.00
    2   12   12   -307.51      0.00
    4   12   12    135.56      0.00
    6   12   12   -158.30      0.00
    8   12   12    -61.84      0.00
   10   12   12     15.79      0.00
   12   12   12    132.88      0.00
    1    3   13    156.88      0.00
    1    5   13    111.09      0.00
    3    5   13   -102.25      0.00
    1    7   13     72.02      0.00
    3    7   13     -7.60      0.00
    5    7   13     32.79      0.00
    1    9   13    -51.30      0.00
    3    9   13     40.65      0.00
    5    9   13     75.00      0.00
    7    9   13    -21.82      0.00
    1   11   13      5.79      0.00
    3   11   13     41.62      0.00
    5   11   13    225.43      0.00
    7   11   13    -12.38      0.00
    9   11   13     11.86      0.00
    0    2   14     77.49      0.00
    2    2   14    442.14      0.00
    0    4   14    277.10      0.00
    2    4   14   -355.92      0.00
    4    4   14    163.90      0.00
    0    6   14    -35.20      0.00
    2    6   14    302.92      0.00
    4    6   14    -75.73      0.00
    6    6   14   -250.71      0.00
    0    8   14    258.74      0.00
    2    8   14    -52.60      0.00
    4    8   14    -97.57      0.00
    6    8   14    266.27      0.00
    8    8   14     49.57      0.00
    0   10   14     15.91      0.00
    2   10   14     46.75      0.00
    4   10   14    -37.74      0.00
    6   10   14    -60.29      0.00
    8   10   14    -23.43      0.00
   10   10   14     51.81      0.00
    0   12   14   -234.85      0.00
    2   12   14     89.74      0.00
    4   12   14    -18.16      0.00
    6   12   14     68.95      0.00
    8   12   14    -77.41      0.00
   10   12   14    -67.98      0.00
   12   12   14    122.59      0.00
    0   14   14     96.34      0.00
    2   14   14    126.20      0.00
    4   14   14    119.30      0.00
    6   14   14      9.78      0.00
    8   14   14    -54.82      0.00
   10   14   14    182.04      0.00
   12   14   14    143.31      0.00
   14   14   14     56.46      0.00
    1    3   15    -56.05      0.00
    1    5   15      1.03      0.00
    3    5   15    -25.16      0.00
    1    7   15    -10.72      0.00
    3    7   15   -202.71      0.00
    5    7   15   -243.68      0.00
    1    9   15     57.57      0.00
    3    9   15     11.81      0.00
    5    9   15    -81.83      0.00
    7    9   15     -9.20      0.00
    1   11   15    -55.44      0.00
    3   11   15    128.63      0.00
    5   11   15     51.19      0.00
    7   11   15     12.35      0.00
    9   11   15    -70.91      0.00
    1   13   15    -59.05      0.00
    3   13   15     77.13      0.00
    5   13   15     37.83      0.00
    7   13   15     54.71      0.00
    9   13   15    -72.25      0.00
   11   13   15     -5.38      0.00
    0    0   16    725.60      0.00
    0    2   16     32.60      0.00
    2    2   16    152.54      0.00
    0    4   16    253.17      0.00
    2    4   16    -49.56      0.00
    4    4   16     58.59      0.00
    0    6   16   -194.25      0.00
    2    6   16    100.52      0.00
    4    6   16   -163.29      0.00
    6    6   16    244.23      0.00
    0    8   16    230.85      0.00
    2    8   16    -63.20      0.00
    4    8   16     96.16      0.00
    6    8   16    -75.09      0.00
    8    8   16     79.65      0.00
    0   10   16    -38.94      0.00
    2   10   16    -21.93      0.00
    4   10   16    -57.28      0.00
    6   10   16     41.78      0.00
    8   10   16     23.31      0.00
   10   10   16   -190.46      0.00
    0   12   16    150.74      0.00
    2   12   16    -38.34      0.00
    4   12   16     90.46      0.00
    6   12   16   -125.70      0.00
    8   12   16     -8.22      0.00
   10   12   16     47.83      0.00
   12   12   16     64.10      0.00
    0   14   16    -23.10      0.00
    2   14   16     14.88      0.00
    4   14   16     40.19      0.00
    6   14   16     40.14      0.00
    8   14   16     18.53      0.00
   10   14   16     15.49      0.00
   12   14   16      1.68      0.00
   14   14   16    -40.49      0.00
    0   16   16     78.37      0.00
    2   16   16     57.06      0.00
    4   16   16     99.06      0.00
    6   16   16    -14.63      0.00
    8   16   16     39.55      0.00
   10   16   16     57.40      0.00
   12   16   16     92.75      0.00
   14   16   16    -73.71      0.00
   16   16   16     30.21      0.00
    1    3   17     69.63      0.00
    1    5   17     13.31      0.00
    3    5   17   -107.94      0.00
    1    7   17     27.40      0.00
    3    7   17    -24.86      0.00
    5    7   17     28.91      0.00
    1    9   17    -10.33      0.00
    3    9   17    -41.13      0.00
    5    9   17    -19.57      0.00
    7    9   17    -18.27      0.00
    1   11   17     31.81      0.00
    3   11   17    -36.08      0.00
    5   11   17     71.11      0.00
    7   11   17    -60.04      0.00
    9   11   17     30.75      0.00
    1   13   17     -7.24      0.00
    3   13   17    -22.33      0.00
    5   13   17    -15.67      0.00
    7   13   17    -33.05      0.00
    9   13   17     -6.81      0.00
   11   13   17      1.46      0.00
    1   15   17    -19.24      0.00
    3   15   17    -41.40      0.00
    5   15   17     11.50      0.00
    7   15   17    -47.89      0.00
    9   15   17     12.54      0.00
   11   15   17    -18.24      0.00
   13   15   17      0.02      0.00
    0    0   18    -30.80      0.00
    0    2   18   -210.48      0.00
    2    2   18    137.05      0.00
    0    4   18    -58.63      0.00
    2    4   18   -128.33      0.00
    4    4   18     27.57      0.00
    0    6   18    139.47      0.00
    2    6   18    -11.79      0.00
    4    6   18    -39.82      0.00
    6    6   18     17.19      0.00
    0    8   18    -73.53      0.00
    2    8   18    -35.69      0.00
    4    8   18     73.45      0.00
    6    8   18    -25.49      0.00
    8    8   18     47.71      0.00
    0   10   18    -79.11      0.00
    2   10   18    105.58      0.00
    4   10   18    -81.15      0.00
    6   10   18     11.69      0.00
    8   10   18    -55.35      0.00
   10   10   18     85.52      0.00
    0   12   18     -3.87      0.00
    2   12   18    -88.49      0.00
    4   12   18    -95.38      0.00
    6   12   18     67.81      0.00
    8   12   18    -32.46      0.00
   10   12   18    -33.29      0.00
   12   12   18    -96.82      0.00
    0   14   18    -14.67      0.00
    2   14   18     72.12      0.00
    4   14   18    -12.38      0.00
    6   14   18    -51.85      0.00
    8   14   18     26.69      0.00
   10   14   18     26.78      0.00
   12   14   18      4.09      0.00
   14   14   18     31.55      0.00
    0   16   18   -115.06      0.00
    2   16   18    -32.65      0.00
    4   16   18     21.34      0.00
    6   16   18    -18.93      0.00
    8   16   18    -64.15      0.00
   10   16   18    -23.92      0.00
   12   16   18    -48.99      0.00
   14   16   18     20.66      0.00
   16   16   18      6.69      0.00
    0   18   18      7.34      0.00
    2   18   18      0.32      0.00
    4   18   18     11.85      0.00
    6   18   18     19.53      0.00
    8   18   18    -28.40      0.00
   10   18   18     41.91      0.00
   12   18   18     44.72      0.00
   14   18   18     15.37      0.00
   16   18   18    -58.74      0.00
   18   18   18     95.68      0.00
    1    3   19     50.68      0.00
    1    5   19     42.54      0.00
    3    5   19    152.88      0.00
    1    7   19    -69.04      0.00
    3    7   19     28.38      0.00
    5    7   19     89.55      0.00
    1    9   19    -57.25      0.00
    3    9   19    105.23      0.00
    5    9   19     67.50      0.00
    7    9   19    107.19      0.00
    1   11   19     66.16      0.00
    3   11   19    -46.88      0.00
    5   11   19    -56.15      0.00
    7   11   19     41.90      0.00
    9   11   19     36.56      0.00
    1   13   19     25.90      0.00
    3   13   19     24.38      0.00
    5   13   19   -158.78      0.00
    7   13   19      2.29      0.00
    9   13   19      6.91      0.00
   11   13   19     29.28      0.00
    1   15   19     28.02      0.00
    3   15   19    -34.99      0.00
    5   15   19     25.66      0.00
    7   15   19     -9.80      0.00
    9   15   19     16.38      0.00
   11   15   19      7.61      0.00
   13   15   19     13.89      0.00
    1   17   19    -36.43      0.00
    3   17   19     35.45      0.00
    5   17   19    -44.08      0.00
    7   17   19     59.20      0.00
    9   17   19    -26.69      0.00
   11   17   19    -10.29      0.00
   13   17   19      4.99      0.00
   15   17   19     -1.22      0.00
    0    0   20    -80.64      0.00
    0    2   20   -151.83      0.00
    2    2   20    -36.87      0.00
    0    4   20    185.34      0.00
    2    4   20    -36.30      0.00
    4    4   20    -42.65      0.00
    0    6   20   -157.70      0.00
    2    6   20     91.73      0.00
    4    6   20     -8.64      0.00
    6    6   20    -14.89      0.00
    0    8   20     14.56      0.00
    2    8   20     32.36      0.00
    4    8   20    -23.05      0.00
    6    8   20     36.60      0.00
    8    8   20    -70.49      0.00
    0   10   20     32.29      0.00
    2   10   20    -99.80      0.00
    4   10   20     83.65      0.00
    6   10   20     -3.52      0.00
    8   10   20     47.42      0.00
   10   10   20    -42.55      0.00
    0   12   20     27.83      0.00
    2   12   20     61.19      0.00
    4   12   20     10.01      0.00
    6   12   20    -58.58      0.00
    8   12   20     73.17      0.00
   10   12   20     17.49      0.00
   12   12   20     29.64      0.00
    0   14   20     -6.44      0.00
    2   14   20    -35.89      0.00
    4   14   20    -32.39      0.00
    6   14   20     26.79      0.00
    8   14   20    -20.85      0.00
   10   14   20    -45.93      0.00
   12   14   20    -36.36      0.00
   14   14   20     43.32      0.00
    0   16   20     49.11      0.00
    2   16   20     10.12      0.00
    4   16   20     15.38      0.00
    6   16   20    -12.23      0.00
    8   16   20      6.02      0.00
   10   16   20      4.70      0.00
   12   16   20     70.90      0.00
   14   16   20     15.65      0.00
   16   16   20     33.90      0.00
    0   18   20   -113.21      0.00
    2   18   20    -18.55      0.00
    4   18   20      0.69      0.00
    6   18   20    -20.96      0.00
    8   18   20     -1.44      0.00
   10   18   20     12.40      0.00
   12   18   20    -31.62      0.00
   14   18   20    -61.50      0.00
   16   18   20    -26.30      0.00
   18   18   20      0.37      0.00
    0   20   20     41.52      0.00
    2   20   20    -12.69      0.00
    4   20   20    -10.09      0.00
    6   20   20     -4.56      0.00
    8   20   20     55.12      0.00
   10   20   20     32.10      0.00
   12   20   20     19.70      0.00
   14   20   20    -46.33      0.00
   16   20   20      1.81      0.00
   18   20   20     20.32      0.00
    1    3   21     26.84      0.00
    1    5   21    -54.36      0.00
    3    5   21    -63.82      0.00
    1    7   21    -76.18      0.00
    3    7   21     64.96      0.00
    5    7   21     88.44      0.00
    1    9   21     16.53      0.00
    3    9   21    -43.49      0.00
    5    9   21     38.65      0.00
    7    9   21     29.38      0.00
    1   11   21     43.29      0.00
    3   11   21    -20.33      0.00
    5   11   21      7.15      0.00
    7   11   21    -48.79      0.00
    9   11   21     58.77      0.00
    1   13   21     51.99      0.00
    3   13   21    -17.75      0.00
    5   13   21      7.18      0.00
    7   13   21     39.81      0.00
    9   13   21     14.69      0.00
   11   13   21     24.92      0.00
    1   15   21     -6.71      0.00
    3   15   21      4.27      0.00
    5   15   21     59.37      0.00
    7   15   21     -7.27      0.00
    9   15   21     12.99      0.00
   11   15   21    -18.70      0.00
   13   15   21     -0.63      0.00
    1   17   21     17.23      0.00
    3   17   21    -11.83      0.00
    5   17   21     23.91      0.00
    7   17   21     28.64      0.00
    9   17   21      9.22      0.00
   11   17   21     -4.89      0.00
   13   17   21     10.45      0.00
   15   17   21     32.63      0.00
    1   19   21     18.77      0.00
    3   19   21    -47.28      0.00
    5   19   21      1.51      0.00
    7   19   21    -14.34      0.00
    9   19   21     25.38      0.00
   11   19   21     -5.09      0.00
   13   19   21     -8.06      0.00
   15   19   21     18.60      0.00
   17   19   21      9.73      0.00
    0    0   22      0.14      0.00
    0    2   22     81.84      0.00
    2    2   22     98.01      0.00
    0    4   22     74.28      0.00
    2    4   22     14.41      0.00
    4    4   22     65.60      0.00
    0    6   22     80.43      0.00
    2    6   22    -26.24      0.00
    4    6   22     -1.35      0.00
    6    6   22    -37.12      0.00
    0    8   22    -41.82      0.00
    2    8   22    -60.89      0.00
    4    8   22     56.51      0.00
    6    8   22     59.50      0.00
    8    8   22    -32.97      0.00
    0   10   22     -6.02      0.00
    2   10   22     71.10      0.00
    4   10   22     -1.81      0.00
    6   10   22    -43.07      0.00
    8   10   22     -1.65      0.00
   10   10   22      9.84      0.00
    0   12   22      4.36      0.00
    2   12   22     16.60      0.00
    4   12   22      0.87      0.00
    6   12   22     27.88      0.00
    8   12   22    -42.38      0.00
   10   12   22     41.20      0.00
   12   12   22    -50.70      0.00
    0   14   22     54.30      0.00
    2   14   22     18.42      0.00
    4   14   22     17.57      0.00
    6   14   22     -0.34      0.00
    8   14   22     39.94      0.00
   10   14   22     28.78      0.00
   12   14   22     33.27      0.00
   14   14   22     -9.57      0.00
    0   16   22    -26.39      0.00
    2   16   22    -24.10      0.00
    4   16   22      5.37      0.00
    6   16   22     13.58      0.00
    8   16   22     15.94      0.00
   10   16   22     -7.67      0.00
   12   16   22    -35.80      0.00
   14   16   22    -14.43      0.00
   16   16   22    -17.86      0.00
    0   18   22     80.42      0.00
    2   18   22     26.03      0.00
    4   18   22     -6.64      0.00
    6   18   22    -20.30      0.00
    8   18   22     31.51      0.00
   10   18   22     34.33      0.00
   12   18   22     -8.43      0.00
   14   18   22     38.67      0.00
   16   18   22    -28.87      0.00
   18   18   22     10.69      0.00
    0   20   22    -15.26      0.00
    2   20   22     -4.59      0.00
    4   20   22    -19.37      0.00
    6   20   22     32.26      0.00
    8   20   22    -26.39      0.00
   10   20   22    -23.06      0.00
   12   20   22     -3.40      0.00
   14   20   22    -21.19      0.00
   16   20   22     -3.05      0.00
   18   20   22      6.62      0.00
   20   20   22    -38.70      0.00
    0   22   22     36.90      0.00
    2   22   22    -10.45      0.00
    4   22   22     47.31      0.00
    6   22   22     -8.11      0.00
    8   22   22     50.76      0.00
   10   22   22     -5.87      0.00
   12   22   22    -29.97      0.00
   14   22   22     38.43      0.00
   16   22   22     17.86      0.00
   18   22   22     -6.60      0.00
   20   22   22     14.68      0.00
   22   22   22      2.19      0.00
    1    3   23    -53.49      0.00
    1    5   23    -53.57      0.00
    3    5   23     29.11      0.00
    1    7   23     -0.21      0.00
    3    7   23    -71.15      0.00
    5    7   23    -60.32      0.00
    1    9   23     33.30      0.00
    3    9   23     55.99      0.00
    5    9   23    -63.30      0.00
    7    9   23    -28.25      0.00
    1   11   23     19.38      0.00
    3   11   23      4.48      0.00
    5   11   23    -23.37      0.00
    7   11   23     26.44      0.00
    9   11   23    -31.72      0.00
    1   13   23    -75.11      0.00
    3   13   23     20.75      0.00
    5   13   23     26.90      0.00
    7   13   23     32.32      0.00
    9   13   23    -32.82      0.00
   11   13   23    -21.35      0.00
    1   15   23    -15.63      0.00
    3   15   23     12.86      0.00
    5   15   23     38.61      0.00
    7   15   23     41.81      0.00
    9   15   23      6.02      0.00
   11   15   23    -24.41      0.00
   13   15   23     21.79      0.00
    1   17   23     18.61      0.00
    3   17   23     23.63      0.00
    5   17   23    -41.41      0.00
    7   17   23     30.71      0.00
    9   17   23    -18.79      0.00
   11   17   23     15.40      0.00
   13   17   23     12.03      0.00
   15   17   23      8.96      0.00
    1   19   23     24.20      0.00
    3   19   23    -24.87      0.00
    5   19   23    -33.44      0.00
    7   19   23     -1.35      0.00
    9   19   23     26.71      0.00
   11   19   23    -15.53      0.00
   13   19   23    -11.73      0.00
   15   19   23     13.67      0.00
   17   19   23      3.77      0.00
    1   21   23     -0.84      0.00
    3   21   23      8.53      0.00
    5   21   23    -37.73      0.00
    7   21   23     39.30      0.00
    9   21   23      1.03      0.00
   11   21   23     -5.74      0.00
   13   21   23    -12.44      0.00
   15   21   23    -12.41      0.00
   17   21   23     14.59      0.00
   19   21   23      4.58      0.00
    0    0   24    250.52      0.00
    0    2   24   -161.91      0.00
    2    2   24    165.55      0.00
    0    4   24    111.37      0.00
    2    4   24    -85.73      0.00
    4    4   24     25.25      0.00
    0    6   24   -160.97      0.00
    2    6   24     81.43      0.00
    4    6   24    -90.74      0.00
    6    6   24    168.34      0.00
    0    8   24     53.42      0.00
    2    8   24    -58.10      0.00
    4    8   24      5.47      0.00
    6    8   24    -44.47      0.00
    8    8   24     74.04      0.00
    0   10   24    -66.37      0.00
    2   10   24     18.01      0.00
    4   10   24    -27.98      0.00
    6   10   24      7.11      0.00
    8   10   24    -25.44      0.00
   10   10   24    -18.21      0.00
    0   12   24     54.31      0.00
    2   12   24    -27.80      0.00
    4   12   24      1.08      0.00
    6   12   24    -35.08      0.00
    8   12   24    -17.96      0.00
   10   12   24     -9.50      0.00
   12   12   24     77.03      0.00
    0   14   24   -127.44      0.00
    2   14   24      1.10      0.00
    4   14   24      5.71      0.00
    6   14   24      8.34      0.00
    8   14   24      0.26      0.00
   10   14   24     14.81      0.00
   12   14   24    -57.38      0.00
   14   14   24    -17.27      0.00
    0   16   24     33.60      0.00
    2   16   24      2.41      0.00
    4   16   24     -6.63      0.00
    6   16   24     -3.96      0.00
    8   16   24     42.38      0.00
   10   16   24      5.54      0.00
   12   16   24     18.14      0.00
   14   16   24    -30.41      0.00
   16   16   24     20.64      0.00
    0   18   24      7.82      0.00
    2   18   24     23.99      0.00
    4   18   24    -43.83      0.00
    6   18   24     33.20      0.00
    8   18   24    -41.72      0.00
   10   18   24    -21.24      0.00
   12   18   24      2.69      0.00
   14   18   24      4.15      0.00
   16   18   24      9.17      0.00
   18   18   24    -15.60      0.00
    0   20   24     56.76      0.00
    2   20   24     33.12      0.00
    4   20   24     23.28      0.00
    6   20   24    -35.17      0.00
    8   20   24     36.72      0.00
   10   20   24     -9.26      0.00
   12   20   24     -1.02      0.00
   14   20   24     49.44      0.00
   16   20   24     38.82      0.00
   18   20   24    -58.40      0.00
   20   20   24      2.63      0.00
    0   22   24    -39.21      0.00
    2   22   24      8.87      0.00
    4   22   24     -2.50      0.00
    6   22   24     49.81      0.00
    8   22   24    -20.29      0.00
   10   22   24    -13.79      0.00
   12   22   24    -12.31      0.00
   14   22   24     -9.27      0.00
   16   22   24    -22.24      0.00
   18   22   24     13.37      0.00
   20   22   24    -21.97      0.00
   22   22   24      5.03      0.00
    0   24   24     22.48      0.00
    2   24   24      7.38      0.00
    4   24   24      1.76      0.00
    6   24   24      1.73      0.00
    8   24   24     22.78      0.00
   10   24   24     12.56      0.00
   12   24   24     27.03      0.00
   14   24   24    -23.66      0.00
   16   24   24     31.99      0.00
   18   24   24     -7.88      0.00
   20   24   24     24.88      0.00
   22   24   24     -6.36      0.00
    1    3   25     46.54      0.00
    1    5   25     40.13      0.00
    3    5   25    -42.80      0.00
    1    7   25     58.81      0.00
    3    7   25     17.07      0.00
    5    7   25      4.83      0.00
    1    9   25     39.98      0.00
    3    9   25     -7.63      0.00
    5    9   25    -14.02      0.00
    7    9   25    -24.99      0.00
    1   11   25     -1.00      0.00
    3   11   25    -13.53      0.00
    5   11   25     62.51      0.00
    7   11   25    -46.16      0.00
    9   11   25    -13.28      0.00
    1   13   25    -26.40      0.00
    3   13   25    -10.12      0.00
    5   13   25     -3.31      0.00
    7   13   25     12.66      0.00
    9   13   25     -7.53      0.00
   11   13   25    -31.41      0.00
    1   15   25      6.92      0.00
    3   15   25    -48.62      0.00
    5   15   25      8.14      0.00
    7   15   25    -23.54      0.00
    9   15   25      0.52      0.00
   11   15   25     -3.46      0.00
   13   15   25    -21.47      0.00
    1   17   25      9.59      0.00
    3   17   25     -1.80      0.00
    5   17   25     -8.87      0.00
    7   17   25    -14.67      0.00
    9   17   25     12.24      0.00
   11   17   25     -5.79      0.00
   13   17   25     -5.20      0.00
   15   17   25     -7.76      0.00
    1   19   25      1.14      0.00
    3   19   25      8.67      0.00
    5   19   25     40.19      0.00
    7   19   25     -8.91      0.00
    9   19   25      9.60      0.00
   11   19   25      8.23      0.00
   13   19   25     -9.69      0.00
   15   19   25     -2.82      0.00
   17   19   25      6.49      0.00
    1   21   25    -13.51      0.00
    3   21   25    -18.92      0.00
    5   21   25      8.71      0.00
    7   21   25     -6.14      0.00
    9   21   25      6.35      0.00
   11   21   25    -34.47      0.00
   13   21   25    -18.61      0.00
   15   21   25    -16.99      0.00
   17   21   25     -5.50      0.00
   19   21   25    -19.11      0.00
    1   23   25     21.08      0.00
    3   23   25     -6.24      0.00
    5   23   25     16.27      0.00
    7   23   25      8.46      0.00
    9   23   25     15.26      0.00
   11   23   25      2.87      0.00
   13   23   25    -17.22      0.00
   15   23   25     11.82      0.00
   17   23   25      8.05      0.00
   19   23   25     -6.79      0.00
   21   23   25      8.91      0.00
    0    0   26     52.89      0.00
    0    2   26   -121.74      0.00
    2    2   26     41.90      0.00
    0    4   26     30.32      0.00
    2    4   26   -162.50      0.00
    4    4   26    103.80      0.00
    0    6   26    -32.55      0.00
    2    6   26     18.58      0.00
    4    6   26    -80.43      0.00
    6    6   26      6.88      0.00
    0    8   26     65.81      0.00
    2    8   26    -74.57      0.00
    4    8   26     17.63      0.00
    6    8   26     -3.97      0.00
    8    8   26     93.45      0.00
    0   10   26      3.93      0.00
    2   10   26     35.56      0.00
    4   10   26    -89.99      0.00
    6   10   26     48.60      0.00
    8   10   26    -10.76      0.00
   10   10   26     58.13      0.00
    0   12   26    -43.41      0.00
    2   12   26    -54.43      0.00
    4   12   26     70.91      0.00
    6   12   26    -38.33      0.00
    8   12   26      4.07      0.00
   10   12   26    -27.97      0.00
   12   12   26    -16.83      0.00
    0   14   26    -10.79      0.00
    2   14   26     32.24      0.00
    4   14   26    -26.72      0.00
    6   14   26     32.89      0.00
    8   14   26    -30.76      0.00
   10   14   26     33.34      0.00
   12   14   26      0.44      0.00
   14   14   26     18.38      0.00
    0   16   26      5.04      0.00
    2   16   26    -47.00      0.00
    4   16   26     31.68      0.00
    6   16   26    -30.95      0.00
    8   16   26     -3.27      0.00
   10   16   26    -18.65      0.00
   12   16   26      5.14      0.00
   14   16   26    -34.15      0.00
   16   16   26     42.04      0.00
    0   18   26     12.53      0.00
    2   18   26     21.43      0.00
    4   18   26    -20.07      0.00
    6   18   26     -4.05      0.00
    8   18   26      3.63      0.00
   10   18   26     32.87      0.00
   12   18   26    -35.36      0.00
   14   18   26     78.52      0.00
   16   18   26    -17.22      0.00
   18   18   26     21.52      0.00
    0   20   26     -1.43      0.00
    2   20   26    -36.39      0.00
    4   20   26      6.57      0.00
    6   20   26     -1.77      0.00
    8   20   26      8.06      0.00
   10   20   26    -37.36      0.00
   12   20   26     29.16      0.00
   14   20   26    -35.17      0.00
   16   20   26      8.68      0.00
   18   20   26    -30.24      0.00
   20   20   26    -12.42      0.00
    0   22   26     27.55      0.00
    2   22   26     13.87      0.00
    4   22   26    -15.19      0.00
    6   22   26      2.60      0.00
    8   22   26    -10.76      0.00
   10   22   26     51.91      0.00
   12   22   26     -6.59      0.00
   14   22   26     19.48      0.00
   16   22   26    -12.48      0.00
   18   22   26      9.78      0.00
   20   22   26    -32.29      0.00
   22   22   26     10.28      0.00
    0   24   26    -18.01      0.00
    2   24   26    -11.88      0.00
    4   24   26      6.43      0.00
    6   24   26    -48.42      0.00
    8   24   26     -0.33      0.00
   10   24   26      0.70      0.00
   12   24   26     12.58      0.00
   14   24   26      2.42      0.00
   16   24   26     -3.69      0.00
   18   24   26     -6.61      0.00
   20   24   26      6.52      0.00
   22   24   26    -21.21      0.00
   24   24   26     -2.14      0.00
    0   26   26     17.65      0.00
    2   26   26      4.55      0.00
    4   26   26    -39.31      0.00
    6   26   26     34.96      0.00
    8   26   26    -33.32      0.00
   10   26   26     18.97      0.00
   12   26   26     -0.36      0.00
   14   26   26     45.00      0.00
   16   26   26    -10.05      0.00
   18   26   26     26.93      0.00
   20   26   26    -32.77      0.00
   22   26   26     20.58      0.00
   24   26   26     -1.94      0.00
   26   26   26      3.90      0.00
    1    3   27     35.76      0.00
    1    5   27     64.18      0.00
    3    5   27     58.11      0.00
    1    7   27     -6.14      0.00
    3    7   27     -3.60      0.00
    5    7   27     -6.82      0.00
    1    9   27    -31.54      0.00
    3    9   27     48.07      0.00
    5    9   27     15.49      0.00
    7    9   27     30.95      0.00
    1   11   27      8.74      0.00
    3   11   27     17.27      0.00
    5   11   27     11.97      0.00
    7   11   27      2.41      0.00
    9   11   27      3.76      0.00
    1   13   27     37.77      0.00
    3   13   27      5.48      0.00
    5   13   27    -67.70      0.00
    7   13   27     31.81      0.00
    9   13   27    -30.69      0.00
   11   13   27      1.13      0.00
    1   15   27     24.62      0.00
    3   15   27    -22.59      0.00
    5   15   27    -31.25      0.00
    7   15   27    -20.53      0.00
    9   15   27     30.50      0.00
   11   15   27    -28.33      0.00
   13   15   27    -25.81      0.00
    1   17   27    -23.30      0.00
    3   17   27     46.81      0.00
    5   17   27     -4.26      0.00
    7   17   27     22.41      0.00
    9   17   27      1.91      0.00
   11   17   27     13.28      0.00
   13   17   27    -12.76      0.00
   15   17   27    -17.66      0.00
    1   19   27    -53.40      0.00
    3   19   27      5.88      0.00
    5   19   27     22.39      0.00
    7   19   27    -17.29      0.00
    9   19   27    -34.09      0.00
   11   19   27      3.23      0.00
   13   19   27     -7.02      0.00
   15   19   27    -15.28      0.00
   17   19   27    -31.64      0.00
    1   21   27    -11.17      0.00
    3   21   27     47.14      0.00
    5   21   27     -1.44      0.00
    7   21   27     21.86      0.00
    9   21   27    -10.37      0.00
   11   21   27     18.85      0.00
   13   21   27     14.49      0.00
   15   21   27     17.86      0.00
   17   21   27     -0.24      0.00
   19   21   27     13.92      0.00
    1   23   27     19.95      0.00
    3   23   27    -11.73      0.00
    5   23   27     -8.00      0.00
    7   23   27     -3.12      0.00
    9   23   27      1.22      0.00
   11   23   27    -20.23      0.00
   13   23   27     -6.42      0.00
   15   23   27      0.02      0.00
   17   23   27     -7.67      0.00
   19   23   27     -2.85      0.00
   21   23   27    -14.64      0.00
    1   25   27     21.35      0.00
    3   25   27     17.50      0.00
    5   25   27    -13.23      0.00
    7   25   27     22.79      0.00
    9   25   27      9.51      0.00
   11   25   27     -3.18      0.00
   13   25   27      0.02      0.00
   15   25   27      7.68      0.00
   17   25   27      7.86      0.00
   19   25   27     13.38      0.00
   21   25   27     -4.93      0.00
   23   25   27     15.40      0.00
    0    0   28    153.83      0.00
    0    2   28     -4.78      0.00
    2    2   28     30.57      0.00
    0    4   28     16.28      0.00
    2    4   28    -26.33      0.00
    4    4   28    -16.78      0.00
    0    6   28    -79.83      0.00
    2    6   28     23.36      0.00
    4    6   28    -28.45      0.00
    6    6   28      4.39      0.00
    0    8   28     94.47      0.00
    2    8   28     -5.89      0.00
    4    8   28    -21.40      0.00
    6    8   28    -13.90      0.00
    8    8   28     60.26      0.00
    0   10   28    -16.68      0.00
    2   10   28      3.07      0.00
    4   10   28     -3.15      0.00
    6   10   28     15.11      0.00
    8   10   28     19.34      0.00
   10   10   28    -14.78      0.00
    0   12   28     64.61      0.00
    2   12   28     13.98      0.00
    4   12   28     41.88      0.00
    6   12   28    -11.09      0.00
    8   12   28     57.19      0.00
   10   12   28    -23.07      0.00
   12   12   28     34.49      0.00
    0   14   28    -33.84      0.00
    2   14   28     29.75      0.00
    4   14   28      5.23      0.00
    6   14   28     17.47      0.00
    8   14   28    -47.88      0.00
   10   14   28      9.28      0.00
   12   14   28    -19.02      0.00
   14   14   28     -5.77      0.00
    0   16   28     64.51      0.00
    2   16   28      3.62      0.00
    4   16   28     20.77      0.00
    6   16   28    -44.67      0.00
    8   16   28     48.41      0.00
   10   16   28    -24.20      0.00
   12   16   28     49.45      0.00
   14   16   28     -9.19      0.00
   16   16   28     32.76      0.00
    0   18   28    -70.80      0.00
    2   18   28      3.42      0.00
    4   18   28    -21.77      0.00
    6   18   28     18.54      0.00
    8   18   28    -24.08      0.00
   10   18   28      5.21      0.00
   12   18   28    -31.64      0.00
   14   18   28     -0.38      0.00
   16   18   28    -26.78      0.00
   18   18   28      8.23      0.00
    0   20   28      9.17      0.00
    2   20   28    -26.38      0.00
    4   20   28      1.82      0.00
    6   20   28     -4.46      0.00
    8   20   28     26.03      0.00
   10   20   28     -4.73      0.00
   12   20   28     31.28      0.00
   14   20   28    -40.99      0.00
   16   20   28     25.25      0.00
   18   20   28    -24.96      0.00
   20   20   28     -1.97      0.00
    0   22   28    -39.86      0.00
    2   22   28     -8.23      0.00
    4   22   28     -7.41      0.00
    6   22   28    -29.28      0.00
    8   22   28     -9.60      0.00
   10   22   28      8.68      0.00
   12   22   28    -15.33      0.00
   14   22   28     10.64      0.00
   16   22   28    -38.99      0.00
   18   22   28      0.99      0.00
   20   22   28    -11.88      0.00
   22   22   28    -34.29      0.00
    0   24   28     31.06      0.00
    2   24   28      9.68      0.00
    4   24   28    -10.43      0.00
    6   24   28     -5.01      0.00
    8   24   28      6.59      0.00
   10   24   28    -20.02      0.00
   12   24   28     44.62      0.00
   14   24   28    -10.20      0.00
   16   24   28     30.52      0.00
   18   24   28    -16.75      0.00
   20   24   28    -10.43      0.00
   22   24   28    -14.78      0.00
   24   24   28     13.41      0.00
    0   26   28    -12.30      0.00
    2   26   28    -25.60      0.00
    4   26   28     18.11      0.00
    6   26   28      1.56      0.00
    8   26   28      5.10      0.00
   10   26   28    -13.84      0.00
   12   26   28    -14.02      0.00
   14   26   28    -10.19      0.00
   16   26   28     20.60      0.00
   18   26   28     -6.78      0.00
   20   26   28      1.86      0.00
   22   26   28      5.77      0.00
   24   26   28     16.25      0.00
   26   26   28     -6.98      0.00
    0   28   28     -4.51      0.00
    2   28   28     -5.72      0.00
    4   28   28      2.68      0.00
    6   28   28      2.48      0.00
    8   28   28     30.57      0.00
   10   28   28    -40.01      0.00
   12   28   28      2.33      0.00
   14   28   28     -3.69      0.00
   16   28   28     -2.45      0.00
   18   28   28     -4.75      0.00
   20   28   28      1.16      0.00
   22   28   28      2.43      0.00
   24   28   28      1.32      0.00
   26   28   28     -1.86      0.00
   28   28   28    -11.52      0.00
    1    3   29     33.33      0.00
    1    5   29      1.42      0.00
    3    5   29    -21.08      0.00
    1    7   29    -20.66      0.00
    3    7   29     -5.16      0.00
    5    7   29     19.14      0.00
    1    9   29    -23.22      0.00
    3    9   29    -13.87      0.00
    5    9   29      7.96      0.00
    7    9   29     -5.28      0.00
    1   11   29     15.95      0.00
    3   11   29     -8.86      0.00
    5   11   29     15.47      0.00
    7   11   29    -14.14      0.00
    9   11   29      2.73      0.00
    1   13   29     21.77      0.00
    3   13   29      6.00      0.00
    5   13   29     -7.47      0.00
    7   13   29     -1.48      0.00
    9   13   29     18.73      0.00
   11   13   29    -10.03      0.00
    1   15   29     13.90      0.00
    3   15   29    -14.26      0.00
    5   15   29     16.06      0.00
    7   15   29     -2.58      0.00
    9   15   29     22.95      0.00
   11   15   29     -8.53      0.00
   13   15   29    -24.25      0.00
    1   17   29    -30.04      0.00
    3   17   29      2.55      0.00
    5   17   29     -8.72      0.00
    7   17   29      3.40      0.00
    9   17   29    -18.71      0.00
   11   17   29     11.19      0.00
   13   17   29    -12.96      0.00
   15   17   29    -18.84      0.00
    1   19   29     -1.47      0.00
    3   19   29      7.84      0.00
    5   19   29     38.19      0.00
    7   19   29    -40.78      0.00
    9   19   29     31.15      0.00
   11   19   29     22.80      0.00
   13   19   29     23.87      0.00
   15   19   29     10.32      0.00
   17   19   29     10.21      0.00
    1   21   29    -12.73      0.00
    3   21   29     -9.45      0.00
    5   21   29    -19.79      0.00
    7   21   29    -23.04      0.00
    9   21   29    -20.14      0.00
   11   21   29    -12.09      0.00
   13   21   29     11.69      0.00
   15   21   29    -15.42      0.00
   17   21   29     -1.51      0.00
   19   21   29    -19.13      0.00
    1   23   29     24.69      0.00
    3   23   29      1.03      0.00
    5   23   29     19.64      0.00
    7   23   29      5.33      0.00
    9   23   29     15.43      0.00
   11   23   29      9.43      0.00
   13   23   29     -8.02      0.00
   15   23   29     23.50      0.00
   17   23   29     24.52      0.00
   19   23   29      8.00      0.00
   21   23   29     25.40      0.00
    1   25   29     -1.10      0.00
    3   25   29     -5.42      0.00
    5   25   29    -16.30      0.00
    7   25   29      2.71      0.00
    9   25   29    -13.60      0.00
   11   25   29     -9.67      0.00
   13   25   29    -11.75      0.00
   15   25   29     -3.90      0.00
   17   25   29     -8.60      0.00
   19   25   29     -0.32      0.00
   21   25   29      1.39      0.00
   23   25   29     -5.16      0.00
    1   27   29      6.07      0.00
    3   27   29    -17.17      0.00
    5   27   29      6.43      0.00
    7   27   29    -17.31      0.00
    9   27   29      9.22      0.00
   11   27   29     -6.11      0.00
   13   27   29      2.03      0.00
   15   27   29     -2.10      0.00
   17   27   29      6.20      0.00
   19   27   29    -17.12      0.00
   21   27   29     19.97      0.00
   23   27   29     -6.39      0.00
   25   27   29      5.31      0.00
    0    0   30     89.93      0.00
    0    2   30     39.12      0.00
    2    2   30     79.87      0.00
    0    4   30     -5.09      0.00
    2    4   30    -25.95      0.00
    4    4   30      9.10      0.00
    0    6   30     37.33      0.00
    2    6   30     13.77      0.00
    4    6   30     -0.49      0.00
    6    6   30     12.67      0.00
    0    8   30    -45.10      0.00
    2    8   30      4.08      0.00
    4    8   30    -19.46      0.00
    6    8   30     18.06      0.00
    8    8   30    -71.40      0.00
    0   10   30     47.08      0.00
    2   10   30     33.34      0.00
    4   10   30     20.28      0.00
    6   10   30    -10.53      0.00
    8   10   30     24.32      0.00
   10   10   30     28.94      0.00
    0   12   30    -34.11      0.00
    2   12   30     23.11      0.00
    4   12   30    -44.19      0.00
    6   12   30     53.55      0.00
    8   12   30    -62.34      0.00
   10   12   30      7.90      0.00
   12   12   30    -28.76      0.00
    0   14   30     43.81      0.00
    2   14   30      9.97      0.00
    4   14   30     15.92      0.00
    6   14   30    -14.22      0.00
    8   14   30     40.03      0.00
   10   14   30     32.15      0.00
   12   14   30    -21.83      0.00
   14   14   30     39.52      0.00
    0   16   30    -43.67      0.00
    2   16   30      9.12      0.00
    4   16   30    -16.86      0.00
    6   16   30     22.01      0.00
    8   16   30    -33.62      0.00
   10   16   30     11.26      0.00
   12   16   30    -21.41      0.00
   14   16   30    -13.04      0.00
   16   16   30    -19.77      0.00
    0   18   30     50.64      0.00
    2   18   30      8.28      0.00
    4   18   30      3.38      0.00
    6   18   30     24.97      0.00
    8   18   30     -6.00      0.00
   10   18   30     18.12      0.00
   12   18   30      8.45      0.00
   14   18   30      5.70      0.00
   16   18   30     -3.73      0.00
   18   18   30     -4.98      0.00
    0   20   30    -48.78      0.00
    2   20   30      8.66      0.00
    4   20   30     -0.05      0.00
    6   20   30    -12.56      0.00
    8   20   30    -13.21      0.00
   10   20   30      1.82      0.00
   12   20   30    -35.26      0.00
   14   20   30     18.96      0.00
   16   20   30    -27.22      0.00
   18   20   30     -2.77      0.00
   20   20   30      1.41      0.00
    0   22   30     33.21      0.00
    2   22   30     -3.34      0.00
    4   22   30     -1.31      0.00
    6   22   30     17.85      0.00
    8   22   30     -3.48      0.00
   10   22   30      1.99      0.00
   12   22   30     15.10      0.00
   14   22   30     -5.44      0.00
   16   22   30     18.20      0.00
   18   22   30      9.12      0.00
   20   22   30    -17.24      0.00
   22   22   30     -0.94      0.00
    0   24   30    -27.96      0.00
    2   24   30     12.22      0.00
    4   24   30     -4.55      0.00
    6   24   30     40.64      0.00
    8   24   30    -28.89      0.00
   10   24   30     19.13      0.00
   12   24   30    -34.92      0.00
   14   24   30      5.31      0.00
   16   24   30     -7.11      0.00
   18   24   30     14.62      0.00
   20   24   30    -11.08      0.00
   22   24   30      5.20      0.00
   24   24   30      0.89      0.00
    0   26   30      1.22      0.00
    2   26   30     12.61      0.00
    4   26   30      2.80      0.00
    6   26   30     10.55      0.00
    8   26   30      2.83      0.00
   10   26   30     -3.12      0.00
   12   26   30    -17.26      0.00
   14   26   30     21.18      0.00
   16   26   30    -15.27      0.00
   18   26   30     10.85      0.00
   20   26   30    -10.55      0.00
   22   26   30     -1.77      0.00
   24   26   30     -3.04      0.00
   26   26   30     -1.77      0.00
    0   28   30     10.71      0.00
    2   28   30     10.78      0.00
    4   28   30    -12.54      0.00
    6   28   30     24.44      0.00
    8   28   30    -11.19      0.00
   10   28   30     17.70      0.00
   12   28   30      5.50      0.00
   14   28   30     -5.34      0.00
   16   28   30     11.50      0.00
   18   28   30     10.42      0.00
   20   28   30      6.81      0.00
   22   28   30      2.95      0.00
   24   28   30      4.88      0.00
   26   28   30      1.91      0.00
   28   28   30      7.71      0.00
    0   30   30     21.01      0.00
    2   30   30     -3.31      0.00
    4   30   30     -6.87      0.00
    6   30   30     -0.80      0.00
    8   30   30    -21.31      0.00
   10   30   30      9.59      0.00
   12   30   30    -12.14      0.00
   14   30   30      9.88      0.00
   16   30   30    -19.57      0.00
   18   30   30      0.49      0.00
   20   30   30     -5.80      0.00
   22   30   30     -4.08      0.00
   24   30   30    -16.88      0.00
   26   30   30    -12.96      0.00
   28   30   30     23.07      0.00
   30   30   30    -55.47      0.00
    1    3   31     -6.12      0.00
    1    5   31      0.86      0.00
    3    5   31     13.65      0.00
    1    7   31      4.92      0.00
    3    7   31     -9.48      0.00
    5    7   31    -11.61      0.00
    1    9   31     -3.93      0.00
    3    9   31     12.49      0.00
    5    9   31    -33.27      0.00
    7    9   31    -18.93      0.00
    1   11   31     -5.59      0.00
    3   11   31      3.77      0.00
    5   11   31      3.19      0.00
    7   11   31    -10.16      0.00
    9   11   31      4.71      0.00
    1   13   31    -45.21      0.00
    3   13   31      7.14      0.00
    5   13   31     -1.56      0.00
    7   13   31     14.07      0.00
    9   13   31    -15.29      0.00
   11   13   31     -8.05      0.00
    1   15   31    -36.43      0.00
    3   15   31      2.90      0.00
    5   15   31     17.50      0.00
    7   15   31     -8.68      0.00
    9   15   31      5.76      0.00
   11   15   31     -7.30      0.00
   13   15   31     12.87      0.00
    1   17   31      4.50      0.00
    3   17   31      3.13      0.00
    5   17   31    -21.67      0.00
    7   17   31    -13.67      0.00
    9   17   31     19.72      0.00
   11   17   31      6.19      0.00
   13   17   31     17.24      0.00
   15   17   31     10.55      0.00
    1   19   31      3.18      0.00
    3   19   31    -12.33      0.00
    5   19   31    -40.45      0.00
    7   19   31     -6.43      0.00
    9   19   31    -11.66      0.00
   11   19   31      8.72      0.00
   13   19   31      0.87      0.00
   15   19   31      4.54      0.00
   17   19   31     -6.55      0.00
    1   21   31     11.27      0.00
    3   21   31      8.87      0.00
    5   21   31     -0.50      0.00
    7   21   31     17.43      0.00
    9   21   31     22.24      0.00
   11   21   31      1.56      0.00
   13   21   31      0.04      0.00
   15   21   31      4.44      0.00
   17   21   31     18.24      0.00
   19   21   31     22.29      0.00
    1   23   31    -19.25      0.00
    3   23   31     -4.66      0.00
    5   23   31      0.61      0.00
    7   23   31     -4.67      0.00
    9   23   31     -4.86      0.00
   11   23   31    -12.96      0.00
   13   23   31     -8.61      0.00
   15   23   31     -6.27      0.00
   17   23   31     -5.04      0.00
   19   23   31      0.38      0.00
   21   23   31     -4.18      0.00
    1   25   31     -7.34      0.00
    3   25   31     -1.91      0.00
    5   25   31     -5.12      0.00
    7   25   31     -0.88      0.00
    9   25   31     10.07      0.00
   11   25   31    -12.82      0.00
   13   25   31     21.99      0.00
   15   25   31      0.49      0.00
   17   25   31      0.71      0.00
   19   25   31      7.86      0.00
   21   25   31      0.70      0.00
   23   25   31     10.96      0.00
    1   27   31     -4.46      0.00
    3   27   31     -1.57      0.00
    5   27   31    -14.93      0.00
    7   27   31     -8.01      0.00
    9   27   31    -11.69      0.00
   11   27   31     10.37      0.00
   13   27   31     -1.13      0.00
   15   27   31      0.05      0.00
   17   27   31    -10.89      0.00
   19   27   31     -7.19      0.00
   21   27   31     -1.46      0.00
   23   27   31     -0.45      0.00
   25   27   31     -7.25      0.00
    1   29   31      4.92      0.00
    3   29   31     -1.76      0.00
    5   29   31     -6.11      0.00
    7   29   31      0.21      0.00
    9   29   31      2.74      0.00
   11   29   31     -1.48      0.00
   13   29   31     13.59      0.00
   15   29   31     -0.71      0.00
   17   29   31     -2.39      0.00
   19   29   31      2.91      0.00
   21   29   31     -4.70      0.00
   23   29   31      3.96      0.00
   25   29   31     -5.63      0.00
   27   29   31     -3.64      0.00
    0    0   32     52.53      0.00
    0    2   32    -90.36      0.00
    2    2   32     -6.21      0.00
    0    4   32     86.43      0.00
    2    4   32    -21.14      0.00
    4    4   32     15.64      0.00
    0    6   32    -32.31      0.00
    2    6   32     -8.07      0.00
    4    6   32     -0.31      0.00
    6    6   32    -17.57      0.00
    0    8   32     30.21      0.00
    2    8   32      9.99      0.00
    4    8   32     46.08      0.00
    6    8   32      4.62      0.00
    8    8   32     24.35      0.00
    0   10   32    -25.01      0.00
    2   10   32    -40.85      0.00
    4   10   32     14.13      0.00
    6   10   32    -43.27      0.00
    8   10   32     13.77      0.00
   10   10   32    -64.78      0.00
    0   12   32     41.04      0.00
    2   12   32      6.66      0.00
    4   12   32     22.68      0.00
    6   12   32    -13.20      0.00
    8   12   32     33.77      0.00
   10   12   32     53.76      0.00
   12   12   32      6.56      0.00
    0   14   32    -36.19      0.00
    2   14   32    -49.60      0.00
    4   14   32      4.70      0.00
    6   14   32    -23.96      0.00
    8   14   32     25.57      0.00
   10   14   32    -64.83      0.00
   12   14   32     28.92      0.00
   14   14   32    -49.40      0.00
    0   16   32      9.01      0.00
    2   16   32      6.37      0.00
    4   16   32      5.71      0.00
    6   16   32     22.07      0.00
    8   16   32     17.46      0.00
   10   16   32     11.54      0.00
   12   16   32     14.30      0.00
   14   16   32      3.83      0.00
   16   16   32     10.49      0.00
    0   18   32     11.08      0.00
    2   18   32    -17.01      0.00
    4   18   32     36.81      0.00
    6   18   32    -47.10      0.00
    8   18   32     28.58      0.00
   10   18   32    -34.44      0.00
   12   18   32     10.26      0.00
   14   18   32     -3.39      0.00
   16   18   32    -16.79      0.00
   18   18   32    -10.88      0.00
    0   20   32     33.53      0.00
    2   20   32     26.57      0.00
    4   20   32    -23.07      0.00
    6   20   32     14.70      0.00
    8   20   32     -5.04      0.00
   10   20   32     -0.32      0.00
   12   20   32     29.21      0.00
   14   20   32     -0.56      0.00
   16   20   32     33.23      0.00
   18   20   32     -0.95      0.00
   20   20   32    -15.31      0.00
    0   22   32      3.68      0.00
    2   22   32    -31.88      0.00
    4   22   32     27.95      0.00
    6   22   32    -12.46      0.00
    8   22   32     17.30      0.00
   10   22   32    -22.78      0.00
   12   22   32     -7.32      0.00
   14   22   32     -5.99      0.00
   16   22   32     10.52      0.00
   18   22   32     -0.71      0.00
   20   22   32      7.47      0.00
   22   22   32     -2.95      0.00
    0   24   32     -5.48      0.00
    2   24   32     15.17      0.00
    4   24   32     17.37      0.00
    6   24   32     -2.72      0.00
    8   24   32     38.33      0.00
   10   24   32    -22.39      0.00
   12   24   32     10.42      0.00
   14   24   32     -5.81      0.00
   16   24   32      3.78      0.00
   18   24   32      2.67      0.00
   20   24   32      9.72      0.00
   22   24   32     -4.19      0.00
   24   24   32      4.86      0.00
    0   26   32     39.92      0.00
    2   26   32    -27.19      0.00
    4   26   32     21.02      0.00
    6   26   32     -4.63      0.00
    8   26   32      1.84      0.00
   10   26   32     -8.00      0.00
   12   26   32     31.35      0.00
   14   26   32    -23.35      0.00
   16   26   32     15.26      0.00
   18   26   32      3.39      0.00
   20   26   32      9.19      0.00
   22   26   32     -8.44      0.00
   24   26   32     -2.45      0.00
   26   26   32    -20.47      0.00
    0   28   32      5.79      0.00
    2   28   32      6.20      0.00
    4   28   32      1.85      0.00
    6   28   32    -31.80      0.00
    8   28   32     -4.57      0.00
   10   28   32    -12.54      0.00
   12   28   32     17.12      0.00
   14   28   32     -1.95      0.00
   16   28   32     -3.06      0.00
   18   28   32     -7.94      0.00
   20   28   32      1.58      0.00
   22   28   32    -12.99      0.00
   24   28   32    -34.34      0.00
   26   28   32      1.41      0.00
   28   28   32      3.27      0.00
    0   30   32      8.33      0.00
    2   30   32     14.02      0.00
    4   30   32     10.74      0.00
    6   30   32     12.67      0.00
    8   30   32     28.70      0.00
   10   30   32     -0.66      0.00
   12   30   32      4.77      0.00
   14   30   32      9.71      0.00
   16   30   32      6.75      0.00
   18   30   32     14.52      0.00
   20   30   32     10.71      0.00
   22   30   32     13.87      0.00
   24   30   32      4.44      0.00
   26   30   32     -2.02      0.00
   28   30   32      2.13      0.00
   30   30   32     -8.04      0.00
    0   32   32     14.21      0.00
    2   32   32    -30.09      0.00
    4   32   32    -10.18      0.00
    6   32   32     -3.84      0.00
    8   32   32      3.96      0.00
   10   32   32    -34.04      0.00
   12   32   32     -3.82      0.00
   14   32   32    -21.33      0.00
   16   32   32      3.38      0.00
   18   32   32    -22.16      0.00
   20   32   32     -1.71      0.00
   22   32   32    -11.01      0.00
   24   32   32     -8.31      0.00
   26   32   32      4.46      0.00
   28   32   32    -39.16      0.00
   30   32   32    -24.59      0.00
    1    3   33      7.34      0.00
    1    5   33      7.30      0.00
    3    5   33      9.17      0.00
    1    7   33      5.53      0.00
    3    7   33      7.24      0.00
    5    7   33      2.00      0.00
    1    9   33     18.60      0.00
    3    9   33     12.43      0.00
    5    9   33     -1.10      0.00
    7    9   33     18.04      0.00
    1   11   33    -20.49      0.00
    3   11   33    -15.02      0.00
    5   11   33      4.89      0.00
    7   11   33    -24.30      0.00
    9   11   33    -10.92      0.00
    1   13   33    -31.74      0.00
    3   13   33     34.32      0.00
    5   13   33     20.09      0.00
    7   13   33     19.29      0.00
    9   13   33     -9.45      0.00
   11   13   33     28.15      0.00
    1   15   33    -21.32      0.00
    3   15   33    -12.85      0.00
    5   15   33      4.46      0.00
    7   15   33    -17.14      0.00
    9   15   33    -13.90      0.00
   11   15   33      9.53      0.00
   13   15   33     -8.72      0.00
    1   17   33      0.57      0.00
    3   17   33      2.89      0.00
    5   17   33    -23.86      0.00
    7   17   33      2.75      0.00
    9   17   33     -9.97      0.00
   11   17   33     19.34      0.00
   13   17   33      9.00      0.00
   15   17   33     17.40      0.00
    1   19   33     15.58      0.00
    3   19   33    -17.57      0.00
    5   19   33      0.12      0.00
    7   19   33      5.34      0.00
    9   19   33     16.75      0.00
   11   19   33     -0.29      0.00
   13   19   33    -22.56      0.00
   15   19   33     12.73      0.00
   17   19   33      5.04      0.00
    1   21   33    -14.68      0.00
    3   21   33      9.36      0.00
    5   21   33      2.84      0.00
    7   21   33     13.99      0.00
    9   21   33      3.36      0.00
   11   21   33     -8.70      0.00
   13   21   33     -9.42      0.00
   15   21   33      0.49      0.00
   17   21   33    -11.97      0.00
   19   21   33     -4.70      0.00
    1   23   33      5.40      0.00
    3   23   33     -2.64      0.00
    5   23   33      7.43      0.00
    7   23   33     14.21      0.00
    9   23   33     -0.95      0.00
   11   23   33     22.90      0.00
   13   23   33      1.89      0.00
   15   23   33     12.96      0.00
   17   23   33     -2.43      0.00
   19   23   33      2.73      0.00
   21   23   33      5.63      0.00
    1   25   33      2.25      0.00
    3   25   33     13.41      0.00
    5   25   33    -11.52      0.00
    7   25   33     -9.02      0.00
    9   25   33     -6.39      0.00
   11   25   33     22.19      0.00
   13   25   33     -6.67      0.00
   15   25   33     15.55      0.00
   17   25   33    -14.15      0.00
   19   25   33     -4.76      0.00
   21   25   33     -1.09      0.00
   23   25   33     -0.11      0.00
    1   27   33     11.06      0.00
    3   27   33    -13.09      0.00
    5   27   33      0.28      0.00
    7   27   33      2.41      0.00
    9   27   33     -0.69      0.00
   11   27   33     -3.85      0.00
   13   27   33      5.02      0.00
   15   27   33      3.11      0.00
   17   27   33     -0.26      0.00
   19   27   33     -0.29      0.00
   21   27   33     10.73      0.00
   23   27   33    -12.66      0.00
   25   27   33     -4.81      0.00
    1   29   33      6.32      0.00
    3   29   33     16.03      0.00
    5   29   33      3.32      0.00
    7   29   33      9.65      0.00
    9   29   33      5.79      0.00
   11   29   33      5.28      0.00
   13   29   33      4.87      0.00
   15   29   33     17.38      0.00
   17   29   33     -5.81      0.00
   19   29   33      8.91      0.00
   21   29   33     -3.69      0.00
   23   29   33      4.67      0.00
   25   29   33     -0.78      0.00
   27   29   33     -3.08      0.00
    1   31   33      7.50      0.00
    3   31   33      1.71      0.00
    5   31   33      2.53      0.00
    7   31   33      7.06      0.00
    9   31   33    -12.82      0.00
   11   31   33     13.12      0.00
   13   31   33    -11.90      0.00
   15   31   33      8.67      0.00
   17   31   33     -6.06      0.00
   19   31   33     -9.75      0.00
   21   31   33     -1.70      0.00
   23   31   33      4.29      0.00
   25   31   33      0.18      0.00
   27   31   33      3.97      0.00
   29   31   33    -12.19      0.00
    0    0   34    -69.04      0.00
    0    2   34    -70.09      0.00
    2    2   34     61.85      0.00
    0    4   34     45.52      0.00
    2    4   34    -45.37      0.00
    4    4   34      3.37      0.00
    0    6   34      8.50      0.00
    2    6   34     73.32      0.00
    4    6   34    -15.56      0.00
    6    6   34     38.18      0.00
    0    8   34    -35.54      0.00
    2    8   34    -31.53      0.00
    4    8   34    -13.34      0.00
    6    8   34     11.39      0.00
    8    8   34    -33.15      0.00
    0   10   34      0.63      0.00
    2   10   34     39.77      0.00
    4   10   34     -1.84      0.00
    6   10   34     47.27      0.00
    8   10   34     -8.06      0.00
   10   10   34     90.17      0.00
    0   12   34    -42.39      0.00
    2   12   34     -3.09      0.00
    4   12   34    -13.41      0.00
    6   12   34     -7.27      0.00
    8   12   34    -18.46      0.00
   10   12   34     -4.45      0.00
   12   12   34    -10.11      0.00
    0   14   34      2.57      0.00
    2   14   34     25.41      0.00
    4   14   34    -10.30      0.00
    6   14   34     47.67      0.00
    8   14   34    -29.62      0.00
   10   14   34     38.66      0.00
   12   14   34     -3.84      0.00
   14   14   34     39.43      0.00
    0   16   34    -26.60      0.00
    2   16   34    -21.13      0.00
    4   16   34      4.02      0.00
    6   16   34     -6.13      0.00
    8   16   34    -17.03      0.00
   10   16   34    -15.48      0.00
   12   16   34    -20.78      0.00
   14   16   34     -1.93      0.00
   16   16   34    -18.20      0.00
    0   18   34     -0.61      0.00
    2   18   34     26.73      0.00
    4   18   34    -30.22      0.00
    6   18   34     25.10      0.00
    8   18   34    -19.50      0.00
   10   18   34     38.83      0.00
   12   18   34    -13.69      0.00
   14   18   34     19.33      0.00
   16   18   34    -11.82      0.00
   18   18   34     -2.07      0.00
    0   20   34    -12.86      0.00
    2   20   34    -22.48      0.00
    4   20   34    -11.55      0.00
    6   20   34     -7.36      0.00
    8   20   34     -3.81      0.00
   10   20   34     -5.54      0.00
   12   20   34     -5.85      0.00
   14   20   34     -9.93      0.00
   16   20   34     -1.37      0.00
   18   20   34    -15.39      0.00
   20   20   34      4.73      0.00
    0   22   34      2.13      0.00
    2   22   34      9.61      0.00
    4   22   34    -17.31      0.00
    6   22   34     16.58      0.00
    8   22   34     -4.78      0.00
   10   22   34     20.43      0.00
   12   22   34    -27.40      0.00
   14   22   34     24.71      0.00
   16   22   34    -11.76      0.00
   18   22   34     13.38      0.00
   20   22   34    -21.61      0.00
   22   22   34      4.53      0.00
    0   24   34     -8.06      0.00
    2   24   34      2.42      0.00
    4   24   34    -14.09      0.00
    6   24   34     22.37      0.00
    8   24   34    -23.06      0.00
   10   24   34      4.87      0.00
   12   24   34      0.46      0.00
   14   24   34    -15.52      0.00
   16   24   34      0.63      0.00
   18   24   34     -8.68      0.00
   20   24   34     -0.07      0.00
   22   24   34     11.40      0.00
   24   24   34    -10.00      0.00
    0   26   34    -12.26      0.00
    2   26   34     10.33      0.00
    4   26   34    -13.22      0.00
    6   26   34      1.17      0.00
    8   26   34    -34.83      0.00
   10   26   34     24.66      0.00
   12   26   34    -14.72      0.00
   14   26   34     26.43      0.00
   16   26   34    -28.22      0.00
   18   26   34     12.11      0.00
   20   26   34     -1.32      0.00
   22   26   34      0.57      0.00
   24   26   34    -10.71      0.00
   26   26   34    -12.27      0.00
    0   28   34     -9.75      0.00
    2   28   34     10.40      0.00
    4   28   34      6.17      0.00
    6   28   34     11.81      0.00
    8   28   34      3.36      0.00
   10   28   34      0.39      0.00
   12   28   34      6.20      0.00
   14   28   34      0.36      0.00
   16   28   34      2.08      0.00
   18   28   34     11.45      0.00
   20   28   34     12.80      0.00
   22   28   34      1.56      0.00
   24   28   34     -2.35      0.00
   26   28   34      4.04      0.00
   28   28   34      7.73      0.00
    0   30   34      8.09      0.00
    2   30   34     -2.20      0.00
    4   30   34    -18.41      0.00
    6   30   34     19.83      0.00
    8   30   34    -32.02      0.00
   10   30   34      2.40      0.00
   12   30   34    -21.16      0.00
   14   30   34     -7.54      0.00
   16   30   34     -4.15      0.00
   18   30   34    -12.76      0.00
   20   30   34     -8.55      0.00
   22   30   34     -6.85      0.00
   24   30   34     -4.84      0.00
   26   30   34     -7.70      0.00
   28   30   34     20.61      0.00
   30   30   34    -11.17      0.00
    0   32   34     15.21      0.00
    2   32   34      5.86      0.00
    4   32   34      3.02      0.00
    6   32   34      4.90      0.00
    8   32   34     17.38      0.00
   10   32   34      0.62      0.00
   12   32   34      3.00      0.00
   14   32   34     19.34      0.00
   16   32   34      3.16      0.00
   18   32   34      0.10      0.00
   20   32   34      4.41      0.00
   22   32   34     15.03      0.00
   24   32   34      5.61      0.00
   26   32   34      0.25      0.00
   28   32   34     30.49      0.00
    2   34   34      4.78      0.00
    4   34   34    -30.97      0.00
    6   34   34     -5.45      0.00
    8   34   34    -26.24      0.00
   10   34   34     -1.92      0.00
   12   34   34    -12.35      0.00
   14   34   34     -3.89      0.00
   16   34   34    -13.73      0.00
   18   34   34     -4.98      0.00
   20   34   34    -13.30      0.00
   22   34   34    -10.92      0.00
   24   34   34     -8.67      0.00
    1    3   35     -4.71      0.00
    1    5   35    -15.94      0.00
    3    5   35     -6.64      0.00
    1    7   35     -5.94      0.00
    3    7   35      5.54      0.00
    5    7   35     29.27      0.00
    1    9   35    -23.97      0.00
    3    9   35     -4.98      0.00
    5    9   35    -10.35      0.00
    7    9   35    -13.53      0.00
    1   11   35     24.01      0.00
    3   11   35     11.36      0.00
    5   11   35     29.64      0.00
    7   11   35     11.50      0.00
    9   11   35     28.39      0.00
    1   13   35     -9.13      0.00
    3   13   35      2.37      0.00
    5   13   35    -15.14      0.00
    7   13   35    -20.97      0.00
    9   13   35      8.40      0.00
   11   13   35    -24.09      0.00
    1   15   35     10.02      0.00
    3   15   35     11.82      0.00
    5   15   35     40.12      0.00
    7   15   35     -7.45      0.00
    9   15   35     31.53      0.00
   11   15   35      7.04      0.00
   13   15   35     30.83      0.00
    1   17   35    -15.69      0.00
    3   17   35      4.78      0.00
    5   17   35    -14.56      0.00
    7   17   35      4.45      0.00
    9   17   35      6.40      0.00
   11   17   35    -24.63      0.00
   13   17   35     -2.75      0.00
   15   17   35    -16.65      0.00
    1   19   35     -2.23      0.00
    3   19   35      2.00      0.00
    5   19   35     31.14      0.00
    7   19   35     -1.71      0.00
    9   19   35      7.79      0.00
   11   19   35    -12.95      0.00
   13   19   35     16.20      0.00
   15   19   35     -6.04      0.00
   17   19   35      3.47      0.00
    1   21   35     -5.24      0.00
    3   21   35      6.23      0.00
    5   21   35      3.81      0.00
    7   21   35      3.69      0.00
    9   21   35      2.92      0.00
   11   21   35     -7.70      0.00
   13   21   35     15.56      0.00
   15   21   35    -11.26      0.00
   17   21   35     -1.93      0.00
   19   21   35    -12.81      0.00
    1   23   35      8.70      0.00
    3   23   35      8.88      0.00
    5   23   35      7.82      0.00
    7   23   35    -19.64      0.00
    9   23   35     23.50      0.00
   11   23   35      3.72      0.00
   13   23   35     25.29      0.00
   15   23   35     -1.41      0.00
   17   23   35     -2.46      0.00
   19   23   35    -23.35      0.00
   21   23   35     10.25      0.00
    1   25   35     14.60      0.00
    3   25   35    -11.29      0.00
    5   25   35    -13.23      0.00
    7   25   35     -0.56      0.00
    9   25   35      8.51      0.00
   11   25   35    -15.42      0.00
   13   25   35     18.58      0.00
   15   25   35    -19.56      0.00
   17   25   35     -1.15      0.00
   19   25   35      5.95      0.00
   21   25   35     -5.72      0.00
   23   25   35      1.12      0.00
    1   27   35      8.38      0.00
    3   27   35      1.54      0.00
    5   27   35      5.99      0.00
    7   27   35     -2.00      0.00
    9   27   35     10.40      0.00
   11   27   35     -5.37      0.00
   13   27   35     -3.38      0.00
   15   27   35     -1.79      0.00
   17   27   35     13.47      0.00
   19   27   35     -4.18      0.00
   21   27   35     12.59      0.00
   23   27   35     -2.98      0.00
   25   27   35      1.51      0.00
    1   29   35     -5.70      0.00
    3   29   35    -10.16      0.00
    5   29   35     -1.57      0.00
    7   29   35      7.35      0.00
    9   29   35      2.49      0.00
   11   29   35    -17.42      0.00
   13   29   35      4.00      0.00
   15   29   35    -12.72      0.00
   17   29   35      5.97      0.00
   19   29   35     -2.86      0.00
   21   29   35      2.82      0.00
   23   29   35      2.54      0.00
   25   29   35     -3.25      0.00
   27   29   35     -0.46      0.00
    1   31   35      9.29      0.00
    3   31   35      6.74      0.00
    5   31   35     18.83      0.00
    7   31   35     -6.17      0.00
    9   31   35      0.84      0.00
   11   31   35     -6.26      0.00
   13   31   35     13.00      0.00
   15   31   35    -16.19      0.00
   17   31   35     -3.19      0.00
   19   31   35      1.30      0.00
   21   31   35     -2.41      0.00
   23   31   35      5.19      0.00
   25   31   35     28.50      0.00
   27   31   35    -17.33      0.00
   29   31   35     -5.70      0.00
    1   33   35      2.68      0.00
    3   33   35      8.57      0.00
    5   33   35      2.35      0.00
    7   33   35    -13.95      0.00
    9   33   35     -1.45      0.00
   11   33   35    -17.67      0.00
   13   33   35     -0.99      0.00
   15   33   35    -12.16      0.00
   17   33   35      2.58      0.00
   19   33   35    -16.19      0.00
   21   33   35      3.36      0.00
   23   33   35      6.04      0.00
   25   33   35     -1.20      0.00
   27   33   35      3.84      0.00
    0    0   36     82.87      0.00
    0    2   36    -16.35      0.00
    2    2   36     20.87      0.00
    0    4   36     50.99      0.00
    2    4   36     -2.76      0.00
    4    4   36     52.83      0.00
    0    6   36    -35.76      0.00
    2    6   36      6.56      0.00
    4    6   36    -33.11      0.00
    6    6   36     25.28      0.00
    0    8   36     48.79      0.00
    2    8   36    -21.32      0.00
    4    8   36     52.52      0.00
    6    8   36    -31.03      0.00
    8    8   36     46.24      0.00
    0   10   36    -47.29      0.00
    2   10   36      2.78      0.00
    4   10   36    -16.22      0.00
    6   10   36    -20.85      0.00
    8   10   36     -5.87      0.00
   10   10   36    -14.31      0.00
    0   12   36     71.98      0.00
    2   12   36    -11.32      0.00
    4   12   36     37.71      0.00
    6   12   36     -0.02      0.00
    8   12   36     45.30      0.00
   10   12   36    -32.19      0.00
   12   12   36     77.40      0.00
    0   14   36    -37.70      0.00
    2   14   36     13.88      0.00
    4   14   36     -3.53      0.00
    6   14   36     -8.63      0.00
    8   14   36    -20.01      0.00
   10   14   36      8.54      0.00
   12   14   36    -55.68      0.00
   14   14   36     30.06      0.00
    0   16   36     39.33      0.00
    2   16   36     -8.06      0.00
    4   16   36     24.56      0.00
    6   16   36    -32.29      0.00
    8   16   36     44.26      0.00
   10   16   36    -45.15      0.00
   12   16   36     58.34      0.00
   14   16   36    -31.05      0.00
   16   16   36     38.63      0.00
    0   18   36    -25.46      0.00
    2   18   36     -0.04      0.00
    4   18   36    -19.92      0.00
    6   18   36     17.70      0.00
    8   18   36    -26.40      0.00
   10   18   36     12.87      0.00
   12   18   36    -19.22      0.00
   14   18   36      5.57      0.00
   16   18   36    -29.33      0.00
   18   18   36     12.52      0.00
    0   20   36      1.77      0.00
    2   20   36    -12.73      0.00
    4   20   36     22.61      0.00
    6   20   36    -26.00      0.00
    8   20   36     41.57      0.00
   10   20   36    -20.57      0.00
   12   20   36     15.92      0.00
   14   20   36    -16.51      0.00
   16   20   36     12.46      0.00
   18   20   36    -15.39      0.00
   20   20   36      0.31      0.00
    0   22   36    -10.25      0.00
    2   22   36     -3.55      0.00
    4   22   36     -7.97      0.00
    6   22   36      8.12      0.00
    8   22   36    -11.46      0.00
   10   22   36     -8.68      0.00
   12   22   36      1.90      0.00
   14   22   36     -9.40      0.00
   16   22   36    -13.38      0.00
   18   22   36      0.45      0.00
   20   22   36      3.81      0.00
   22   22   36    -10.50      0.00
    0   24   36     19.44      0.00
    2   24   36     -1.95      0.00
    4   24   36      3.27      0.00
    6   24   36    -23.98      0.00
    8   24   36      6.81      0.00
   10   24   36    -15.67      0.00
   12   24   36     23.20      0.00
   14   24   36     -2.72      0.00
   16   24   36      3.84      0.00
   18   24   36     -7.61      0.00
   20   24   36      2.15      0.00
   22   24   36     -9.11      0.00
   24   24   36     15.70      0.00
    0   26   36    -22.78      0.00
    2   26   36    -13.15      0.00
    4   26   36      5.21      0.00
    6   26   36     -9.03      0.00
    8   26   36      4.54      0.00
   10   26   36    -12.96      0.00
   12   26   36      3.27      0.00
   14   26   36    -11.50      0.00
   16   26   36     -0.12      0.00
   18   26   36      1.91      0.00
   20   26   36      3.20      0.00
   22   26   36      5.76      0.00
   24   26   36      4.26      0.00
   26   26   36     12.16      0.00
    0   28   36      3.48      0.00
    2   28   36    -17.06      0.00
    4   28   36      9.20      0.00
    6   28   36     -3.26      0.00
    8   28   36      8.23      0.00
   10   28   36    -23.65      0.00
   12   28   36     10.04      0.00
   14   28   36    -18.96      0.00
   16   28   36      5.62      0.00
   18   28   36     -5.43      0.00
   20   28   36      7.69      0.00
   22   28   36     -1.94      0.00
   24   28   36      6.49      0.00
   26   28   36     -8.31      0.00
   28   28   36     19.77      0.00
    0   30   36      7.63      0.00
    2   30   36     16.20      0.00
    4   30   36      9.64      0.00
    6   30   36     12.60      0.00
    8   30   36      2.33      0.00
   10   30   36      7.55      0.00
   12   30   36     -2.75      0.00
   14   30   36     17.07      0.00
   16   30   36     -8.88      0.00
   18   30   36     11.20      0.00
   20   30   36     -1.97      0.00
   22   30   36     11.63      0.00
   24   30   36     -4.14      0.00
   26   30   36     19.60      0.00
   28   30   36     -2.71      0.00
    0   32   36      8.57      0.00
    2   32   36      1.33      0.00
    4   32   36     -3.79      0.00
    6   32   36    -30.94      0.00
    8   32   36     -0.34      0.00
   10   32   36    -20.72      0.00
   12   32   36     10.83      0.00
   14   32   36    -14.54      0.00
   16   32   36     -2.54      0.00
   18   32   36     -2.91      0.00
   20   32   36     -7.18      0.00
   22   32   36    -10.77      0.00
   24   32   36      2.42      0.00
   26   32   36      3.24      0.00
    2   34   36      4.77      0.00
    4   34   36      7.31      0.00
    6   34   36     23.29      0.00
    8   34   36     -4.55      0.00
   10   34   36     10.42      0.00
   12   34   36      4.12      0.00
   14   34   36      3.74      0.00
   16   34   36      2.98      0.00
   18   34   36     10.69      0.00
   20   34   36     12.79      0.00
   22   34   36     -5.21      0.00
   24   34   36     -4.78      0.00
    4   36   36     11.13      0.00
    6   36   36    -14.40      0.00
    8   36   36     16.07      0.00
   10   36   36    -13.88      0.00
   12   36   36     13.48      0.00
   14   36   36     -1.39      0.00
   16   36   36      4.92      0.00
   18   36   36    -12.01      0.00
   20   36   36    -12.01      0.00
    1    3   37    -14.14      0.00
    1    5   37    -19.16      0.00
    3    5   37      7.73      0.00
    1    7   37    -20.98      0.00
    3    7   37    -21.19      0.00
    5    7   37    -23.97      0.00
    1    9   37      9.23      0.00
    3    9   37     14.82      0.00
    5    9   37     -0.73      0.00
    7    9   37     22.96      0.00
    1   11   37     -7.12      0.00
    3   11   37    -27.96      0.00
    5   11   37    -28.26      0.00
    7   11   37    -32.17      0.00
    9   11   37    -15.60      0.00
    1   13   37     11.41      0.00
    3   13   37     32.70      0.00
    5   13   37     -8.80      0.00
    7   13   37     48.24      0.00
    9   13   37    -17.77      0.00
   11   13   37     42.76      0.00
    1   15   37    -18.62      0.00
    3   15   37    -15.86      0.00
    5   15   37     -3.21      0.00
    7   15   37    -11.41      0.00
    9   15   37     -4.36      0.00
   11   15   37    -11.11      0.00
   13   15   37    -34.85      0.00
    1   17   37     -4.17      0.00
    3   17   37     22.26      0.00
    5   17   37      9.16      0.00
    7   17   37     30.14      0.00
    9   17   37    -15.73      0.00
   11   17   37     27.90      0.00
   13   17   37      1.77      0.00
   15   17   37     18.66      0.00
    1   19   37     -6.50      0.00
    3   19   37     -3.36      0.00
    5   19   37     -2.79      0.00
    7   19   37    -19.04      0.00
    9   19   37    -10.37      0.00
   11   19   37      2.29      0.00
   13   19   37    -14.75      0.00
   15   19   37     17.04      0.00
   17   19   37    -18.06      0.00
    1   21   37      0.19      0.00
    3   21   37     23.67      0.00
    5   21   37    -14.31      0.00
    7   21   37     14.00      0.00
    9   21   37     -8.24      0.00
   11   21   37     23.72      0.00
   13   21   37      9.62      0.00
   15   21   37     17.43      0.00
   17   21   37     -7.41      0.00
   19   21   37      4.22      0.00
    1   23   37     -4.53      0.00
    3   23   37    -18.84      0.00
    5   23   37      3.68      0.00
    7   23   37      7.62      0.00
    9   23   37     -3.16      0.00
   11   23   37     24.31      0.00
   13   23   37    -20.12      0.00
   15   23   37      5.81      0.00
   17   23   37    -17.76      0.00
   19   23   37     12.57      0.00
   21   23   37    -10.48      0.00
    1   25   37     -4.09      0.00
    3   25   37     12.33      0.00
    5   25   37    -15.13      0.00
    7   25   37     23.51      0.00
    9   25   37      5.99      0.00
   11   25   37      5.82      0.00
   13   25   37     -7.95      0.00
   15   25   37      8.56      0.00
   17   25   37    -16.97      0.00
   19   25   37     -3.19      0.00
   21   25   37      6.24      0.00
   23   25   37     -0.81      0.00
    1   27   37     -8.92      0.00
    3   27   37    -23.46      0.00
    5   27   37     -7.04      0.00
    7   27   37      4.59      0.00
    9   27   37    -11.78      0.00
   11   27   37      2.83      0.00
   13   27   37    -16.70      0.00
   15   27   37      3.76      0.00
   17   27   37     -9.92      0.00
   19   27   37      5.60      0.00
   21   27   37     -8.92      0.00
   23   27   37     -0.54      0.00
   25   27   37      5.50      0.00
    1   29   37     -3.35      0.00
    3   29   37      2.73      0.00
    5   29   37     -3.08      0.00
    7   29   37      8.43      0.00
    9   29   37     -5.30      0.00
   11   29   37     22.02      0.00
   13   29   37      1.39      0.00
   15   29   37      5.23      0.00
   17   29   37     -2.49      0.00
   19   29   37     20.17      0.00
   21   29   37     -5.61      0.00
   23   29   37     10.77      0.00
   25   29   37     17.97      0.00
   27   29   37     -2.68      0.00
    1   31   37    -10.92      0.00
    3   31   37      1.45      0.00
    5   31   37     -6.72      0.00
    7   31   37     -6.53      0.00
    9   31   37      1.36      0.00
   11   31   37     -1.87      0.00
   13   31   37    -14.06      0.00
   15   31   37      1.55      0.00
   17   31   37    -11.83      0.00
   19   31   37     -5.36      0.00
   21   31   37      5.60      0.00
   23   31   37      0.54      0.00
   25   31   37    -13.81      0.00
    1   33   37     -1.13      0.00
    3   33   37      8.23      0.00
    5   33   37      5.62      0.00
    7   33   37      8.84      0.00
    9   33   37    -27.89      0.00
   11   33   37     18.79      0.00
   13   33   37      4.67      0.00
   15   33   37      1.24      0.00
   17   33   37     -2.04      0.00
   19   33   37     23.36      0.00
   21   33   37     -8.92      0.00
   23   33   37     -2.92      0.00
    1   35   37    -11.82      0.00
    3   35   37      5.63      0.00
    5   35   37      2.90      0.00
    7   35   37     -5.85      0.00
    9   35   37     -6.82      0.00
   11   35   37     -0.04      0.00
   13   35   37     -4.97      0.00
   15   35   37     17.22      0.00
   17   35   37      5.32      0.00
   19   35   37     -1.81      0.00
    0    0   38     91.41      0.00
    0    2   38    -34.68      0.00
    2    2   38     57.30      0.00
    0    4   38     19.17      0.00
    2    4   38    -56.84      0.00
    4    4   38     30.14      0.00
    0    6   38    -39.63      0.00
    2    6   38     23.13      0.00
    4    6   38     12.82      0.00
    6    6   38     10.48      0.00
    0    8   38      4.55      0.00
    2    8   38    -20.14      0.00
    4    8   38     -7.18      0.00
    6    8   38    -10.73      0.00
    8    8   38    -24.10      0.00
    0   10   38     16.66      0.00
    2   10   38     26.65      0.00
    4   10   38    -13.11      0.00
    6   10   38     24.50      0.00
    8   10   38    -10.89      0.00
   10   10   38     20.51      0.00
    0   12   38      0.22      0.00
    2   12   38    -14.37      0.00
    4   12   38     11.19      0.00
    6   12   38    -10.46      0.00
    8   12   38     -3.05      0.00
   10   12   38     11.35      0.00
   12   12   38    -55.83      0.00
    0   14   38     15.07      0.00
    2   14   38     23.45      0.00
    4   14   38    -22.61      0.00
    6   14   38     23.04      0.00
    8   14   38     13.26      0.00
   10   14   38     12.10      0.00
   12   14   38     -6.10      0.00
   14   14   38      5.86      0.00
    0   16   38     24.17      0.00
    2   16   38    -13.96      0.00
    4   16   38      6.17      0.00
    6   16   38     -6.59      0.00
    8   16   38     -8.74      0.00
   10   16   38     14.19      0.00
   12   16   38     -1.58      0.00
   14   16   38    -15.77      0.00
   16   16   38     27.94      0.00
    0   18   38     -0.11      0.00
    2   18   38     16.61      0.00
    4   18   38     10.90      0.00
    6   18   38     -3.75      0.00
    8   18   38     -2.23      0.00
   10   18   38     11.71      0.00
   12   18   38    -13.88      0.00
   14   18   38     35.45      0.00
   16   18   38    -13.54      0.00
   18   18   38     -4.62      0.00
    0   20   38     -3.96      0.00
    2   20   38    -10.02      0.00
    4   20   38     15.05      0.00
    6   20   38     22.17      0.00
    8   20   38    -15.76      0.00
   10   20   38    -15.50      0.00
   12   20   38     16.40      0.00
   14   20   38    -16.69      0.00
   16   20   38      0.33      0.00
   18   20   38     -1.07      0.00
   20   20   38      8.30      0.00
    0   22   38      9.68      0.00
    2   22   38      2.72      0.00
    4   22   38     18.08      0.00
    6   22   38      7.84      0.00
    8   22   38     -9.42      0.00
   10   22   38     23.83      0.00
   12   22   38     -5.19      0.00
   14   22   38     22.12      0.00
   16   22   38     -4.56      0.00
   18   22   38      5.88      0.00
   20   22   38      5.45      0.00
   22   22   38      3.83      0.00
    0   24   38    -21.18      0.00
    2   24   38     -4.21      0.00
    4   24   38     -5.93      0.00
    6   24   38    -10.12      0.00
    8   24   38      0.91      0.00
   10   24   38     -4.48      0.00
   12   24   38      0.69      0.00
   14   24   38    -13.21      0.00
   16   24   38     -0.69      0.00
   18   24   38      6.26      0.00
   20   24   38      1.03      0.00
   22   24   38    -10.21      0.00
   24   24   38     -4.43      0.00
    0   26   38     13.72      0.00
    2   26   38    -18.53      0.00
    4   26   38    -11.29      0.00
    6   26   38     13.45      0.00
    8   26   38    -20.07      0.00
   10   26   38     15.88      0.00
   12   26   38    -14.55      0.00
   14   26   38     12.60      0.00
   16   26   38    -10.39      0.00
   18   26   38     16.49      0.00
   20   26   38     -4.28      0.00
   22   26   38      5.24      0.00
   24   26   38      5.30      0.00
   26   26   38     10.44      0.00
    0   28   38    -11.33      0.00
    2   28   38      0.98      0.00
    4   28   38      8.11      0.00
    6   28   38      0.42      0.00
    8   28   38      6.23      0.00
   10   28   38     -4.21      0.00
   12   28   38     -1.59      0.00
   14   28   38     -6.09      0.00
   16   28   38      8.33      0.00
   18   28   38     -6.44      0.00
   20   28   38      4.76      0.00
   22   28   38     -4.66      0.00
   24   28   38     -4.71      0.00
   26   28   38      0.63      0.00
   28   28   38    -21.09      0.00
    0   30   38     11.37      0.00
    2   30   38      9.74      0.00
    4   30   38    -10.87      0.00
    6   30   38      0.04      0.00
    8   30   38    -17.08      0.00
   10   30   38     13.08      0.00
   12   30   38      2.27      0.00
   14   30   38      2.50      0.00
   16   30   38    -13.71      0.00
   18   30   38      9.42      0.00
   20   30   38     -1.76      0.00
   22   30   38     -3.41      0.00
   24   30   38     -6.93      0.00
   26   30   38    -23.01      0.00
    0   32   38     20.00      0.00
    2   32   38    -12.04      0.00
    4   32   38     14.92      0.00
    6   32   38      0.79      0.00
    8   32   38      8.40      0.00
   10   32   38      0.67      0.00
   12   32   38      5.37      0.00
   14   32   38    -10.03      0.00
   16   32   38     11.83      0.00
   18   32   38      2.69      0.00
   20   32   38     26.76      0.00
   22   32   38      3.50      0.00
   24   32   38     -0.87      0.00
    0   34   38    -17.65      0.00
    2   34   38      6.97      0.00
    4   34   38      4.25      0.00
    6   34   38     -0.83      0.00
    8   34   38     -4.86      0.00
   10   34   38      0.00      0.00
   12   34   38     -7.53      0.00
   14   34   38     -5.15      0.00
   16   34   38     10.81      0.00
   18   34   38     10.69      0.00
   20   34   38     -1.16      0.00
    2   36   38     -3.86      0.00
    4   36   38     17.51      0.00
    6   36   38      5.86      0.00
    8   36   38     -1.59      0.00
   10   36   38     20.83      0.00
   12   36   38      7.85      0.00
   14   36   38     35.93      0.00
    4   38   38     -6.07      0.00
    6   38   38     -2.34      0.00
    8   38   38      8.97      0.00
   10   38   38      7.39      0.00
    1    3   39     -0.62      0.00
    1    5   39      1.63      0.00
    3    5   39    -18.22      0.00
    1    7   39     16.70      0.00
    3    7   39      4.40      0.00
    5    7   39     15.04      0.00
    1    9   39     -6.81      0.00
    3    9   39    -16.09      0.00
    5    9   39    -40.23      0.00
    7    9   39    -29.47      0.00
    1   11   39      3.82      0.00
    3   11   39      4.22      0.00
    5   11   39     24.75      0.00
    7   11   39    -10.40      0.00
    9   11   39     13.96      0.00
    1   13   39    -21.03      0.00
    3   13   39    -19.84      0.00
    5   13   39     -9.20      0.00
    7   13   39    -28.64      0.00
    9   13   39     -0.78      0.00
   11   13   39    -42.22      0.00
    1   15   39      7.44      0.00
    3   15   39      8.82      0.00
    5   15   39     26.65      0.00
    7   15   39      3.93      0.00
    9   15   39      5.17      0.00
   11   15   39     -7.53      0.00
   13   15   39     22.56      0.00
    1   17   39     -9.16      0.00
    3   17   39     -6.82      0.00
    5   17   39    -11.60      0.00
    7   17   39    -26.82      0.00
    9   17   39      2.44      0.00
   11   17   39    -25.61      0.00
   13   17   39      6.63      0.00
   15   17   39     -8.53      0.00
    1   19   39      8.25      0.00
    3   19   39      4.89      0.00
    5   19   39     -3.27      0.00
    7   19   39     -5.68      0.00
    9   19   39      9.30      0.00
   11   19   39     14.74      0.00
   13   19   39     17.11      0.00
   15   19   39      1.08      0.00
   17   19   39     21.40      0.00
    1   21   39     -0.12      0.00
    3   21   39    -16.41      0.00
    5   21   39      3.94      0.00
    7   21   39    -11.06      0.00
    9   21   39     27.60      0.00
   11   21   39    -13.45      0.00
   13   21   39      7.34      0.00
   15   21   39    -17.22      0.00
   17   21   39     15.81      0.00
   19   21   39      7.82      0.00
    1   23   39     -0.36      0.00
    3   23   39      5.01      0.00
    5   23   39      4.00      0.00
    7   23   39     19.53      0.00
    9   23   39     24.76      0.00
   11   23   39     -3.17      0.00
   13   23   39      9.04      0.00
   15   23   39     -3.89      0.00
   17   23   39      7.37      0.00
   19   23   39     -1.81      0.00
   21   23   39     18.08      0.00
    1   25   39    -10.62      0.00
    3   25   39    -13.33      0.00
    5   25   39     21.67      0.00
    7   25   39     -2.65      0.00
    9   25   39      7.65      0.00
   11   25   39     -5.68      0.00
   13   25   39     13.98      0.00
   15   25   39    -17.20      0.00
   17   25   39      4.85      0.00
   19   25   39     -5.34      0.00
   21   25   39    -11.29      0.00
   23   25   39     -0.04      0.00
    1   27   39      1.27      0.00
    3   27   39      3.91      0.00
    5   27   39      6.20      0.00
    7   27   39     -0.71      0.00
    9   27   39      3.85      0.00
   11   27   39     -2.78      0.00
   13   27   39     19.98      0.00
   15   27   39      4.19      0.00
   17   27   39      3.31      0.00
   19   27   39    -12.29      0.00
   21   27   39     -6.05      0.00
   23   27   39     10.37      0.00
   25   27   39      5.58      0.00
    1   29   39     -5.47      0.00
    3   29   39     -9.40      0.00
    5   29   39     -0.90      0.00
    7   29   39     -9.51      0.00
    9   29   39      8.65      0.00
   11   29   39    -13.29      0.00
   13   29   39     14.19      0.00
   15   29   39    -13.77      0.00
   17   29   39     11.18      0.00
   19   29   39     -7.07      0.00
   21   29   39     -3.79      0.00
   23   29   39    -14.30      0.00
   25   29   39     25.39      0.00
    1   31   39      2.35      0.00
    3   31   39     -0.54      0.00
    5   31   39      4.03      0.00
    7   31   39      5.33      0.00
    9   31   39     -3.52      0.00
   11   31   39     29.26      0.00
   13   31   39      2.42      0.00
   15   31   39     -1.93      0.00
   17   31   39     -3.16      0.00
   19   31   39      3.37      0.00
   21   31   39    -14.46      0.00
   23   31   39     -1.20      0.00
    1   33   39    -22.80      0.00
    3   33   39     -8.18      0.00
    5   33   39      8.95      0.00
    7   33   39    -10.70      0.00
    9   33   39     15.82      0.00
   11   33   39    -19.28      0.00
   13   33   39     18.48      0.00
   15   33   39     -9.81      0.00
   17   33   39     -1.15      0.00
   19   33   39    -20.96      0.00
    1   35   39     -2.59      0.00
    3   35   39     -3.29      0.00
    5   35   39     20.31      0.00
    7   35   39      7.21      0.00
    9   35   39      0.37      0.00
   11   35   39     -3.94      0.00
   13   35   39     22.47      0.00
   15   35   39      5.68      0.00
    1   37   39      3.06      0.00
    3   37   39     17.60      0.00
    5   37   39      2.88      0.00
    7   37   39      9.29      0.00
    9   37   39    -13.26      0.00
   11   37   39     10.29      0.00
    0    0   40     74.04      0.00
    0    2   40    -48.49      0.00
    2    2   40     53.08      0.00
    0    4   40      4.60      0.00
    2    4   40    -34.66      0.00
    4    4   40     22.28      0.00
    0    6   40    -32.99      0.00
    2    6   40     23.02      0.00
    4    6   40    -13.81      0.00
    6    6   40      0.17      0.00
    0    8   40     14.41      0.00
    2    8   40     11.27      0.00
    4    8   40     -2.36      0.00
    6    8   40      4.53      0.00
    8    8   40     -4.24      0.00
    0   10   40     -0.52      0.00
    2   10   40      3.35      0.00
    4   10   40      5.86      0.00
    6   10   40    -13.43      0.00
    8   10   40     15.62      0.00
   10   10   40    -17.27      0.00
    0   12   40     -2.09      0.00
    2   12   40     28.25      0.00
    4   12   40    -10.18      0.00
    6   12   40      2.33      0.00
    8   12   40      7.04      0.00
   10   12   40      2.39      0.00
   12   12   40     -5.47      0.00
    0   14   40     16.65      0.00
    2   14   40     -0.08      0.00
    4   14   40      2.42      0.00
    6   14   40    -12.36      0.00
    8   14   40      3.72      0.00
   10   14   40     -1.67      0.00
   12   14   40      6.55      0.00
   14   14   40    -29.07      0.00
    0   16   40     -5.53      0.00
    2   16   40     23.79      0.00
    4   16   40    -16.69      0.00
    6   16   40     -4.73      0.00
    8   16   40      3.74      0.00
   10   16   40      9.86      0.00
   12   16   40     -8.30      0.00
   14   16   40     19.08      0.00
   16   16   40    -15.09      0.00
    0   18   40    -10.64      0.00
    2   18   40      3.07      0.00
    4   18   40      3.25      0.00
    6   18   40      5.49      0.00
    8   18   40     -8.29      0.00
   10   18   40    -18.73      0.00
   12   18   40      5.08      0.00
   14   18   40    -12.69      0.00
   16   18   40     -0.17      0.00
   18   18   40     -1.44      0.00
    0   20   40    -18.40      0.00
    2   20   40     18.15      0.00
    4   20   40     10.99      0.00
    6   20   40      8.76      0.00
    8   20   40     -8.44      0.00
   10   20   40      1.62      0.00
   12   20   40      1.80      0.00
   14   20   40      3.41      0.00
   16   20   40     -9.52      0.00
   18   20   40    -19.08      0.00
    0   22   40    -19.99      0.00
    2   22   40      1.42      0.00
    4   22   40      2.86      0.00
    6   22   40     11.32      0.00
    8   22   40      9.69      0.00
   10   22   40     -1.04      0.00
   12   22   40      4.41      0.00
   14   22   40     -7.58      0.00
   16   22   40    -14.43      0.00
   18   22   40      8.74      0.00
   20   22   40     -1.50      0.00
   22   22   40     -8.53      0.00
    0   24   40     -3.93      0.00
    2   24   40      5.59      0.00
    4   24   40     -0.08      0.00
    6   24   40      9.39      0.00
    8   24   40      7.54      0.00
   10   24   40     13.00      0.00
   12   24   40     14.74      0.00
   14   24   40     -8.71      0.00
   16   24   40      5.60      0.00
   18   24   40      9.06      0.00
   20   24   40      9.04      0.00
   22   24   40      4.70      0.00
   24   24   40     -8.47      0.00
    0   26   40    -19.07      0.00
    2   26   40      5.98      0.00
    4   26   40    -11.37      0.00
    6   26   40     -4.52      0.00
    8   26   40      1.79      0.00
   10   26   40     -5.28      0.00
   12   26   40    -10.60      0.00
   14   26   40     -7.93      0.00
   16   26   40      4.15      0.00
   18   26   40      6.90      0.00
   20   26   40      1.98      0.00
   22   26   40    -19.03      0.00
   24   26   40      7.01      0.00
   26   26   40    -12.00      0.00
    0   28   40     14.02      0.00
    2   28   40      9.38      0.00
    4   28   40     -2.66      0.00
    6   28   40     -3.53      0.00
    8   28   40      4.66      0.00
   10   28   40     -5.73      0.00
   12   28   40     25.41      0.00
   14   28   40      2.56      0.00
   16   28   40      3.21      0.00
   18   28   40     -0.51      0.00
   20   28   40      3.40      0.00
   22   28   40     -9.58      0.00
   24   28   40    -15.50      0.00
    0   30   40      0.44      0.00
    2   30   40      3.43      0.00
    4   30   40     -3.37      0.00
    6   30   40      9.81      0.00
    8   30   40      4.52      0.00
   10   30   40     13.36      0.00
   12   30   40     -8.41      0.00
   14   30   40     -2.37      0.00
   16   30   40    -12.15      0.00
   18   30   40     -6.88      0.00
   20   30   40     -4.50      0.00
   22   30   40      8.15      0.00
    0   32   40    -11.25      0.00
    2   32   40      9.59      0.00
    4   32   40     -4.85      0.00
    6   32   40     -4.05      0.00
    8   32   40      8.99      0.00
   10   32   40     -0.57      0.00
   12   32   40      1.21      0.00
   14   32   40    -21.82      0.00
   16   32   40    -12.01      0.00
   18   32   40     12.95      0.00
   20   32   40     14.97      0.00
    0   34   40     -6.91      0.00
    2   34   40      5.64      0.00
    4   34   40     -9.60      0.00
    6   34   40     15.19      0.00
    8   34   40     -4.74      0.00
   10   34   40      2.33      0.00
   12   34   40    -19.65      0.00
   14   34   40      3.09      0.00
   16   34   40     12.74      0.00
    0   36   40     -1.99      0.00
    2   36   40     10.50      0.00
    4   36   40      3.43      0.00
    6   36   40     -8.99      0.00
    8   36   40      3.29      0.00
   10   36   40     -4.46      0.00
    0   38   40      9.19      0.00
    2   38   40     11.18      0.00
    1    3   41      6.21      0.00
    1    5   41     11.94      0.00
    3    5   41     15.24      0.00
    1    7   41      5.67      0.00
    3    7   41     -5.40      0.00
    5    7   41    -22.12      0.00
    1    9   41     -4.79      0.00
    3    9   41     11.10      0.00
    5    9   41     15.65      0.00
    7    9   41      6.04      0.00
    1   11   41    -18.99      0.00
    3   11   41    -14.09      0.00
    5   11   41    -15.20      0.00
    7   11   41      1.12      0.00
    9   11   41    -22.06      0.00
    1   13   41      2.76      0.00
    3   13   41     26.32      0.00
    5   13   41      8.45      0.00
    7   13   41     16.30      0.00
    9   13   41    -13.88      0.00
   11   13   41     13.71      0.00
    1   15   41      8.45      0.00
    3   15   41     -3.94      0.00
    5   15   41     -4.06      0.00
    7   15   41    -14.83      0.00
    9   15   41    -20.01      0.00
   11   15   41     -6.34      0.00
   13   15   41    -11.69      0.00
    1   17   41     -4.65      0.00
    3   17   41     15.06      0.00
    5   17   41     -7.06      0.00
    7   17   41      7.85      0.00
    9   17   41     -8.15      0.00
   11   17   41     11.16      0.00
   13   17   41      0.64      0.00
   15   17   41      6.63      0.00
    1   19   41     -8.44      0.00
    3   19   41    -14.50      0.00
    5   19   41      4.59      0.00
    7   19   41      7.62      0.00
    9   19   41      0.07      0.00
   11   19   41      2.24      0.00
   13   19   41    -19.30      0.00
   15   19   41     -0.24      0.00
   17   19   41     -1.47      0.00
    1   21   41     -3.02      0.00
    3   21   41     15.13      0.00
    5   21   41     -7.11      0.00
    7   21   41     10.75      0.00
    9   21   41      7.67      0.00
   11   21   41      2.31      0.00
   13   21   41    -12.23      0.00
   15   21   41      3.96      0.00
   17   21   41     -1.59      0.00
    1   23   41      7.99      0.00
    3   23   41     -1.21      0.00
    5   23   41      2.91      0.00
    7   23   41      9.24      0.00
    9   23   41    -16.53      0.00
   11   23   41     17.42      0.00
   13   23   41     -2.25      0.00
   15   23   41      5.09      0.00
   17   23   41      4.15      0.00
   19   23   41      8.52      0.00
   21   23   41      3.35      0.00
    1   25   41      3.46      0.00
    3   25   41     10.33      0.00
    5   25   41     -4.35      0.00
    7   25   41      1.46      0.00
    9   25   41     -4.58      0.00
   11   25   41     -3.17      0.00
   13   25   41      8.29      0.00
   15   25   41     11.68      0.00
   17   25   41    -13.03      0.00
   19   25   41     -2.31      0.00
   21   25   41     -9.74      0.00
   23   25   41      9.41      0.00
    1   27   41     -7.23      0.00
    3   27   41     -3.93      0.00
    5   27   41      9.89      0.00
    7   27   41      7.44      0.00
    9   27   41    -17.82      0.00
   11   27   41      0.68      0.00
   13   27   41    -15.53      0.00
   15   27   41      3.22      0.00
   17   27   41      3.69      0.00
   19   27   41     -0.63      0.00
   21   27   41     -3.31      0.00
   23   27   41    -12.15      0.00
   25   27   41     33.10      0.00
    1   29   41     -0.46      0.00
    3   29   41     11.12      0.00
    5   29   41     -2.86      0.00
    7   29   41      6.15      0.00
    9   29   41     -4.17      0.00
   11   29   41     -3.04      0.00
   13   29   41    -10.83      0.00
   15   29   41      8.86      0.00
   17   29   41    -10.19      0.00
   19   29   41     -3.03      0.00
   21   29   41     -8.41      0.00
    1   31   41     -2.52      0.00
    3   31   41    -13.48      0.00
    5   31   41     -6.38      0.00
    7   31   41      4.61      0.00
    9   31   41     -1.46      0.00
   11   31   41    -10.21      0.00
   13   31   41     -4.22      0.00
   15   31   41    -25.11      0.00
   17   31   41    -20.51      0.00
   19   31   41    -16.18      0.00
    1   33   41      5.71      0.00
    3   33   41     -6.54      0.00
    5   33   41      1.28      0.00
    7   33   41      9.18      0.00
    9   33   41      5.07      0.00
   11   33   41      0.36      0.00
   13   33   41     -9.77      0.00
   15   33   41     -8.92      0.00
    1   35   41      1.69      0.00
    3   35   41     17.07      0.00
    5   35   41      1.04      0.00
    7   35   41     22.21      0.00
    9   35   41    -23.98      0.00
   11   35   41      3.19      0.00
    1   37   41     40.91      0.00
    0    0   42     46.36      0.00
    0    2   42     18.77      0.00
    2    2   42      0.58      0.00
    0    4   42     40.04      0.00
    2    4   42      1.38      0.00
    4    4   42     13.74      0.00
    0    6   42     14.24      0.00
    2    6   42     -2.59      0.00
    4    6   42    -15.65      0.00
    6    6   42     -8.84      0.00
    0    8   42     21.13      0.00
    2    8   42     -9.79      0.00
    4    8   42      8.87      0.00
    6    8   42     -1.10      0.00
    8    8   42      6.42      0.00
    0   10   42      5.64      0.00
    2   10   42      1.10      0.00
    4   10   42     11.97      0.00
    6   10   42     -9.65      0.00
    8   10   42     13.75      0.00
   10   10   42     -3.71      0.00
    0   12   42     33.62      0.00
    2   12   42     -6.01      0.00
    4   12   42      5.35      0.00
    6   12   42      2.50      0.00
    8   12   42    -26.66      0.00
   10   12   42     -4.02      0.00
   12   12   42     17.36      0.00
    0   14   42      3.84      0.00
    2   14   42     12.24      0.00
    4   14   42      4.39      0.00
    6   14   42    -26.37      0.00
    8   14   42     -7.27      0.00
   10   14   42     12.55      0.00
   12   14   42     -6.01      0.00
   14   14   42     28.33      0.00
    0   16   42     12.90      0.00
    2   16   42    -11.18      0.00
    4   16   42     19.63      0.00
    6   16   42     -6.63      0.00
    8   16   42      5.48      0.00
   10   16   42     -7.29      0.00
   12   16   42     13.76      0.00
   14   16   42    -15.50      0.00
   16   16   42     15.43      0.00
    0   18   42      9.18      0.00
    2   18   42    -14.97      0.00
    4   18   42      2.55      0.00
    6   18   42      0.19      0.00
    8   18   42    -10.56      0.00
   10   18   42      3.89      0.00
   12   18   42    -16.38      0.00
   14   18   42    -10.14      0.00
   16   18   42     -6.81      0.00
   18   18   42     -2.53      0.00
    0   20   42      3.65      0.00
    2   20   42     -6.82      0.00
    4   20   42      6.42      0.00
    6   20   42    -10.22      0.00
    8   20   42     10.39      0.00
   10   20   42     -8.89      0.00
   12   20   42     -5.03      0.00
   14   20   42    -13.69      0.00
   16   20   42     -4.88      0.00
   18   20   42     -1.88      0.00
    0   22   42     25.87      0.00
    2   22   42     -5.76      0.00
    4   22   42     20.77      0.00
    6   22   42     -0.65      0.00
    8   22   42      6.05      0.00
   10   22   42     21.74      0.00
   12   22   42     12.35      0.00
   14   22   42     -0.34      0.00
   16   22   42     -8.54      0.00
   18   22   42    -12.53      0.00
   20   22   42      1.07      0.00
   22   22   42     10.47      0.00
    0   24   42      0.52      0.00
    2   24   42     -6.49      0.00
    4   24   42      0.10      0.00
    6   24   42     -0.77      0.00
    8   24   42      8.70      0.00
   10   24   42      2.32      0.00
   12   24   42     -5.30      0.00
   14   24   42     -8.47      0.00
   16   24   42     -6.60      0.00
   18   24   42      1.42      0.00
   20   24   42     -2.29      0.00
   22   24   42     -4.38      0.00
   24   24   42     -2.73      0.00
    0   26   42     20.32      0.00
    2   26   42     -9.43      0.00
    4   26   42     12.07      0.00
    6   26   42     -6.30      0.00
    8   26   42      0.10      0.00
   10   26   42     12.65      0.00
   12   26   42      4.08      0.00
   14   26   42     16.05      0.00
   16   26   42      7.13      0.00
   18   26   42      3.95      0.00
   20   26   42      6.27      0.00
   22   26   42      0.52      0.00
   24   26   42    -12.14      0.00
    0   28   42     -6.75      0.00
    2   28   42     -6.54      0.00
    4   28   42      0.04      0.00
    6   28   42      3.06      0.00
    8   28   42      3.81      0.00
   10   28   42     -1.56      0.00
   12   28   42     -4.23      0.00
   14   28   42      2.39      0.00
   16   28   42      0.12      0.00
   18   28   42     -1.98      0.00
   20   28   42    -18.68      0.00
   22   28   42    -10.01      0.00
    0   30   42     12.38      0.00
    2   30   42     -7.46      0.00
    4   30   42      2.63      0.00
    6   30   42      9.32      0.00
    8   30   42      7.29      0.00
   10   30   42      9.83      0.00
   12   30   42      4.22      0.00
   14   30   42     -1.24      0.00
   16   30   42    -13.11      0.00
   18   30   42    -12.97      0.00
    0   32   42     20.46      0.00
    2   32   42     -7.48      0.00
    4   32   42      2.37      0.00
    6   32   42     -8.46      0.00
    8   32   42     17.13      0.00
   10   32   42      3.26      0.00
   12   32   42    -21.88      0.00
   14   32   42     -9.58      0.00
   16   32   42     -5.26      0.00
    0   34   42     19.50      0.00
    2   34   42      2.31      0.00
    4   34   42      0.49      0.00
    6   34   42    -20.63      0.00
    1    3   43      0.72      0.00
    1    5   43      5.65      0.00
    3    5   43     -2.63      0.00
    1    7   43      2.08      0.00
    3    7   43     -3.10      0.00
    5    7   43     15.35      0.00
    1    9   43    -14.34      0.00
    3    9   43     -6.06      0.00
    5    9   43    -14.29      0.00
    7    9   43      7.30      0.00
    1   11   43     -9.50      0.00
    3   11   43     -8.84      0.00
    5   11   43     23.71      0.00
    7   11   43    -11.13      0.00
    9   11   43     14.58      0.00
    1   13   43      3.61      0.00
    3   13   43      4.24      0.00
    5   13   43    -16.91      0.00
    7   13   43      0.40      0.00
    9   13   43    -12.99      0.00
   11   13   43     -1.62      0.00
    1   15   43      3.87      0.00
    3   15   43     -3.18      0.00
    5   15   43     11.62      0.00
    7   15   43    -18.60      0.00
    9   15   43      5.32      0.00
   11   15   43      2.87      0.00
   13   15   43      6.08      0.00
    1   17   43    -16.37      0.00
    3   17   43      3.32      0.00
    5   17   43      0.41      0.00
    7   17   43     12.25      0.00
    9   17   43     -2.51      0.00
   11   17   43      0.30      0.00
   13   17   43      1.07      0.00
   15   17   43      0.04      0.00
    1   19   43    -18.73      0.00
    3   19   43     -3.92      0.00
    5   19   43     19.64      0.00
    7   19   43     -6.73      0.00
    9   19   43      4.85      0.00
   11   19   43    -15.68      0.00
   13   19   43     -4.62      0.00
   15   19   43     -5.63      0.00
   17   19   43     -8.96      0.00
    1   21   43      2.57      0.00
    3   21   43      9.93      0.00
    5   21   43      3.43      0.00
    7   21   43      8.87      0.00
    9   21   43    -18.02      0.00
   11   21   43      1.66      0.00
   13   21   43     11.72      0.00
   15   21   43     -0.20      0.00
   17   21   43      8.99      0.00
   19   21   43     -3.65      0.00
    1   23   43      3.32      0.00
    3   23   43     -9.62      0.00
    5   23   43      5.41      0.00
    7   23   43    -34.37      0.00
    9   23   43     -0.23      0.00
   11   23   43     -1.67      0.00
   13   23   43      8.41      0.00
   15   23   43      2.21      0.00
   17   23   43     -5.26      0.00
   19   23   43     -1.82      0.00
   21   23   43     -9.08      0.00
    1   25   43     -6.77      0.00
    3   25   43     -4.35      0.00
    5   25   43    -11.19      0.00
    7   25   43     10.36      0.00
    9   25   43      7.67      0.00
   11   25   43    -10.18      0.00
   13   25   43      1.56      0.00
   15   25   43     -7.45      0.00
   17   25   43      0.33      0.00
   19   25   43      2.05      0.00
   21   25   43     10.93      0.00
   23   25   43    -10.11      0.00
    1   27   43     -8.61      0.00
    3   27   43     -8.46      0.00
    5   27   43      6.68      0.00
    7   27   43      6.13      0.00
    9   27   43     -5.03      0.00
   11   27   43     -2.27      0.00
   13   27   43    -16.25      0.00
   15   27   43     -6.49      0.00
   17   27   43     -2.38      0.00
   19   27   43      0.62      0.00
   21   27   43     -3.18      0.00
    1   29   43     -7.65      0.00
    3   29   43     -6.46      0.00
    5   29   43      1.75      0.00
    7   29   43      7.04      0.00
    9   29   43      8.87      0.00
   11   29   43    -16.10      0.00
   13   29   43      1.79      0.00
   15   29   43    -15.25      0.00
   17   29   43     10.02      0.00
    1   31   43      9.19      0.00
    3   31   43    -14.21      0.00
    5   31   43      4.60      0.00
    7   31   43     -6.19      0.00
    9   31   43      9.44      0.00
   11   31   43      0.76      0.00
   13   31   43    -12.80      0.00
   15   31   43      3.40      0.00
    1   33   43      6.06      0.00
    3   33   43     -1.00      0.00
    5   33   43    -23.42      0.00
    7   33   43     20.76      0.00
    0    0   44     33.28      0.00
    0    2   44     -5.75      0.00
    2    2   44     76.14      0.00
    0    4   44     30.75      0.00
    2    4   44     -8.59      0.00
    4    4   44      3.62      0.00
    0    6   44    -11.08      0.00
    2    6   44     27.54      0.00
    4    6   44    -17.63      0.00
    6    6   44      4.12      0.00
    0    8   44     -4.34      0.00
    2    8   44     -3.30      0.00
    4    8   44     -2.23      0.00
    6    8   44      2.05      0.00
    8    8   44      7.16      0.00
    0   10   44    -10.87      0.00
    2   10   44     17.51      0.00
    4   10   44    -11.92      0.00
    6   10   44     12.85      0.00
    8   10   44    -10.40      0.00
   10   10   44     -0.11      0.00
    0   12   44     -9.82      0.00
    2   12   44      0.51      0.00
    4   12   44     -1.49      0.00
    6   12   44    -15.92      0.00
    8   12   44      4.44      0.00
   10   12   44     -4.48      0.00
   12   12   44     -2.15      0.00
    0   14   44    -11.15      0.00
    2   14   44     18.05      0.00
    4   14   44     -4.38      0.00
    6   14   44     11.40      0.00
    8   14   44      1.21      0.00
   10   14   44      8.76      0.00
   12   14   44     -3.50      0.00
   14   14   44     19.43      0.00
    0   16   44     -4.94      0.00
    2   16   44      1.74      0.00
    4   16   44     -1.07      0.00
    6   16   44      3.98      0.00
    8   16   44     -2.09      0.00
   10   16   44      3.24      0.00
   12   16   44     15.03      0.00
   14   16   44    -17.68      0.00
   16   16   44     21.55      0.00
    0   18   44    -21.77      0.00
    2   18   44     22.27      0.00
    4   18   44     -4.79      0.00
    6   18   44     -2.59      0.00
    8   18   44     -2.43      0.00
   10   18   44      7.27      0.00
   12   18   44    -12.92      0.00
   14   18   44     21.65      0.00
   16   18   44    -10.04      0.00
    0   20   44      8.08      0.00
    2   20   44      7.84      0.00
    4   20   44     -8.31      0.00
    6   20   44     -4.96      0.00
    8   20   44     -8.47      0.00
   10   20   44      1.31      0.00
   12   20   44     12.00      0.00
   14   20   44     -7.68      0.00
   16   20   44     10.04      0.00
   18   20   44      6.44      0.00
   20   20   44    -12.91      0.00
    0   22   44     -8.23      0.00
    2   22   44     15.36      0.00
    4   22   44     -7.60      0.00
    6   22   44      5.05      0.00
    8   22   44     -5.04      0.00
   10   22   44      5.00      0.00
   12   22   44     -2.64      0.00
   14   22   44     10.86      0.00
   16   22   44    -12.07      0.00
   18   22   44     -2.24      0.00
   20   22   44      6.07      0.00
   22   22   44    -15.10      0.00
    0   24   44    -19.28      0.00
    2   24   44     21.63      0.00
    4   24   44     -5.66      0.00
    6   24   44      6.40      0.00
    8   24   44      2.89      0.00
   10   24   44      5.18      0.00
   12   24   44     14.08      0.00
   14   24   44      0.67      0.00
   16   24   44      6.06      0.00
   18   24   44    -29.96      0.00
   20   24   44     -1.57      0.00
   22   24   44     11.29      0.00
    0   26   44    -12.72      0.00
    2   26   44     -7.18      0.00
    4   26   44     -8.98      0.00
    6   26   44      3.03      0.00
    8   26   44     -1.93      0.00
   10   26   44     -3.60      0.00
   12   26   44     -1.21      0.00
   14   26   44    -14.85      0.00
   16   26   44    -19.39      0.00
   18   26   44     10.95      0.00
   20   26   44    -23.87      0.00
    0   28   44      2.60      0.00
    2   28   44     -1.39      0.00
    4   28   44     -2.71      0.00
    6   28   44     -5.49      0.00
    8   28   44     15.66      0.00
   10   28   44      0.94      0.00
   12   28   44     -3.30      0.00
   14   28   44      0.49      0.00
   16   28   44     10.31      0.00
    0   30   44    -14.06      0.00
    2   30   44     19.37      0.00
    4   30   44    -12.61      0.00
    6   30   44      9.05      0.00
    8   30   44     -1.07      0.00
   10   30   44     -0.11      0.00
   12   30   44     -9.76      0.00
   14   30   44     -7.22      0.00
    0   32   44     21.17      0.00
    2   32   44     14.00      0.00
    4   32   44     -9.95      0.00
    6   32   44    -10.02      0.00
    8   32   44      6.32      0.00
    1    3   45     -2.48      0.00
    1    5   45     -7.67      0.00
    3    5   45     -1.58      0.00
    1    7   45      9.85      0.00
    3    7   45     -6.75      0.00
    5    7   45      0.93      0.00
    1    9   45     -6.09      0.00
    3    9   45      3.86      0.00
    5    9   45     -1.77      0.00
    7    9   45      8.66      0.00
    1   11   45      3.23      0.00
    3   11   45     -9.76      0.00
    5   11   45      6.16      0.00
    7   11   45     -4.20      0.00
    9   11   45     -2.31      0.00
    1   13   45     -8.61      0.00
    3   13   45      2.05      0.00
    5   13   45     -4.58      0.00
    7   13   45     -4.58      0.00
    9   13   45     -9.44      0.00
   11   13   45     -0.59      0.00
    1   15   45     -0.73      0.00
    3   15   45      3.02      0.00
    5   15   45     10.91      0.00
    7   15   45     -4.57      0.00
    9   15   45      7.91      0.00
   11   15   45     -0.15      0.00
   13   15   45     18.75      0.00
    1   17   45    -15.91      0.00
    3   17   45     -7.67      0.00
    5   17   45     -3.71      0.00
    7   17   45      7.92      0.00
    9   17   45    -10.20      0.00
   11   17   45      0.54      0.00
   13   17   45     -1.85      0.00
   15   17   45     -5.16      0.00
    1   19   45      6.39      0.00
    3   19   45      5.21      0.00
    5   19   45     16.55      0.00
    7   19   45      2.50      0.00
    9   19   45      2.30      0.00
   11   19   45      2.18      0.00
   13   19   45      9.15      0.00
   15   19   45      1.27      0.00
   17   19   45      7.59      0.00
    1   21   45     -2.89      0.00
    3   21   45      4.22      0.00
    5   21   45     -2.28      0.00
    7   21   45    -10.28      0.00
    9   21   45     -9.09      0.00
   11   21   45     -5.35      0.00
   13   21   45      9.07      0.00
   15   21   45     -0.38      0.00
   17   21   45     -8.53      0.00
   19   21   45     -3.25      0.00
    1   23   45     -7.81      0.00
    3   23   45      2.83      0.00
    5   23   45     -4.90      0.00
    7   23   45     13.84      0.00
    9   23   45     -2.70      0.00
   11   23   45      9.70      0.00
   13   23   45      4.17      0.00
   15   23   45      9.50      0.00
   17   23   45      1.25      0.00
   19   23   45      0.92      0.00
   21   23   45      3.01      0.00
    1   25   45    -14.24      0.00
    3   25   45    -11.92      0.00
    5   25   45      0.95      0.00
    7   25   45     -4.98      0.00
    9   25   45     -3.19      0.00
   11   25   45      9.97      0.00
   13   25   45     -8.01      0.00
   15   25   45    -22.46      0.00
   17   25   45      5.36      0.00
   19   25   45     -6.00      0.00
    1   27   45      6.22      0.00
    3   27   45      0.09      0.00
    5   27   45     -4.67      0.00
    7   27   45      7.36      0.00
    9   27   45     26.78      0.00
   11   27   45     -1.79      0.00
   13   27   45     -1.73      0.00
   15   27   45     11.27      0.00
    1   29   45      1.05      0.00
    3   29   45     -2.18      0.00
    5   29   45     10.52      0.00
    7   29   45     -2.06      0.00
    9   29   45     -2.85      0.00
   11   29   45     13.72      0.00
   13   29   45     31.53      0.00
    1   31   45    -15.75      0.00
    3   31   45      6.34      0.00
    5   31   45    -17.08      0.00
    7   31   45     29.84      0.00
    0    0   46     70.51      0.00
    0    2   46    -21.19      0.00
    2    2   46     28.11      0.00
    0    4   46     52.35      0.00
    2    4   46    -15.54      0.00
    4    4   46     23.73      0.00
    0    6   46    -25.53      0.00
    2    6   46     10.79      0.00
    4    6   46     -1.77      0.00
    6    6   46      4.29      0.00
    0    8   46     21.58      0.00
    2    8   46    -13.82      0.00
    4    8   46      7.56      0.00
    6    8   46     -3.34      0.00
    8    8   46     -6.80      0.00
    0   10   46      3.96      0.00
    2   10   46     -6.20      0.00
    4   10   46     -2.67      0.00
    6   10   46     -1.82      0.00
    8   10   46      2.05      0.00
   10   10   46      8.03      0.00
    0   12   46     12.85      0.00
    2   12   46     -6.05      0.00
    4   12   46      0.91      0.00
    6   12   46     -4.68      0.00
    8   12   46     24.54      0.00
   10   12   46     -5.14      0.00
   12   12   46    -18.77      0.00
    0   14   46      2.72      0.00
    2   14   46    -11.37      0.00
    4   14   46     -7.49      0.00
    6   14   46     12.48      0.00
    8   14   46     -1.71      0.00
   10   14   46      6.55      0.00
   12   14   46    -16.73      0.00
   14   14   46    -14.94      0.00
    0   16   46     17.43      0.00
    2   16   46      4.05      0.00
    4   16   46     17.67      0.00
    6   16   46    -11.65      0.00
    8   16   46     10.35      0.00
   10   16   46     -0.45      0.00
   12   16   46     13.54      0.00
   14   16   46      8.91      0.00
   16   16   46     13.79      0.00
    0   18   46      8.70      0.00
    2   18   46     -3.76      0.00
    4   18   46     -0.85      0.00
    6   18   46    -15.23      0.00
    8   18   46    -17.95      0.00
   10   18   46      9.17      0.00
   12   18   46      0.98      0.00
   14   18   46     13.59      0.00
   16   18   46     -7.59      0.00
   18   18   46      8.30      0.00
    0   20   46      3.88      0.00
    2   20   46     -8.43      0.00
    4   20   46      7.00      0.00
    6   20   46     -8.72      0.00
    8   20   46     -1.44      0.00
   10   20   46     -8.99      0.00
   12   20   46     13.34      0.00
   14   20   46     -8.71      0.00
   16   20   46     22.76      0.00
   18   20   46    -26.02      0.00
   20   20   46     37.14      0.00
    0   22   46     -3.00      0.00
    2   22   46     -9.50      0.00
    4   22   46     13.16      0.00
    6   22   46      1.20      0.00
    8   22   46      3.78      0.00
   10   22   46      2.44      0.00
   12   22   46     -3.61      0.00
   14   22   46     12.77      0.00
   16   22   46      0.17      0.00
   18   22   46     -1.18      0.00
   20   22   46    -25.22      0.00
    0   24   46     12.40      0.00
    2   24   46    -18.28      0.00
    4   24   46     19.04      0.00
    6   24   46     -3.25      0.00
    8   24   46      6.84      0.00
   10   24   46      0.04      0.00
   12   24   46      7.06      0.00
   14   24   46    -11.89      0.00
   16   24   46    -20.12      0.00
   18   24   46      1.38      0.00
    0   26   46     19.56      0.00
    2   26   46      0.89      0.00
    4   26   46     -5.80      0.00
    6   26   46     -5.60      0.00
    8   26   46      4.81      0.00
   10   26   46     23.75      0.00
   12   26   46    -24.16      0.00
   14   26   46      7.14      0.00
   16   26   46    -21.62      0.00
    0   28   46      4.49      0.00
    2   28   46     20.26      0.00
    4   28   46     -9.20      0.00
    6   28   46     -4.66      0.00
    8   28   46     -1.31      0.00
   10   28   46     -5.29      0.00
    1    3   47     -5.99      0.00
    1    5   47      1.82      0.00
    3    5   47     -2.56      0.00
    1    7   47    -11.80      0.00
    3    7   47      8.28      0.00
    5    7   47      1.48      0.00
    1    9   47     11.36      0.00
    3    9   47      4.69      0.00
    5    9   47     21.14      0.00
    7    9   47      3.96      0.00
    1   11   47     -7.29      0.00
    3   11   47      4.64      0.00
    5   11   47      0.26      0.00
    7   11   47      6.15      0.00
    9   11   47     -7.04      0.00
    1   13   47      2.91      0.00
    3   13   47     18.98      0.00
    5   13   47      2.80      0.00
    7   13   47      4.10      0.00
    9   13   47     -9.27      0.00
   11   13   47     10.86      0.00
    1   15   47     -2.64      0.00
    3   15   47    -12.14      0.00
    5   15   47      4.59      0.00
    7   15   47     -6.05      0.00
    9   15   47    -11.15      0.00
   11   15   47     -3.63      0.00
   13   15   47    -11.41      0.00
    1   17   47      3.67      0.00
    3   17   47      6.68      0.00
    5   17   47     -0.16      0.00
    7   17   47      4.32      0.00
    9   17   47     -3.15      0.00
   11   17   47     -0.48      0.00
   13   17   47      7.64      0.00
   15   17   47      4.78      0.00
    1   19   47      2.07      0.00
    3   19   47    -10.86      0.00
    5   19   47    -12.56      0.00
    7   19   47      4.76      0.00
    9   19   47     -4.25      0.00
   11   19   47     -1.10      0.00
   13   19   47    -19.18      0.00
   15   19   47     -5.16      0.00
   17   19   47    -14.69      0.00
    1   21   47      4.92      0.00
    3   21   47     12.36      0.00
    5   21   47     10.96      0.00
    7   21   47      7.00      0.00
    9   21   47      9.35      0.00
   11   21   47      4.75      0.00
   13   21   47      0.93      0.00
   15   21   47     -7.80      0.00
   17   21   47      4.15      0.00
   19   21   47      3.32      0.00
    1   23   47     -4.77      0.00
    3   23   47     -8.46      0.00
    5   23   47     10.19      0.00
    7   23   47    -15.46      0.00
    9   23   47    -14.41      0.00
   11   23   47     -4.03      0.00
   13   23   47    -13.38      0.00
   15   23   47      0.67      0.00
   17   23   47     -0.99      0.00
    1   25   47     12.02      0.00
    3   25   47     18.06      0.00
    5   25   47     -6.35      0.00
    7   25   47    -12.30      0.00
    9   25   47      5.69      0.00
   11   25   47    -15.52      0.00
   13   25   47     19.93      0.00
    3   27   47     12.35      0.00
    5   27   47     -2.58      0.00
    7   27   47    -16.58      0.00
    0    0   48     10.63      0.00
    0    2   48    -18.85      0.00
    2    2   48     26.30      0.00
    0    4   48     -1.75      0.00
    2    4   48    -16.51      0.00
    4    4   48     23.33      0.00
    0    6   48     -5.43      0.00
    2    6   48      6.92      0.00
    4    6   48     -6.15      0.00
    6    6   48     -0.94      0.00
    0    8   48     -2.32      0.00
    2    8   48     -2.84      0.00
    4    8   48      7.57      0.00
    6    8   48     -3.07      0.00
    8    8   48      4.20      0.00
    0   10   48     -3.87      0.00
    2   10   48     17.07      0.00
    4   10   48     -8.30      0.00
    6   10   48     -7.08      0.00
    8   10   48     23.26      0.00
   10   10   48      4.07      0.00
    0   12   48      7.88      0.00
    2   12   48     -0.49      0.00
    4   12   48     -6.51      0.00
    6   12   48     13.57      0.00
    8   12   48     -4.41      0.00
   10   12   48      5.89      0.00
   12   12   48    -11.61      0.00
    0   14   48      6.41      0.00
    2   14   48     21.01      0.00
    4   14   48      4.24      0.00
    6   14   48     -8.89      0.00
    8   14   48     10.10      0.00
   10   14   48     -4.64      0.00
   12   14   48    -12.89      0.00
   14   14   48     14.22      0.00
    0   16   48      2.28      0.00
    2   16   48      4.11      0.00
    4   16   48     -1.32      0.00
    6   16   48     -7.16      0.00
    8   16   48     -5.46      0.00
   10   16   48     -8.03      0.00
   12   16   48     -2.01      0.00
   14   16   48     -2.15      0.00
   16   16   48      6.22      0.00
    0   18   48     -1.32      0.00
    2   18   48     13.54      0.00
    4   18   48     -1.96      0.00
    6   18   48      0.90      0.00
    8   18   48     -1.40      0.00
   10   18   48      4.23      0.00
   12   18   48     -9.01      0.00
   14   18   48     -4.15      0.00
   16   18   48      0.42      0.00
   18   18   48    -19.64      0.00
    0   20   48    -26.92      0.00
    2   20   48      1.86      0.00
    4   20   48    -12.91      0.00
    6   20   48     -2.62      0.00
    8   20   48      6.62      0.00
   10   20   48     -2.74      0.00
   12   20   48    -10.63      0.00
   14   20   48    -15.23      0.00
   16   20   48    -21.24      0.00
   18   20   48     14.55      0.00
    0   22   48     -1.81      0.00
    2   22   48     -0.23      0.00
    4   22   48     -6.38      0.00
    6   22   48      8.61      0.00
    8   22   48      6.10      0.00
   10   22   48     20.10      0.00
   12   22   48    -17.03      0.00
   14   22   48      5.86      0.00
   16   22   48    -10.60      0.00
    0   24   48     -6.41      0.00
    2   24   48     22.32      0.00
    4   24   48    -11.24      0.00
    6   24   48      4.86      0.00
    8   24   48     10.88      0.00
   10   24   48      2.85      0.00
   12   24   48     20.13      0.00
    1    3   49      8.44      0.00
    1    5   49    -14.37      0.00
    3    5   49     -1.25      0.00
    1    7   49     -4.40      0.00
    3    7   49     -0.45      0.00
    5    7   49     16.70      0.00
    1    9   49    -18.11      0.00
    3    9   49     10.39      0.00
    5    9   49      3.37      0.00
    7    9   49     10.15      0.00
    1   11   49      1.01      0.00
    3   11   49      6.67      0.00
    5   11   49     12.01      0.00
    7   11   49    -11.98      0.00
    9   11   49      6.90      0.00
    1   13   49     -0.12      0.00
    3   13   49    -18.60      0.00
    5   13   49     -1.69      0.00
    7   13   49    -13.82      0.00
    9   13   49     12.32      0.00
   11   13   49    -16.75      0.00
    1   15   49      3.76      0.00
    3   15   49      9.40      0.00
    5   15   49     -6.91      0.00
    7   15   49     -1.38      0.00
    9   15   49    -21.59      0.00
   11   15   49      5.19      0.00
   13   15   49      6.22      0.00
    1   17   49    -11.05      0.00
    3   17   49    -10.37      0.00
    5   17   49    -13.13      0.00
    7   17   49    -15.60      0.00
    9   17   49     -6.76      0.00
   11   17   49    -27.94      0.00
   13   17   49    -11.02      0.00
   15   17   49     -6.47      0.00
    1   19   49     -1.21      0.00
    3   19   49     -6.97      0.00
    5   19   49     15.88      0.00
    7   19   49     -6.36      0.00
    9   19   49     -2.65      0.00
   11   19   49      1.55      0.00
   13   19   49      7.58      0.00
   15   19   49    -20.26      0.00
   17   19   49      0.82      0.00
    1   21   49      1.77      0.00
    3   21   49     -0.57      0.00
    5   21   49     -8.45      0.00
    7   21   49      2.11      0.00
    9   21   49      3.05      0.00
   11   21   49     -8.27      0.00
   13   21   49    -21.17      0.00
    1   23   49      7.86      0.00
    3   23   49     28.31      0.00
    5   23   49     -4.29      0.00
    7   23   49     -9.98      0.00
    9   23   49    -23.05      0.00
    0    0   50     35.49      0.00
    0    2   50    -13.53      0.00
    2    2   50      3.91      0.00
    0    4   50      2.27      0.00
    2    4   50     -2.60      0.00
    4    4   50     -5.63      0.00
    0    6   50    -15.39      0.00
    2    6   50     11.24      0.00
    4    6   50     -1.37      0.00
    6    6   50      4.91      0.00
    0    8   50      5.44      0.00
    2    8   50      0.53      0.00
    4    8   50     -7.49      0.00
    6    8   50     -9.18      0.00
    8    8   50      1.03      0.00
    0   10   50     -4.26      0.00
    2   10   50     -2.43      0.00
    4   10   50     11.49      0.00
    6   10   50     10.27      0.00
    8   10   50     18.55      0.00
   10   10   50     11.13      0.00
    0   12   50     19.80      0.00
    2   12   50     -1.40      0.00
    4   12   50      6.56      0.00
    6   12   50      8.51      0.00
    8   12   50      1.84      0.00
   10   12   50      2.52      0.00
   12   12   50      8.73      0.00
    0   14   50    -13.54      0.00
    2   14   50      6.77      0.00
    4   14   50     -2.10      0.00
    6   14   50     -6.05      0.00
    8   14   50      0.12      0.00
   10   14   50     -2.85      0.00
   12   14   50    -11.58      0.00
   14   14   50      1.69      0.00
    0   16   50     14.90      0.00
    2   16   50      5.29      0.00
    4   16   50     19.77      0.00
    6   16   50      1.66      0.00
    8   16   50      3.52      0.00
   10   16   50      4.09      0.00
   12   16   50    -12.73      0.00
   14   16   50    -23.90      0.00
   16   16   50     27.36      0.00
    0   18   50     -0.74      0.00
    2   18   50      4.96      0.00
    4   18   50     -9.05      0.00
    6   18   50     10.74      0.00
    8   18   50      5.08      0.00
   10   18   50     -6.60      0.00
   12   18   50    -40.69      0.00
    0   20   50     36.05      0.00
    2   20   50    -12.42      0.00
    4   20   50      4.30      0.00
    6   20   50    -26.74      0.00
    8   20   50     23.15      0.00
   10   20   50      8.47      0.00
   12   20   50    -24.78      0.00
    2   22   50      3.59      0.00
    4   22   50    -14.30      0.00
    1    3   51     -6.69      0.00
    1    5   51     -4.58      0.00
    3    5   51     -4.43      0.00
    1    7   51     -9.09      0.00
    3    7   51     -8.60      0.00
    5    7   51     -4.11      0.00
    1    9   51      3.11      0.00
    3    9   51     10.25      0.00
    5    9   51      0.21      0.00
    7    9   51    -13.09      0.00
    1   11   51     -6.66      0.00
    3   11   51    -10.18      0.00
    5   11   51     -2.11      0.00
    7   11   51     -1.63      0.00
    9   11   51     -4.13      0.00
    1   13   51     -6.26      0.00
    3   13   51     23.48      0.00
    5   13   51    -18.18      0.00
    7   13   51      9.46      0.00
    9   13   51    -19.03      0.00
   11   13   51     27.23      0.00
    1   15   51      7.47      0.00
    3   15   51     -9.86      0.00
    5   15   51      5.75      0.00
    7   15   51    -23.54      0.00
    9   15   51     15.48      0.00
   11   15   51    -28.50      0.00
   13   15   51     -2.60      0.00
    1   17   51      1.15      0.00
    3   17   51      4.77      0.00
    5   17   51      4.22      0.00
    7   17   51     -4.51      0.00
    1   19   51     -4.94      0.00
    3   19   51     11.16      0.00
    5   19   51     -6.88      0.00
    7   19   51     -5.72      0.00
    9   19   51      3.48      0.00
    0    0   52      7.18      0.00
    0    2   52     -2.03      0.00
    2    2   52     21.18      0.00
    0    4   52     22.64      0.00
    2    4   52    -19.74      0.00
    4    4   52     27.49      0.00
    0    6   52      2.90      0.00
    2    6   52      4.73      0.00
    4    6   52    -12.99      0.00
    6    6   52    -54.88      0.00
    0    8   52     -0.07      0.00
    2    8   52     -1.31      0.00
    4    8   52     -5.32      0.00
    6    8   52     -3.94      0.00
    8    8   52    -12.70      0.00
    0   10   52     -2.05      0.00
    2   10   52     -8.48      0.00
    4   10   52     -1.11      0.00
    6   10   52      9.60      0.00
    8   10   52     10.74      0.00
   10   10   52     -3.90      0.00
    4   12   52      2.01      0.00
    6   12   52      5.22      0.00
    8   12   52     24.78      0.00
   10   12   52      3.45      0.00
   12   12   52    -37.50      0.00
    0   14   52      5.33      0.00
    2   14   52    -14.11      0.00
    4   14   52      0.13      0.00
    6   14   52      4.85      0.00
    8   14   52      2.64      0.00
   10   14   52      7.89      0.00
    0   16   52     -3.88      0.00
    2   16   52      5.24      0.00
    4   16   52    -13.90      0.00
    6   16   52      1.50      0.00
    0   18   52      6.19      0.00
    2   18   52     18.40      0.00
    4   18   52     22.24      0.00
    1    3   53    -10.18      0.00
    1    5   53     -7.51      0.00
    3    5   53    -13.62      0.00
    1    7   53     18.10      0.00
    3    7   53      0.20      0.00
    5    7   53    -20.07      0.00
    1    9   53     14.23      0.00
    3    9   53     -3.17      0.00
    5    9   53     -8.77      0.00
    7    9   53     -4.40      0.00
    1   11   53     -6.16      0.00
    3   11   53     24.59      0.00
    5   11   53      8.93      0.00
    7   11   53    -11.80      0.00
    9   11   53     -2.01      0.00
    3   13   53      0.06      0.00
    5   13   53     31.97      0.00
    7   13   53     -3.86      0.00
    1   15   53     14.21      0.00
    0    2   54    -30.68      0.00
    2    2   54     12.10      0.00
    0    4   54     10.69      0.00
    2    4   54      4.62      0.00
    4    4   54    -20.92      0.00
    0    6   54     -9.02      0.00
    2    6   54     14.11      0.00
    4    6   54    -29.08      0.00
    0    8   54     15.58      0.00
    2    8   54    -10.88      0.00
    4    8   54    -15.71      0.00
    0   10   54    -19.70      0.00
    2   10   54     -3.16      0.00
    4   10   54      2.88      0.00
    0    0    2   -752.45      0.00
    0    2    2   2085.36      0.00
    2    2    2    465.47      0.00
    0    0    4    666.04      0.00
    0    0   10   -293.56      0.00
    0    0   14     81.15      0.00
   20   20   20     97.13      0.00
   24   24   24      5.37      0.00
   32   32   32    -51.25      0.00
   30   32   34     -6.89      0.00
   32   32   34      1.66      0.00
    0   34   34     -3.02      0.00
   26   34   34     13.92      0.00
   28   34   34    -12.21      0.00
   30   34   34     20.98      0.00
   29   33   35    -13.56      0.00
   30   30   36     30.83      0.00
   28   32   36      2.70      0.00
   30   32   36     14.16      0.00
    0   34   36     16.00      0.00
   26   34   36      0.33      0.00
   28   34   36     31.99      0.00
    0   36   36     -5.17      0.00
    2   36   36     14.59      0.00
   22   36   36    -15.95      0.00
   24   36   36    -22.15      0.00
   27   31   37      9.10      0.00
   29   31   37    -22.25      0.00
   25   33   37     17.68      0.00
   27   33   37    -20.47      0.00
   21   35   37      8.99      0.00
   23   35   37      0.98      0.00
   25   35   37     -4.38      0.00
   28   30   38      0.50      0.00
   26   32   38     -4.03      0.00
   22   34   38      1.06      0.00
   24   34   38     -9.99      0.00
    0   36   38     16.35      0.00
   16   36   38      1.02      0.00
   18   36   38      8.87      0.00
   20   36   38    -26.05      0.00
   22   36   38    -13.75      0.00
    0   38   38     20.71      0.00
    2   38   38     23.69      0.00
   12   38   38     56.64      0.00
   14   38   38      9.49      0.00
   16   38   38     32.54      0.00
   18   38   38    -47.65      0.00
   27   29   39      7.98      0.00
   25   31   39     -6.14      0.00
   27   31   39     -1.24      0.00
   21   33   39      2.80      0.00
   23   33   39    -11.81      0.00
   25   33   39    -17.35      0.00
   17   35   39      3.36      0.00
   19   35   39     13.65      0.00
   21   35   39     -4.55      0.00
   13   37   39     -5.73      0.00
   15   37   39      8.68      0.00
   17   37   39      5.04      0.00
   20   20   40      6.87      0.00
   26   28   40     -4.58      0.00
   28   28   40     -6.04      0.00
   24   30   40    -16.68      0.00
   26   30   40    -19.52      0.00
   22   32   40      6.67      0.00
   24   32   40      2.76      0.00
   18   34   40     15.68      0.00
   20   34   40      2.44      0.00
   22   34   40      7.95      0.00
   12   36   40     11.88      0.00
   14   36   40     10.13      0.00
   16   36   40     21.52      0.00
   18   36   40     -7.91      0.00
    4   38   40      7.59      0.00
    6   38   40      5.50      0.00
    8   38   40      5.44      0.00
   10   38   40     17.96      0.00
   12   38   40      4.20      0.00
   14   38   40     29.89      0.00
    0   40   40     25.04      0.00
    2   40   40     19.39      0.00
    4   40   40      6.05      0.00
    6   40   40     15.60      0.00
   19   21   41     14.62      0.00
   23   29   41     13.92      0.00
   25   29   41     -2.88      0.00
   21   31   41    -18.33      0.00
   23   31   41    -10.90      0.00
   17   33   41    -25.16      0.00
   19   33   41    -19.64      0.00
   21   33   41     -1.33      0.00
   13   35   41    -18.13      0.00
   15   35   41      3.51      0.00
   17   35   41    -18.93      0.00
    3   37   41     10.79      0.00
    5   37   41     29.46      0.00
    7   37   41     -6.55      0.00
    9   37   41     14.39      0.00
   11   37   41    -21.80      0.00
   13   37   41     24.07      0.00
    1   39   41     16.24      0.00
    3   39   41     21.58      0.00
    5   39   41      0.40      0.00
   20   20   42     -2.51      0.00
   26   26   42      4.14      0.00
   24   28   42     -9.43      0.00
   26   28   42     -2.71      0.00
   20   30   42      4.34      0.00
   22   30   42     -3.67      0.00
   24   30   42     -5.11      0.00
   18   32   42     -9.86      0.00
   20   32   42     -1.07      0.00
    8   34   42     -1.49      0.00
   10   34   42     -4.26      0.00
   12   34   42     -6.02      0.00
   14   34   42    -10.18      0.00
   16   34   42      8.51      0.00
    0   36   42      8.13      0.00
    2   36   42     -5.90      0.00
    4   36   42     -7.21      0.00
    6   36   42      1.38      0.00
    8   36   42     -1.53      0.00
   10   36   42    -12.81      0.00
   12   36   42    -15.56      0.00
    0   38   42      6.99      0.00
    2   38   42      1.79      0.00
    4   38   42     13.05      0.00
   23   27   43     31.52      0.00
   25   27   43    -15.52      0.00
   19   29   43     -4.75      0.00
   21   29   43      5.45      0.00
   23   29   43     -2.46      0.00
   17   31   43    -30.96      0.00
   19   31   43     -6.29      0.00
    9   33   43    -13.33      0.00
   11   33   43    -14.83      0.00
   13   33   43    -11.16      0.00
   15   33   43    -33.08      0.00
   17   33   43    -13.24      0.00
    1   35   43     38.32      0.00
    3   35   43     -6.25      0.00
    5   35   43     13.50      0.00
    7   35   43     -5.81      0.00
    9   35   43      5.69      0.00
   11   35   43    -18.67      0.00
    1   37   43     18.30      0.00
    3   37   43     25.59      0.00
   18   18   44     29.99      0.00
   24   24   44     -8.72      0.00
   22   26   44     -6.96      0.00
   24   26   44     -2.35      0.00
   18   28   44    -23.42      0.00
   20   28   44     14.78      0.00
   22   28   44     -4.88      0.00
   16   30   44     -3.73      0.00
   18   30   44      6.63      0.00
   20   30   44    -21.00      0.00
   10   32   44     -3.67      0.00
   12   32   44     10.41      0.00
   14   32   44     -3.19      0.00
   16   32   44     10.62      0.00
    0   34   44      7.08      0.00
    2   34   44     10.35      0.00
    4   34   44    -22.81      0.00
    6   34   44     -2.41      0.00
    8   34   44     -7.14      0.00
   10   34   44      6.66      0.00
   12   34   44    -12.66      0.00
    0   36   44     -4.16      0.00
    2   36   44      5.37      0.00
   21   25   45     -6.41      0.00
   23   25   45      9.52      0.00
   17   27   45     -9.65      0.00
   19   27   45     11.75      0.00
   21   27   45     11.76      0.00
   15   29   45     -2.08      0.00
   17   29   45     -2.83      0.00
   19   29   45     -4.82      0.00
    9   31   45     -5.55      0.00
   11   31   45     16.66      0.00
   13   31   45     -4.37      0.00
   15   31   45      8.35      0.00
    1   33   45     13.10      0.00
    3   33   45    -25.70      0.00
    5   33   45     13.05      0.00
    7   33   45    -11.31      0.00
    9   33   45     21.53      0.00
   11   33   45    -15.50      0.00
   22   22   46     19.91      0.00
   20   24   46     -9.41      0.00
   22   24   46     -9.81      0.00
   18   26   46    -30.15      0.00
   20   26   46     12.99      0.00
   12   28   46      5.92      0.00
   14   28   46    -45.91      0.00
   16   28   46     -6.08      0.00
   18   28   46      6.05      0.00
    0   30   46     57.83      0.00
    2   30   46     -4.91      0.00
    4   30   46      9.70      0.00
    6   30   46    -16.24      0.00
    8   30   46      1.90      0.00
   10   30   46     11.49      0.00
   12   30   46    -24.64      0.00
   14   30   46     18.37      0.00
    0   32   46      6.41      0.00
    2   32   46     12.49      0.00
    4   32   46      4.76      0.00
    6   32   46     -7.88      0.00
    8   32   46     -1.16      0.00
   10   32   46      3.21      0.00
   19   23   47     -2.99      0.00
   21   23   47     -4.80      0.00
   15   25   47      5.86      0.00
   17   25   47      3.00      0.00
   19   25   47      3.65      0.00
    1   27   47     20.96      0.00
    9   27   47    -32.99      0.00
   11   27   47     38.18      0.00
   13   27   47      9.57      0.00
   15   27   47      2.18      0.00
   17   27   47     -6.33      0.00
    1   29   47      7.80      0.00
    3   29   47      7.02      0.00
    5   29   47     -4.12      0.00
    7   29   47      2.34      0.00
    9   29   47     17.04      0.00
   11   29   47      2.07      0.00
   13   29   47     16.30      0.00
    1   31   47     -8.58      0.00
    3   31   47    -14.41      0.00
    5   31   47     25.86      0.00
    7   31   47      0.46      0.00
   20   20   48    -32.93      0.00
   18   22   48      8.09      0.00
   20   22   48     15.64      0.00
   14   24   48    -11.47      0.00
   16   24   48      9.57      0.00
   18   24   48    -22.76      0.00
    0   26   48     12.26      0.00
    2   26   48     17.19      0.00
    4   26   48     -1.61      0.00
    6   26   48     -9.62      0.00
    8   26   48     -3.07      0.00
   10   26   48      8.65      0.00
   12   26   48     12.15      0.00
   14   26   48    -22.55      0.00
   16   26   48    -21.84      0.00
    0   28   48     31.64      0.00
    2   28   48      8.22      0.00
    4   28   48     -6.48      0.00
    6   28   48    -17.83      0.00
    8   28   48      5.00      0.00
   10   28   48      6.79      0.00
   12   28   48     -9.83      0.00
    0   30   48    -10.08      0.00
    2   30   48     23.58      0.00
    4   30   48     -0.81      0.00
    6   30   48      2.73      0.00
   15   21   49     -8.47      0.00
   17   21   49     -9.77      0.00
   19   21   49     -2.09      0.00
   11   23   49     -3.94      0.00
   13   23   49      2.48      0.00
   15   23   49     -2.85      0.00
   17   23   49      8.17      0.00
    1   25   49     22.92      0.00
    3   25   49      9.62      0.00
    5   25   49     -0.78      0.00
    7   25   49    -37.12      0.00
    9   25   49    -31.91      0.00
   11   25   49     -2.27      0.00
   13   25   49      6.91      0.00
    1   27   49     26.90      0.00
    3   27   49     10.84      0.00
    5   27   49     -7.90      0.00
    7   27   49    -10.83      0.00
    9   27   49     -1.10      0.00
   14   18   50    -21.61      0.00
   16   18   50    -16.72      0.00
   18   18   50     28.24      0.00
   14   20   50    -30.90      0.00
   16   20   50     11.15      0.00
   18   20   50    -13.49      0.00
    0   22   50     10.60      0.00
    6   22   50    -14.96      0.00
    8   22   50      5.16      0.00
   10   22   50      4.68      0.00
   12   22   50     16.30      0.00
   14   22   50    -15.72      0.00
   16   22   50     -2.53      0.00
    0   24   50     27.54      0.00
    2   24   50      2.25      0.00
    4   24   50     -1.06      0.00
    6   24   50     -8.66      0.00
    8   24   50     -0.41      0.00
   10   24   50     16.58      0.00
   12   24   50     -0.92      0.00
    0   26   50     15.40      0.00
    2   26   50     -4.32      0.00
    4   26   50      0.84      0.00
    6   26   50     -9.34      0.00
    8   26   50     -6.01      0.00
    9   17   51    -45.77      0.00
   11   17   51     13.62      0.00
   13   17   51     -1.01      0.00
   15   17   51      2.15      0.00
   11   19   51     -9.76      0.00
   13   19   51     -2.99      0.00
   15   19   51      3.69      0.00
    1   21   51      5.40      0.00
    3   21   51     17.26      0.00
    5   21   51      6.92      0.00
    7   21   51     -5.03      0.00
    9   21   51    -10.05      0.00
   11   21   51     16.55      0.00
   13   21   51      7.36      0.00
    1   23   51     20.57      0.00
    3   23   51     -8.61      0.00
    5   23   51      2.69      0.00
    7   23   51    -22.83      0.00
    9   23   51      4.06      0.00
    1   25   51      8.60      0.00
    3   25   51     17.95      0.00
    0   12   52    -43.67      0.00
    2   12   52     -2.97      0.00
   12   14   52     -1.63      0.00
   14   14   52    -35.14      0.00
    8   16   52      7.50      0.00
   10   16   52     -5.78      0.00
   12   16   52    -29.88      0.00
   14   16   52    -13.19      0.00
   16   16   52     -7.58      0.00
    6   18   52    -24.98      0.00
    8   18   52     15.01      0.00
   10   18   52     -0.63      0.00
   12   18   52    -28.48      0.00
   14   18   52    -20.44      0.00
    0   20   52      1.96      0.00
    2   20   52     17.61      0.00
    4   20   52    -28.42      0.00
    6   20   52      6.08      0.00
    8   20   52    -18.71      0.00
   10   20   52      4.57      0.00
    0   22   52     15.48      0.00
    2   22   52     12.19      0.00
    4   22   52    -19.12      0.00
    6   22   52    -18.58      0.00
    1   13   53      5.13      0.00
    9   13   53     13.37      0.00
   11   13   53    -12.08      0.00
    3   15   53     23.15      0.00
    5   15   53      1.79      0.00
    7   15   53     -0.66      0.00
    9   15   53    -15.41      0.00
   11   15   53     11.44      0.00
   13   15   53      5.85      0.00
    1   17   53     11.36      0.00
    3   17   53     16.81      0.00
    5   17   53     -3.70      0.00
    7   17   53     -3.42      0.00
    9   17   53      4.61      0.00
   11   17   53    -13.44      0.00
    1   19   53      6.97      0.00
    3   19   53      3.11      0.00
    5   19   53     21.11      0.00
    7   19   53    -12.44      0.00
    0    0   54     22.31      0.00
    6    6   54    -10.29      0.00
    6    8   54    -35.89      0.00
    8    8   54    -13.67      0.00
    6   10   54      3.32      0.00
    8   10   54     15.63      0.00
   10   10   54     -7.66      0.00
    0   12   54      3.20      0.00
    2   12   54    -19.18      0.00
    4   12   54     -9.24      0.00
    6   12   54     28.83      0.00
    8   12   54      3.18      0.00
   10   12   54      1.29      0.00
   12   12   54    -13.83      0.00
    0   14   54    -17.81      0.00
    2   14   54     -8.47      0.00
    4   14   54    -17.35      0.00
    6   14   54    -17.35      0.00
    8   14   54     29.10      0.00
   10   14   54     -8.16      0.00
    0   16   54      4.90      0.00
    2   16   54      9.06      0.00
    4   16   54      1.37      0.00
    6   16   54    -15.72      0.00
    8   16   54    -12.45      0.00
    0   18   54     16.72      0.00
    1    3   55     -8.88      0.00
    1    5   55      2.15      0.00
    3    5   55     -4.63      0.00
    1    7   55     17.82      0.00
    3    7   55    -10.50      0.00
    5    7   55     -4.97      0.00
    1    9   55     10.04      0.00
    3    9   55      7.78      0.00
    5    9   55     -5.94      0.00
    7    9   55    -12.27      0.00
    1   11   55     -5.71      0.00
    3   11   55      1.80      0.00
    5   11   55     16.56      0.00
    7   11   55      9.33      0.00
    9   11   55     -8.94      0.00
    1   13   55     -5.00      0.00
    3   13   55     24.68      0.00
    5   13   55      4.35      0.00
    0    0    0      0.00      0.00
# SQUEEZE RESULTS (Version =  30118)
# Note: Data are Listed for all Voids in the P1 Unit Cell
# i.e. Centre of Gravity, Solvent Accessible Volume,
# Recovered number of Electrons in the Void and
# Details about the Squeezed Material
loop_
  _platon_squeeze_void_nr
  _platon_squeeze_void_average_x
  _platon_squeeze_void_average_y
  _platon_squeeze_void_average_z
  _platon_squeeze_void_volume
  _platon_squeeze_void_count_electrons
  _platon_squeeze_void_content
   1  0.000  0.000  0.000      2290       453 ' '
   2  0.500  0.000  0.000      2291       453 ' '
   3  0.296 -0.005  0.160     19078      4291 ' '
   4  0.000  0.000  0.500      2291       453 ' '
   5  0.500  0.000  0.500      2290       453 ' '
   6  0.000  0.500  0.000      2291       453 ' '
   7  0.500  0.500  0.000      2290       453 ' '
   8  0.500  0.500  0.500      2291       453 ' '
   9  0.000  0.500  0.500      2290       453 ' '
# Missing Reflections Below sin(th)/lambda = 0.25
loop_
  _platon_missing_refln_index_h
  _platon_missing_refln_index_k
  _platon_missing_refln_index_l
  _platon_missing_refln_theta
    0    0    2     2.029
    0    2    2     2.870
    2    2    2     3.516
    0    0    4     4.061
    0    0   10    10.197
    0    0   14    14.350
_platon_squeeze_void_probe_radius                  1.20
_platon_squeeze_details
)
TITL xxj-dmf-100k_a.res in Fm-3c
CELL   43.5475   43.5475   43.5475     90.00     90.00     90.00
SPGR Fm-3c
# Solvent Accessible Volume =     37331
# Electrons Found in S.A.V. =      7795
# Note: Atoms in Void are Labelled as Cxxx and Qxxx for all Others
C101 0.750 0.250 0.000 !       6.37 eA-3
C102 0.250 0.250 0.082 !       4.05 eA-3
C103 0.750 0.113 0.249 !       3.73 eA-3
C104 0.282 0.234 0.000 !       3.70 eA-3
C105 0.309 0.501 0.238 !       3.16 eA-3
C106 0.330 0.327 0.173 !       2.69 eA-3
C107 0.628 0.106 0.075 !       2.57 eA-3
C108 0.250 0.250 0.250 !       2.43 eA-3
Q109 0.500 0.174 0.384 !       1.78 eA-3
Q110 0.683 0.502 0.465 !       1.60 eA-3
C111 0.500 0.500 0.133 !       1.60 eA-3
C112 0.814 0.315 0.186 !       1.56 eA-3
C113 0.719 0.130 0.236 !       1.51 eA-3
Q114 0.365 0.083 0.260 !       1.43 eA-3
Q115 0.201 0.502 0.109 !       1.40 eA-3
C116 0.134 0.023 0.070 !       1.37 eA-3
Q117 0.317 0.148 0.084 !       1.36 eA-3
C118 0.797 0.203 0.297 !       1.34 eA-3
Q119 0.194 0.426 0.159 !       1.31 eA-3
Q120 0.311 0.367 0.093 !       1.29 eA-3
Q121 0.794 0.322 0.053 !       1.22 eA-3
Q122 0.618 0.283 0.407 !       1.17 eA-3
C123 0.480 0.137 0.000 !       1.12 eA-3
C124 1.000 0.364 0.069 !       1.11 eA-3
Q125 1.000 0.139 0.218 !       1.11 eA-3
Q126 0.070 0.169 0.185 !       1.02 eA-3
Q127 0.931 0.129 0.223 !       0.99 eA-3
Q128 0.091 0.278 0.129 !       0.96 eA-3
Q129 0.094 0.455 0.216 !       0.95 eA-3
C130 0.601 0.398 0.102 !       0.94 eA-3
Q131 0.777 0.162 0.066 !       0.91 eA-3
C132 0.047 0.500 0.129 !       0.89 eA-3
Q133 0.040 0.212 0.026 !       0.89 eA-3
Q134 0.922 0.379 0.292 !       0.85 eA-3
C135 0.152 0.262 0.217 !       0.85 eA-3
C136 0.723 0.155 0.336 !       0.84 eA-3
Q137 0.303 0.501 0.414 !       0.82 eA-3
Q138 0.185 0.145-0.001 !       0.80 eA-3
C139 0.781 0.149 0.182 !       0.78 eA-3
Q140 0.222 0.411 0.385 !       0.76 eA-3
Q141 0.231 0.387 0.923 !       0.74 eA-3
Q142 0.269 0.113 0.077 !       0.74 eA-3
Q143 0.231 0.887 0.423 !       0.74 eA-3
Q144 0.731 0.923 0.387 !       0.74 eA-3
Q145 0.387 0.270 0.922 !       0.73 eA-3
C146 0.234 0.203 0.353 !       0.73 eA-3
Q147 0.571 0.109 0.283 !       0.72 eA-3
Q148 0.452 0.437 0.212 !       0.70 eA-3
C149 0.724 0.156 0.179 !       0.67 eA-3
C150 0.250 0.247 0.141 !       0.67 eA-3
C151 0.500 0.502 0.473 !       0.65 eA-3
C152 0.949 0.068 0.110 !       0.63 eA-3
Q153 0.836 0.499 0.141 !       0.62 eA-3
C154 1.000 0.434 0.386 !       0.61 eA-3
C155 0.823 0.235 0.136 !       0.61 eA-3
Q156 0.284 0.114 0.006 !       0.60 eA-3
C157 0.391 0.035 0.002 !       0.58 eA-3
C158 0.797 0.212 0.243 !       0.57 eA-3
Q159 0.094 0.325 0.015 !       0.57 eA-3
C160 0.738 0.274 0.218 !       0.57 eA-3
C161 0.305 0.367 0.275 !       0.53 eA-3
C162 0.255 0.223 0.404 !       0.51 eA-3
C163 0.542 0.418 0.038 !       0.51 eA-3
Q164 0.788 0.486 0.411 !       0.50 eA-3
)
;
_shelx_fab_checksum              64101
_olex2_submission_special_instructions 'No special instructions were received'
_oxdiff_exptl_absorpt_empirical_details
;
Empirical correction (ABSPACK) includes:
- Absorption correction using spherical harmonics
- Frame scaling
;
_oxdiff_exptl_absorpt_empirical_full_max 1.204
_oxdiff_exptl_absorpt_empirical_full_min 0.905
loop_
_space_group_symop_operation_xyz
'x, y, z'
'-x, -y, z'
'-x, y, -z'
'x, -y, -z'
'z, x, y'
'z, -x, -y'
'-z, -x, y'
'-z, x, -y'
'y, z, x'
'-y, z, -x'
'y, -z, -x'
'-y, -z, x'
'y+1/2, x+1/2, -z+1/2'
'-y+1/2, -x+1/2, -z+1/2'
'y+1/2, -x+1/2, z+1/2'
'-y+1/2, x+1/2, z+1/2'
'x+1/2, z+1/2, -y+1/2'
'-x+1/2, z+1/2, y+1/2'
'-x+1/2, -z+1/2, -y+1/2'
'x+1/2, -z+1/2, y+1/2'
'z+1/2, y+1/2, -x+1/2'
'z+1/2, -y+1/2, x+1/2'
'-z+1/2, y+1/2, x+1/2'
'-z+1/2, -y+1/2, -x+1/2'
'x, y+1/2, z+1/2'
'-x, -y+1/2, z+1/2'
'-x, y+1/2, -z+1/2'
'x, -y+1/2, -z+1/2'
'z, x+1/2, y+1/2'
'z, -x+1/2, -y+1/2'
'-z, -x+1/2, y+1/2'
'-z, x+1/2, -y+1/2'
'y, z+1/2, x+1/2'
'-y, z+1/2, -x+1/2'
'y, -z+1/2, -x+1/2'
'-y, -z+1/2, x+1/2'
'y+1/2, x+1, -z+1'
'-y+1/2, -x+1, -z+1'
'y+1/2, -x+1, z+1'
'-y+1/2, x+1, z+1'
'x+1/2, z+1, -y+1'
'-x+1/2, z+1, y+1'
'-x+1/2, -z+1, -y+1'
'x+1/2, -z+1, y+1'
'z+1/2, y+1, -x+1'
'z+1/2, -y+1, x+1'
'-z+1/2, y+1, x+1'
'-z+1/2, -y+1, -x+1'
'x+1/2, y, z+1/2'
'-x+1/2, -y, z+1/2'
'-x+1/2, y, -z+1/2'
'x+1/2, -y, -z+1/2'
'z+1/2, x, y+1/2'
'z+1/2, -x, -y+1/2'
'-z+1/2, -x, y+1/2'
'-z+1/2, x, -y+1/2'
'y+1/2, z, x+1/2'
'-y+1/2, z, -x+1/2'
'y+1/2, -z, -x+1/2'
'-y+1/2, -z, x+1/2'
'y+1, x+1/2, -z+1'
'-y+1, -x+1/2, -z+1'
'y+1, -x+1/2, z+1'
'-y+1, x+1/2, z+1'
'x+1, z+1/2, -y+1'
'-x+1, z+1/2, y+1'
'-x+1, -z+1/2, -y+1'
'x+1, -z+1/2, y+1'
'z+1, y+1/2, -x+1'
'z+1, -y+1/2, x+1'
'-z+1, y+1/2, x+1'
'-z+1, -y+1/2, -x+1'
'x+1/2, y+1/2, z'
'-x+1/2, -y+1/2, z'
'-x+1/2, y+1/2, -z'
'x+1/2, -y+1/2, -z'
'z+1/2, x+1/2, y'
'z+1/2, -x+1/2, -y'
'-z+1/2, -x+1/2, y'
'-z+1/2, x+1/2, -y'
'y+1/2, z+1/2, x'
'-y+1/2, z+1/2, -x'
'y+1/2, -z+1/2, -x'
'-y+1/2, -z+1/2, x'
'y+1, x+1, -z+1/2'
'-y+1, -x+1, -z+1/2'
'y+1, -x+1, z+1/2'
'-y+1, x+1, z+1/2'
'x+1, z+1, -y+1/2'
'-x+1, z+1, y+1/2'
'-x+1, -z+1, -y+1/2'
'x+1, -z+1, y+1/2'
'z+1, y+1, -x+1/2'
'z+1, -y+1, x+1/2'
'-z+1, y+1, x+1/2'
'-z+1, -y+1, -x+1/2'
'-x, -y, -z'
'x, y, -z'
'x, -y, z'
'-x, y, z'
'-z, -x, -y'
'-z, x, y'
'z, x, -y'
'z, -x, y'
'-y, -z, -x'
'y, -z, x'
'-y, z, x'
'y, z, -x'
'-y-1/2, -x-1/2, z-1/2'
'y-1/2, x-1/2, z-1/2'
'-y-1/2, x-1/2, -z-1/2'
'y-1/2, -x-1/2, -z-1/2'
'-x-1/2, -z-1/2, y-1/2'
'x-1/2, -z-1/2, -y-1/2'
'x-1/2, z-1/2, y-1/2'
'-x-1/2, z-1/2, -y-1/2'
'-z-1/2, -y-1/2, x-1/2'
'-z-1/2, y-1/2, -x-1/2'
'z-1/2, -y-1/2, -x-1/2'
'z-1/2, y-1/2, x-1/2'
'-x, -y+1/2, -z+1/2'
'x, y+1/2, -z+1/2'
'x, -y+1/2, z+1/2'
'-x, y+1/2, z+1/2'
'-z, -x+1/2, -y+1/2'
'-z, x+1/2, y+1/2'
'z, x+1/2, -y+1/2'
'z, -x+1/2, y+1/2'
'-y, -z+1/2, -x+1/2'
'y, -z+1/2, x+1/2'
'-y, z+1/2, x+1/2'
'y, z+1/2, -x+1/2'
'-y-1/2, -x, z'
'y-1/2, x, z'
'-y-1/2, x, -z'
'y-1/2, -x, -z'
'-x-1/2, -z, y'
'x-1/2, -z, -y'
'x-1/2, z, y'
'-x-1/2, z, -y'
'-z-1/2, -y, x'
'-z-1/2, y, -x'
'z-1/2, -y, -x'
'z-1/2, y, x'
'-x+1/2, -y, -z+1/2'
'x+1/2, y, -z+1/2'
'x+1/2, -y, z+1/2'
'-x+1/2, y, z+1/2'
'-z+1/2, -x, -y+1/2'
'-z+1/2, x, y+1/2'
'z+1/2, x, -y+1/2'
'z+1/2, -x, y+1/2'
'-y+1/2, -z, -x+1/2'
'y+1/2, -z, x+1/2'
'-y+1/2, z, x+1/2'
'y+1/2, z, -x+1/2'
'-y, -x-1/2, z'
'y, x-1/2, z'
'-y, x-1/2, -z'
'y, -x-1/2, -z'
'-x, -z-1/2, y'
'x, -z-1/2, -y'
'x, z-1/2, y'
'-x, z-1/2, -y'
'-z, -y-1/2, x'
'-z, y-1/2, -x'
'z, -y-1/2, -x'
'z, y-1/2, x'
'-x+1/2, -y+1/2, -z'
'x+1/2, y+1/2, -z'
'x+1/2, -y+1/2, z'
'-x+1/2, y+1/2, z'
'-z+1/2, -x+1/2, -y'
'-z+1/2, x+1/2, y'
'z+1/2, x+1/2, -y'
'z+1/2, -x+1/2, y'
'-y+1/2, -z+1/2, -x'
'y+1/2, -z+1/2, x'
'-y+1/2, z+1/2, x'
'y+1/2, z+1/2, -x'
'-y, -x, z-1/2'
'y, x, z-1/2'
'-y, x, -z-1/2'
'y, -x, -z-1/2'
'-x, -z, y-1/2'
'x, -z, -y-1/2'
'x, z, y-1/2'
'-x, z, -y-1/2'
'-z, -y, x-1/2'
'-z, y, -x-1/2'
'z, -y, -x-1/2'
'z, y, x-1/2'
loop_
_atom_site_label
_atom_site_type_symbol
_atom_site_fract_x
_atom_site_fract_y
_atom_site_fract_z
_atom_site_U_iso_or_equiv
_atom_site_adp_type
_atom_site_occupancy
_atom_site_site_symmetry_order
_atom_site_calc_flag
_atom_site_refinement_flags_posn
_atom_site_refinement_flags_adp
_atom_site_refinement_flags_occupancy
_atom_site_disorder_assembly
_atom_site_disorder_group
Cu01 Cu 0.42024(2) 0.72004(2) 0.62069(2) 0.01629(14) Uani 1 1 d . . . . .
O1 O 0.44742(6) 0.70697(5) 0.67713(6) 0.0479(6) Uani 1 1 d . . . . .
Cu02 Cu 0.46700(2) 0.71086(2) 0.500000 0.0535(2) Uani 1 2 d S T P . .
O003 O 0.41534(5) 0.68311(5) 0.64540(5) 0.0370(5) Uani 1 1 d . . . . .
N004 N 0.42002(5) 0.63443(5) 0.73690(5) 0.0248(4) Uani 1 1 d . . . . .
N005 N 0.40490(5) 0.61811(5) 0.71459(5) 0.0265(5) Uani 1 1 d . . . . .
C008 C 0.40666(7) 0.63422(7) 0.68851(6) 0.0304(6) Uani 1 1 d . . . . .
H008 H 0.397898 0.628375 0.669936 0.036 Uiso 1 1 calc R . . . .
C00A C 0.42339(6) 0.66085(6) 0.69312(7) 0.0300(6) Uani 1 1 d . . . . .
C00B C 0.43128(7) 0.65979(6) 0.72401(6) 0.0304(6) Uani 1 1 d . . . . .
H00B H 0.442754 0.674635 0.734220 0.036 Uiso 1 1 calc R . . . .
C00D C 0.42963(7) 0.68538(7) 0.67095(7) 0.0338(6) Uani 1 1 d . . . . .
C2 C 0.39017(8) 0.70214(9) 0.4961(3) 0.076(3) Uani 0.5 1 d . U . A -1
H2 H 0.373355 0.714793 0.499678 0.091 Uiso 0.5 1 calc R . . A -1
O3 O 0.41452(10) 0.71505(10) 0.48995(11) 0.0573(15) Uani 0.5 1 d G U . A -1
N4 N 0.38511(9) 0.67141(10) 0.4981(3) 0.103(3) Uani 0.5 1 d DG U . A -1
C5 C 0.35576(12) 0.65796(14) 0.5029(6) 0.078(4) Uani 0.5 1 d DG U . A -1
H5A H 0.340474 0.673812 0.503773 0.117 Uiso 0.5 1 calc GR . . A -1
H5B H 0.355817 0.646702 0.521817 0.117 Uiso 0.5 1 calc GR . . A -1
H5C H 0.351172 0.644270 0.486202 0.117 Uiso 0.5 1 calc GR . . A -1
C6 C 0.41046(18) 0.65024(10) 0.4882(4) 0.122(8) Uani 0.5 1 d DG U . A -1
H6A H 0.415541 0.654217 0.467133 0.182 Uiso 0.5 1 calc GR . . A -1
H6B H 0.403833 0.629330 0.490360 0.182 Uiso 0.5 1 calc GR . . A -1
H6C H 0.428225 0.653651 0.500819 0.182 Uiso 0.5 1 calc GR . . A -1
N9_1 N 0.46823(18) 0.7102(2) 0.53894(15) 0.0384(17) Uani 0.5 1 d D U . A -1
C8_1 C 0.44530(14) 0.71157(19) 0.55943(16) 0.0322(15) Uani 0.5 1 d D U . A -1
H8_1 H 0.424768 0.711102 0.553581 0.039 Uiso 0.5 1 calc R . . A -1
N7_1 N 0.45381(11) 0.71369(17) 0.58855(15) 0.0255(14) Uani 0.5 1 d D U . A -1
C5_1 C 0.48554(10) 0.71394(11) 0.58713(10) 0.0251(10) Uani 0.5 1 d D U . A -1
C6_1 C 0.50934(9) 0.71592(11) 0.60908(11) 0.0216(10) Uani 0.5 1 d D U . A -1
N6_1 N 0.50504(14) 0.71854(9) 0.63915(9) 0.0221(16) Uani 0.5 1 d D U . A -1
H6A_1 H 0.520579 0.719808 0.651271 0.026 Uiso 0.5 1 calc R . . A -1
H6B_1 H 0.486718 0.718979 0.646499 0.026 Uiso 0.5 1 calc R . . A -1
N1_1 N 0.53886(12) 0.71531(16) 0.59818(13) 0.0224(13) Uani 0.5 1 d D U . A -1
C2_1 C 0.54415(17) 0.71300(18) 0.56811(17) 0.0320(15) Uani 0.5 1 d D U . A -1
H2_1 H 0.564596 0.712392 0.561967 0.038 Uiso 0.5 1 calc R . . A -1
N3_1 N 0.52304(16) 0.7115(2) 0.54595(15) 0.0361(18) Uani 0.5 1 d D U . A -1
C4_1 C 0.49414(14) 0.71188(13) 0.55644(12) 0.0315(19) Uani 0.5 1 d D U . A -1
loop_
_atom_site_aniso_label
_atom_site_aniso_U_11
_atom_site_aniso_U_22
_atom_site_aniso_U_33
_atom_site_aniso_U_23
_atom_site_aniso_U_13
_atom_site_aniso_U_12
Cu01 0.01556(19) 0.01590(19) 0.0174(2) 0.00211(12) 0.00014(12) 0.00050(12)
O1 0.0572(15) 0.0340(11) 0.0525(14) 0.0143(10) -0.0118(11) -0.0142(11)
Cu02 0.0268(4) 0.0782(6) 0.0555(5) 0.000 0.000 0.0006(3)
O003 0.0387(11) 0.0383(11) 0.0339(11) 0.0119(9) -0.0038(9) -0.0054(9)
N004 0.0259(11) 0.0230(10) 0.0256(11) 0.0012(8) -0.0016(8) -0.0021(8)
N005 0.0268(11) 0.0286(11) 0.0241(11) 0.0029(8) -0.0041(8) -0.0037(9)
C008 0.0317(14) 0.0338(14) 0.0257(13) 0.0093(11) -0.0050(10) -0.0070(11)
C00A 0.0263(13) 0.0289(13) 0.0349(15) 0.0070(11) -0.0024(11) -0.0004(10)
C00B 0.0347(14) 0.0253(13) 0.0310(14) 0.0042(10) -0.0002(11) -0.0043(11)
C00D 0.0313(14) 0.0324(14) 0.0376(15) 0.0105(12) 0.0013(12) 0.0013(11)
C2 0.041(3) 0.077(4) 0.110(9) 0.014(7) -0.010(6) -0.002(3)
O3 0.032(2) 0.097(4) 0.044(3) -0.004(2) -0.0003(17) -0.005(2)
N4 0.052(3) 0.084(4) 0.172(9) 0.060(9) 0.029(9) 0.008(3)
C5 0.058(4) 0.108(6) 0.068(10) -0.031(10) 0.004(6) -0.019(4)
C6 0.069(6) 0.091(7) 0.20(2) 0.012(8) 0.028(8) 0.004(5)
N9_1 0.020(4) 0.065(4) 0.030(4) -0.004(3) 0.000(2) 0.001(3)
C8_1 0.024(4) 0.053(4) 0.020(4) 0.003(3) 0.002(2) 0.003(3)
N7_1 0.016(3) 0.039(3) 0.021(4) 0.000(3) -0.004(2) 0.002(2)
C5_1 0.019(2) 0.034(3) 0.022(2) 0.000(2) 0.0011(19) 0.001(2)
C6_1 0.018(2) 0.025(2) 0.022(2) 0.0008(18) 0.0026(15) 0.0008(14)
N6_1 0.012(5) 0.0322(18) 0.0221(16) -0.0017(13) -0.0017(15) -0.0002(15)
N1_1 0.020(3) 0.028(2) 0.020(3) 0.003(2) 0.003(2) -0.003(2)
C2_1 0.027(4) 0.050(4) 0.020(4) 0.001(3) 0.001(3) -0.001(3)
N3_1 0.022(5) 0.067(4) 0.020(3) 0.001(3) -0.002(2) 0.006(4)
C4_1 0.024(6) 0.050(3) 0.020(2) -0.001(2) 0.001(2) -0.002(2)
loop_
_atom_type_symbol
_atom_type_description
_atom_type_scat_dispersion_real
_atom_type_scat_dispersion_imag
_atom_type_scat_source
C C 0.0181 0.0091 'International Tables Vol C Tables 4.2.6.8 and 6.1.1.4'
H H 0.0000 0.0000 'International Tables Vol C Tables 4.2.6.8 and 6.1.1.4'
Cu Cu -1.9646 0.5888 'International Tables Vol C Tables 4.2.6.8 and 6.1.1.4'
N N 0.0311 0.0180 'International Tables Vol C Tables 4.2.6.8 and 6.1.1.4'
O O 0.0492 0.0322 'International Tables Vol C Tables 4.2.6.8 and 6.1.1.4'
loop_
_geom_angle_atom_site_label_1
_geom_angle_atom_site_label_2
_geom_angle_atom_site_label_3
_geom_angle
_geom_angle_site_symmetry_1
_geom_angle_site_symmetry_3
O003 Cu01 N004 128.19(9) . 68_464
O003 Cu01 N005 96.75(9) . 10_656
O003 Cu01 N7_1 110.2(2) . .
N004 Cu01 N005 105.98(9) 68_464 10_656
N004 Cu01 N7_1 109.9(2) 68_464 .
N005 Cu01 N7_1 101.41(17) 10_656 .
O3 Cu02 Cu02 168.28(12) . 3_656
N9_1 Cu02 Cu02 88.2(3) . 3_656
N9_1 Cu02 O3 102.7(3) . .
C00D O003 Cu01 111.35(19) . .
N005 N004 Cu01 121.30(17) . 89_446
C00B N004 Cu01 130.64(19) . 89_446
C00B N004 N005 107.9(2) . .
N004 N005 Cu01 127.54(17) . 7_665
C008 N005 Cu01 124.37(19) . 7_665
C008 N005 N004 107.6(2) . .
N005 C008 H008 124.9 . .
N005 C008 C00A 110.3(2) . .
C00A C008 H008 124.9 . .
C008 C00A C00B 104.1(2) . .
C008 C00A C00D 127.8(3) . .
C00B C00A C00D 128.1(3) . .
N004 C00B C00A 110.1(3) . .
N004 C00B H00B 124.9 . .
C00A C00B H00B 124.9 . .
O1 C00D O003 123.2(3) . .
O1 C00D C00A 121.5(3) . .
O003 C00D C00A 115.3(3) . .
O3 C2 H2 116.4 . .
O3 C2 N4 127.2 . .
N4 C2 H2 116.4 . .
C2 O3 Cu02 140.2(4) . .
C2 N4 C5 124.1 . .
C2 N4 C6 117.8 . .
C5 N4 C6 116.7 . .
N4 C5 H5A 109.5 . .
N4 C5 H5B 109.5 . .
N4 C5 H5C 109.5 . .
H5A C5 H5B 109.5 . .
H5A C5 H5C 109.5 . .
H5B C5 H5C 109.5 . .
N4 C6 H6A 109.5 . .
N4 C6 H6B 109.5 . .
N4 C6 H6C 109.5 . .
H6A C6 H6B 109.5 . .
H6A C6 H6C 109.5 . .
H6B C6 H6C 109.5 . .
C8_1 N9_1 Cu02 129.9(5) . .
C8_1 N9_1 C4_1 104.0(5) . .
C4_1 N9_1 Cu02 125.7(6) . .
N9_1 C8_1 H8_1 122.2 . .
N7_1 C8_1 N9_1 115.6(5) . .
N7_1 C8_1 H8_1 122.2 . .
C8_1 N7_1 Cu01 117.7(4) . .
C8_1 N7_1 C5_1 103.7(4) . .
C5_1 N7_1 Cu01 138.1(4) . .
N7_1 C5_1 C6_1 134.7(5) . .
N7_1 C5_1 C4_1 108.1(4) . .
C4_1 C5_1 C6_1 117.2(4) . .
N6_1 C6_1 C5_1 124.7(4) . .
N6_1 C6_1 N1_1 118.4(5) . .
N1_1 C6_1 C5_1 116.9(4) . .
C6_1 N6_1 H6A_1 120.0 . .
C6_1 N6_1 H6B_1 120.0 . .
H6A_1 N6_1 H6B_1 120.0 . .
C2_1 N1_1 C6_1 120.2(5) . .
N1_1 C2_1 H2_1 116.7 . .
N1_1 C2_1 N3_1 126.5(6) . .
N3_1 C2_1 H2_1 116.7 . .
C2_1 N3_1 C4_1 113.6(5) . .
N9_1 C4_1 C5_1 108.5(4) . .
N3_1 C4_1 N9_1 125.9(5) . .
N3_1 C4_1 C5_1 125.6(5) . .
loop_
_geom_bond_atom_site_label_1
_geom_bond_atom_site_label_2
_geom_bond_distance
_geom_bond_site_symmetry_2
Cu01 O003 1.946(2) .
Cu01 N004 1.969(2) 68_464
Cu01 N005 2.022(2) 10_656
Cu01 N7_1 2.043(6) .
O1 C00D 1.248(4) .
Cu02 Cu02 2.8737(14) 3_656
Cu02 O3 2.334(4) .
Cu02 N9_1 1.697(6) .
O003 C00D 1.279(4) .
N004 N005 1.372(3) .
N004 C00B 1.332(3) .
N005 C008 1.337(3) .
C008 H008 0.9300 .
C008 C00A 1.384(4) .
C00A C00B 1.389(4) .
C00A C00D 1.465(4) .
C00B H00B 0.9300 .
C2 H2 0.9300 .
C2 O3 1.2293 .
C2 N4 1.3590 .
N4 C5 1.4211 .
N4 C6 1.5013 .
C5 H5A 0.9600 .
C5 H5B 0.9600 .
C5 H5C 0.9600 .
C6 H6A 0.9600 .
C6 H6B 0.9600 .
C6 H6C 0.9600 .
N9_1 C8_1 1.340(8) .
N9_1 C4_1 1.364(5) .
C8_1 H8_1 0.9300 .
C8_1 N7_1 1.324(6) .
N7_1 C5_1 1.383(5) .
C5_1 C6_1 1.413(5) .
C5_1 C4_1 1.390(5) .
C6_1 N6_1 1.328(6) .
C6_1 N1_1 1.370(6) .
N6_1 H6A_1 0.8600 .
N6_1 H6B_1 0.8600 .
N1_1 C2_1 1.334(6) .
C2_1 H2_1 0.9300 .
C2_1 N3_1 1.334(7) .
N3_1 C4_1 1.339(7) .
