#------------------------------------------------------------------------------
#$Date: 2020-06-04 03:58:12 +0300 (Thu, 04 Jun 2020) $
#$Revision: 252595 $
#$URL: file:///home/coder/svn-repositories/cod/cif/4/13/49/4134961.cif $
#------------------------------------------------------------------------------
#
# This file is available in the Crystallography Open Database (COD),
# http://www.crystallography.net/
#
# All data on this site have been placed in the public domain by the
# contributors.
#
data_4134961
loop_
_publ_author_name
'Wang, Jun'
'Zhang, Yan'
'Zhang, Peixin'
'Hu, Jianbo'
'Lin, Rui-Biao'
'Deng, Qiang'
'Zeng, Zheling'
'Xing, Huabin'
'Deng, Shuguang'
'Chen, Banglin'
_publ_section_title
;
 Optimizing Pore Space for Flexible-Robust Metal-Organic Framework to
 Boost Trace Acetylene Removal.
;
_journal_issue                   21
_journal_name_full               'Journal of the American Chemical Society'
_journal_page_first              9744
_journal_page_last               9751
_journal_paper_doi               10.1021/jacs.0c02594
_journal_volume                  142
_journal_year                    2020
_chemical_formula_moiety         'C20 H16 Cu F6 N4 S2 Si, C2 H2, 8(H O0.5)'
_chemical_formula_sum            'C22 H26 Cu F6 N4 O4 S2 Si'
_chemical_formula_weight         680.22
_space_group_crystal_system      orthorhombic
_space_group_IT_number           65
_space_group_name_Hall           '-C 2 2'
_space_group_name_H-M_alt        'C m m m'
_atom_sites_solution_hydrogens   mixed
_audit_creation_date             2019-11-15
_audit_creation_method
;
Olex2 1.2
(compiled 2018.05.29 svn.r3508 for OlexSys, GUI svn.r5506)
;
_cell_angle_alpha                90
_cell_angle_beta                 90
_cell_angle_gamma                90
_cell_formula_units_Z            2
_cell_length_a                   9.8817(6)
_cell_length_b                   19.0615(15)
_cell_length_c                   7.8770(5)
_cell_measurement_reflns_used    1746
_cell_measurement_temperature    190(2)
_cell_measurement_theta_max      53.81
_cell_measurement_theta_min      4.04
_cell_volume                     1483.71(17)
_computing_molecular_graphics    'Olex2 (Dolomanov et al., 2009)'
_computing_publication_material  'Olex2 (Dolomanov et al., 2009)'
_computing_structure_refinement  'ShelXL (Sheldrick, 2015)'
_computing_structure_solution    'SHELXT 2014/5 (Sheldrick, 2014)'
_diffrn_ambient_temperature      189.96
_diffrn_measured_fraction_theta_full 0.997
_diffrn_measured_fraction_theta_max 0.994
_diffrn_measurement_device_type  'Bruker D8 Venture'
_diffrn_measurement_method       '\f and \w scans'
_diffrn_radiation_type           GaK\a
_diffrn_radiation_wavelength     1.34139
_diffrn_reflns_av_R_equivalents  0.0787
_diffrn_reflns_av_unetI/netI     0.0605
_diffrn_reflns_Laue_measured_fraction_full 0.997
_diffrn_reflns_Laue_measured_fraction_max 0.994
_diffrn_reflns_limit_h_max       11
_diffrn_reflns_limit_h_min       -11
_diffrn_reflns_limit_k_max       22
_diffrn_reflns_limit_k_min       -15
_diffrn_reflns_limit_l_max       9
_diffrn_reflns_limit_l_min       -9
_diffrn_reflns_number            4574
_diffrn_reflns_point_group_measured_fraction_full 0.997
_diffrn_reflns_point_group_measured_fraction_max 0.994
_diffrn_reflns_theta_full        53.594
_diffrn_reflns_theta_max         54.013
_diffrn_reflns_theta_min         4.035
_exptl_absorpt_coefficient_mu    5.505
_exptl_absorpt_correction_T_max  0.7506
_exptl_absorpt_correction_T_min  0.2782
_exptl_absorpt_correction_type   multi-scan
_exptl_absorpt_process_details   sadabs
_exptl_crystal_density_diffrn    1.523
_exptl_crystal_description       block
_exptl_crystal_F_000             694
_exptl_crystal_size_max          0.19
_exptl_crystal_size_mid          0.16
_exptl_crystal_size_min          0.11
_refine_diff_density_max         0.616
_refine_diff_density_min         -0.596
_refine_diff_density_rms         0.098
_refine_ls_extinction_method     none
_refine_ls_goodness_of_fit_ref   1.078
_refine_ls_hydrogen_treatment    constr
_refine_ls_matrix_type           full
_refine_ls_number_parameters     87
_refine_ls_number_reflns         800
_refine_ls_number_restraints     48
_refine_ls_restrained_S_all      1.159
_refine_ls_R_factor_all          0.0751
_refine_ls_R_factor_gt           0.0669
_refine_ls_shift/su_max          0.000
_refine_ls_shift/su_mean         0.000
_refine_ls_structure_factor_coef Fsqd
_refine_ls_weighting_details
'w=1/[\s^2^(Fo^2^)+(0.1450P)^2^+0.5947P] where P=(Fo^2^+2Fc^2^)/3'
_refine_ls_weighting_scheme      calc
_refine_ls_wR_factor_gt          0.1928
_refine_ls_wR_factor_ref         0.2026
_reflns_Friedel_coverage         0.000
_reflns_number_gt                668
_reflns_number_total             800
_reflns_threshold_expression     'I > 2\s(I)'
_cod_data_source_file            ja0c02594_si_002.cif
_cod_data_source_block           1_a
_cod_depositor_comments
'Adding full bibliography for 4134961--4134962.cif.'
_cod_database_code               4134961
_shelx_shelxl_version_number     2018/3
_shelx_space_group_comment
;
The symmetry employed for this shelxl refinement is uniquely defined
by the following loop, which should always be used as a source of
symmetry information in preference to the above space-group names.
They are only intended as comments.
;
_shelx_estimated_absorpt_t_max   0.583
_shelx_estimated_absorpt_t_min   0.421
_olex2_refinement_description
;
1. Fixed Uiso
 At 1.2 times of:
  All C(H) groups, All O(H) groups, All O(H,H) groups
2. Uiso/Uaniso restraints and constraints
F4 \\sim F3: within 1.7A with sigma of 0.01 and sigma for terminal atoms of 0.02
F2 \\sim F3: within 1.7A with sigma of 0.01 and sigma for terminal atoms of 0.02
F1 \\sim F3: within 1.7A with sigma of 0.01 and sigma for terminal atoms of 0.02
Uanis(C6) \\sim Ueq, Uanis(O1) \\sim Ueq, Uanis(O2) \\sim Ueq: with sigma of
0.01 and sigma for terminal atoms of 0.02
Uanis(F2) \\sim Ueq, Uanis(F3) \\sim Ueq, Uanis(F4) \\sim Ueq: with sigma of
0.01 and sigma for terminal atoms of 0.02
3. Rigid body (RIGU) restrains
 F2, F3, F4
 with sigma for 1-2 distances of 0.001 and sigma for 1-3 distances of 0.002
4. Others
 Fixed Sof: C6(0.25) H6(0.25) C2(0.5) H2(0.5) C3(0.5) H3(0.5) O2(0.25)
 H2A(0.25) H2B(0.25) C4(0.5) H4(0.5) C5(0.5) H5(0.5) F4(0.125) F2(0.125)
 F3(0.25)
5.a Everything fixed:
 O2
5.b Riding coordinates:
 C6(H6), O1(H1), O2(H2A,H2B)
5.c Aromatic/amide H refined with riding coordinates:
 C2(H2), C3(H3), C4(H4), C5(H5)
;
_shelx_res_file
;
TITL 1_a.res in Cmmm
    1_a.res
    created by SHELXL-2018/3 at 16:50:51 on 15-Nov-2019
CELL 1.34139 9.8817 19.0615 7.877 90 90 90
ZERR 2 0.0006 0.0015 0.0005 0 0 0
LATT 7
SYMM -X,-Y,+Z
SYMM -X,+Y,-Z
SYMM +X,-Y,-Z
SFAC C H Cu F N O S Si
DISP C 0.0148 0.007 57.7477
DISP Cu -2.917 3.6935 28015.7787
DISP H -0 0 0.6481
DISP N 0.0253 0.0136 110.5121
DISP O 0.0412 0.025 193.9543
DISP S 0.2924 0.4247 3241.7632
DISP Si 0.2148 0.2488 1925.3355
UNIT 44 52 2 12 8 8 4 2
EQIV $1 +X,+Y,1-Z
SIMU 0.01 0.02 1.7 F4 F3
SIMU 0.01 0.02 1.7 F2 F3
SIMU 0.01 0.02 1.7 F1 F3
RIGU 0.001 0.002 F2 F3 F4
ISOR 0.01 0.02 C6 O1 O2
ISOR 0.01 0.02 F2 F3 F4

L.S. 10
PLAN  20
SIZE 0.19 0.16 0.11
TEMP -83.19
FREE C2 C2_$1
FREE C3 C3_$1
BOND $H
LIST 6
fmap 2
acta
REM <olex2.extras>
REM <HklSrc "%.\\1_a.hkl">
REM </olex2.extras>

WGHT    0.145000    0.594700
FVAR       0.31573
C1    1    0.136219    0.334514    0.500000    10.50000    0.02301    0.04236 =
         0.09329    0.00000    0.00000    0.00211
PART 1
C6    1    0.573914    0.940045    0.000000    10.25000    0.05514    0.07703 =
         0.18221    0.00000    0.00000    0.00693
AFIX   3
H6    2    0.661904    0.942365    0.000000    10.25000   -1.20000
AFIX   0

C2    1    0.234692    0.331031    0.374396    10.50000    0.03517    0.03829 =
         0.08267   -0.00807   -0.00538    0.00345
AFIX  43
H2    2    0.229010    0.297243    0.286024    10.50000   -1.20000
AFIX   0
C3    1    0.340810    0.377838    0.381284    10.50000    0.02345    0.05963 =
         0.06708   -0.00740    0.00102    0.00277
AFIX  43
H3    2    0.408616    0.374969    0.296071    10.50000   -1.20000
AFIX   0
PART 0
CU1   3    0.500000    0.500000    0.500000    10.12500    0.02070    0.04431 =
         0.06195    0.00000    0.00000    0.00000
F1    4    0.500000    0.500000    0.786060    10.25000    0.04135    0.08430 =
         0.06029    0.00000    0.00000    0.00000
N1    5    0.353638    0.426614    0.500000    10.50000    0.02683    0.04493 =
         0.05997    0.00000    0.00000    0.00166

O1    6    0.500000    0.802875    0.000000    10.25000    0.12088    0.14329 =
         0.13940    0.00000    0.00000    0.00000
AFIX   3
H1    2    0.580110    0.819055    0.000000    10.50000   -1.20000
AFIX   1

O2    6    0.675570    0.703470    0.000000    10.25000    0.13262    0.10007 =
         0.13415    0.00000    0.00000    0.00120
AFIX   3
H2A   2    0.597040    0.723820    0.000000    10.25000   -1.20000
H2B   2    0.663340    0.660620    0.000000    10.25000   -1.20000
AFIX   0

S1    7    0.000000    0.273666    0.500000    10.25000    0.02442    0.04020 =
         0.13911    0.00000    0.00000    0.00000
SI1   8    0.500000    0.500000    1.000000    10.12500    0.02610    0.04909 =
         0.05552    0.00000    0.00000    0.00000
PART -1
C4    1    0.256400    0.428735    0.624620    10.50000    0.03147    0.05362 =
         0.06668   -0.00092    0.00536   -0.00375
AFIX  43
H4    2    0.265218    0.462383    0.712898    10.50000   -1.20000
AFIX   0
C5    1    0.148178    0.384765    0.626982    10.50000    0.03114    0.06896 =
         0.07255   -0.00381    0.00479   -0.01149
AFIX  43
H5    2    0.081867    0.388307    0.713884    10.50000   -1.20000
AFIX   0
PART 0
PART 3
F4    4    0.667253    0.500000    1.000000    10.12500    0.02002    0.13271 =
         0.06113    0.00000    0.00000    0.00000
PART 0
PART 1
F2    4    0.500000    0.586456    1.000000    10.12500    0.12067    0.04356 =
         0.07068    0.00000    0.00000    0.00000
PART 0
PART 2
F3    4    0.618244    0.559309    1.000000    10.25000    0.14445    0.15013 =
         0.09951    0.00000    0.00000   -0.08831
HKLF 4




REM  1_a.res in Cmmm
REM wR2 = 0.2026, GooF = S = 1.078, Restrained GooF = 1.159 for all data
REM R1 = 0.0669 for 668 Fo > 4sig(Fo) and 0.0751 for all 800 data
REM 87 parameters refined using 48 restraints

END

WGHT      0.1453      0.5756

REM Highest difference peak  0.616,  deepest hole -0.596,  1-sigma level  0.098
Q1    1   0.5798  0.9506  0.0856  11.00000  0.05    0.62
Q2    1   0.5000  0.5532  0.5000  10.25000  0.05    0.54
Q3    1   0.5000  0.5472  1.0000  10.25000  0.05    0.52
Q4    1   0.6600  0.5251  1.0000  10.50000  0.05    0.51
Q5    1   0.5000  0.5000  0.8691  10.25000  0.05    0.47
Q6    1   0.5491  0.5857  1.0000  10.50000  0.05    0.46
Q7    1   0.5830  0.9137  0.0000  10.50000  0.05    0.39
Q8    1   0.5000  0.7385  0.0000  10.25000  0.05    0.36
Q9    1   0.5000  0.5000  0.3709  10.25000  0.05    0.35
Q10   1   0.3558  0.4858  0.5000  10.50000  0.05    0.32
Q11   1   0.0000  0.2351  0.5000  10.25000  0.05    0.31
Q12   1   0.5000  0.5643  0.3794  10.50000  0.05    0.30
Q13   1   0.7035  0.7022  0.0804  11.00000  0.05    0.28
Q14   1   0.0000  0.3322  0.4511  10.50000  0.05    0.26
Q15   1   0.5000  0.4324  0.7781  10.50000  0.05    0.24
Q16   1   0.5976  0.6388  0.0000  10.50000  0.05    0.21
Q17   1   0.0818  0.3134  0.5000  10.50000  0.05    0.20
Q18   1   0.3425  0.3812  0.5000  10.50000  0.05    0.19
Q19   1   0.5386  0.8588  0.0610  11.00000  0.05    0.18
Q20   1   0.1339  0.2722  0.4376  11.00000  0.05    0.18
;
_shelx_res_checksum              82465
_shelx_hkl_file
;
  -1  -1   0 1736.03  130.69
   1   1   0 1824.52  130.59
   1   1   0 1632.44  130.69
  -1  -1   0 1719.83  130.59
  -2  -2   0  178.08   14.10
   2   2   0  179.28   14.10
  -2  -2   0  187.68   14.40
   3   3   0  591.74   42.90
  -3  -3   0  606.14   43.40
  -3  -3   0  568.64   42.80
  -3  -3   0  477.55   42.40
  -4  -4   0 1523.65  134.39
  -4  -4   0 1905.21  135.39
  -4  -4   0 1707.13  133.99
   4   4   0 1962.70  134.79
   5   5   0   76.79    7.20
  -5  -5   0   59.89    6.10
  -6  -6   0  120.69    9.60
  -7  -7   0  212.88   16.80
   8   8   0   41.80    4.90
  -8  -8   0   52.59    5.70
   9   9   0    9.90    3.00
  -9  -9   0    9.30    3.40
  10  10   0   42.80    4.70
   0   0  -1 1097.79   82.99
  -1  -1   1    9.90    1.40
  -1  -1   1   15.60    3.00
   1   1   1    9.70    1.30
  -1  -1  -1    9.90    1.30
   2   2   1  184.48   14.90
  -2  -2   1  207.68   15.60
  -2  -2   1  185.08   15.10
  -2  -2  -1  194.78   15.00
  -3  -3   1   16.60    2.50
   3   3   1   13.50    2.30
  -3  -3   1   13.90    1.50
  -3  -3   1   14.00    2.90
   3   3  -1   18.40    3.10
  -3  -3  -1   17.30    2.40
  -3  -3  -1   11.50    1.60
  -4  -4   1  717.63   57.99
  -4  -4   1  827.92   59.59
   4   4   1  835.22   58.79
  -4  -4  -1  721.43   58.59
  -4  -4  -1  734.93   58.09
   5   5   1   14.30    3.00
  -5  -5   1   15.20    4.30
  -5  -5   1   16.20    2.00
  -5  -5  -1   16.40    2.00
  -6  -6   1   84.39    6.90
  -6  -6   1   87.69   10.80
   6   6   1   70.99    6.40
  -6  -6  -1   79.99    6.90
   7   7   1   18.50    2.50
  -7  -7   1   14.90    2.80
   8   8   1    3.50    1.90
  -8  -8   1    0.90    2.30
  -8  -8  -1    4.20    2.90
   9   9  -1   -0.20    4.10
 -10 -10   1    0.10    2.90
  10  10   1    3.10    2.20
  10  10  -1    4.20    2.50
   0   0   2 9999.00  667.63
   0   0  -2 7646.04  665.93
  -1  -1   2  322.67   24.20
   1   1   2  318.67   24.30
  -1  -1  -2  310.77   24.30
   1   1  -2  314.77   24.30
  -2  -2   2   11.20    1.30
   2   2   2   12.80    2.20
  -2  -2   2   13.50    1.50
  -2  -2   2   11.00    2.30
  -2  -2   2   15.60    3.00
   2   2   2   13.00    1.20
  -2  -2   2   13.50    3.60
  -2  -2  -2   11.00    2.10
  -3  -3   2   72.39    6.40
  -3  -3   2   96.39    7.20
   3   3   2   80.79    6.30
   3   3   2   83.89    7.10
  -3  -3   2   85.79    8.80
  -3  -3   2   76.59    6.60
  -3  -3  -2   82.59    7.10
  -4  -4   2  328.97   23.50
   4   4   2  330.37   23.50
  -4  -4   2  305.07   24.70
  -4  -4   2  264.77   22.50
  -4  -4   2  282.77   22.60
   4   4   2  290.87   22.50
  -4  -4  -2  276.57   23.30
   5   5   2   11.60    3.30
  -5  -5   2   14.50    3.80
  -5  -5   2   12.50    4.70
   5   5   2   18.70    2.00
  -5  -5   2   18.80    2.30
   5   5  -2   18.10    2.00
  -6  -6   2   14.30    5.90
  -6  -6   2   24.10    2.80
   6   6   2   24.90    2.70
   7   7   2   43.60    4.10
  -7  -7   2   34.50    7.80
  -7  -7   2   41.00    5.00
   8   8   2   23.30    2.90
  -8  -8   2   36.60    4.50
  -9  -9   2   -1.50    2.90
   9   9   2    1.20    2.20
 -10 -10   2   23.10    3.40
  10  10   2   16.90    2.70
  10  10  -2   14.60    2.80
   0   0   3  271.27   24.30
   0   0   3  305.77   21.30
   0   0   3  262.87   21.30
   0   0  -3  272.77   21.60
  -1  -1   3   55.59    4.50
   1   1   3   58.19    4.50
  -1  -1   3   42.30    5.20
   1   1   3   55.69    5.10
  -1  -1   3   53.59    4.80
   1   1   3   59.09    4.50
  -1  -1  -3   62.39    5.20
   1   1  -3   58.69    5.40
  -2  -2   3    4.90    1.60
  -2  -2   3    1.10    6.70
  -2  -2   3    4.90    1.30
   2   2   3    4.10    1.60
  -2  -2   3    4.80    0.80
   2   2   3    3.70    0.90
  -2  -2  -3    4.50    1.60
  -3  -3   3   47.30    4.50
   3   3   3   51.99    4.00
  -3  -3   3   51.89    4.60
  -3  -3   3   55.89    8.60
  -3  -3   3   46.40    4.00
  -3  -3   3   37.20    5.70
   3   3   3   56.09    5.20
  -3  -3  -3   45.40    5.10
   4   4   3  287.17   20.30
  -4  -4   3  230.38   21.90
   4   4   3  250.37   19.10
  -4  -4   3  263.37   19.70
  -4  -4   3  237.58   19.30
  -4  -4  -3  229.58   20.10
   5   5   3   18.90    2.00
  -5  -5   3   14.40    6.10
  -5  -5   3   14.70    2.50
   5   5  -3   17.60    2.20
  -6  -6   3    7.10    5.90
  -6  -6   3    6.60    2.60
   6   6  -3    5.90    2.00
  -7  -7   3    3.30    6.60
   7   7   3    6.90    2.10
  -7  -7   3    4.30    2.70
   8   8   3   14.60    2.50
  -8  -8   3   17.20    3.30
   9   9   3   -0.10    2.20
  -9  -9   3    1.10    2.60
  10  10   3    2.70    2.20
 -10 -10   3    2.80    3.10
   0   0   4 1199.48   90.39
   0   0   4 1005.90   91.99
   0   0   4 1235.98   89.29
   0   0   4 1207.88   89.09
   0   0  -4 1237.88   89.89
  -1  -1   4  497.55   37.60
  -1  -1   4  465.15   37.30
   1   1   4  503.75   37.10
   1   1   4  479.45   37.00
  -1  -1   4  506.05   37.00
   1   1   4  539.95   37.70
  -1  -1   4  437.36   40.60
  -1  -1  -4  529.15   37.80
   1   1  -4  420.46   39.00
   2   2   4   72.99    6.10
  -2  -2   4   86.39    6.00
   2   2   4   79.19    7.20
  -2  -2   4   72.29    6.50
  -2  -2   4   66.69    6.60
  -2  -2   4   63.79   11.70
  -2  -2  -4   75.89    7.20
  -3  -3   4  115.99    9.90
   3   3   4  126.79    9.50
  -3  -3   4  108.89   14.20
  -3  -3   4  115.39   10.00
  -3  -3   4  132.49    9.50
  -3  -3  -4  127.59   11.30
  -4  -4   4  200.78   14.90
   4   4   4  206.98   14.90
   4   4   4  220.38   16.50
  -4  -4   4  192.58   15.30
  -4  -4   4  155.68   19.80
  -4  -4  -4  169.68   16.40
   5   5   4   94.59    7.40
  -5  -5   4   95.69    7.50
  -5  -5   4   86.89    8.10
  -5  -5   4   70.09   13.10
  -6  -6   4   49.60    6.10
   6   6   4   52.69    5.00
  -7  -7   4   12.00    7.70
   7   7   4   28.60    3.20
  -7  -7   4   24.90    3.80
   7   7  -4   24.00    3.20
  -8  -8   4   53.79    6.10
  -8  -8   4   22.50    9.40
   8   8   4   41.00    4.80
  -9  -9   4    8.80    3.30
   9   9   4    6.80    2.40
   0   0   5   51.39    6.10
   0   0   5   65.39    6.30
   0   0   5   51.89    9.60
   0   0   5   70.59    5.20
   0   0  -5   61.49    7.20
  -1  -1   5    7.90    2.50
   1   1   5   10.20    1.40
   1   1   5    6.40    5.50
   1   1   5   13.40    2.00
  -1  -1   5   11.00    1.60
  -1  -1   5   13.60    2.50
  -1  -1   5    9.50    5.60
   1   1   5   15.20    2.90
  -1  -1  -5   10.60    3.20
   1   1  -5   13.80    3.90
  -2  -2   5    9.50    2.70
   2   2   5    6.50    5.40
  -2  -2   5    9.40    6.50
  -2  -2   5   11.90    1.60
   2   2   5   13.60    2.00
   2   2   5   14.90    3.60
  -2  -2   5    9.70    2.60
  -2  -2  -5    3.80    5.60
  -3  -3   5    3.00    1.40
  -3  -3   5    2.80    6.60
  -3  -3   5    1.20    2.40
   3   3   5    1.70    1.60
  -4  -4   5   15.10    5.30
  -4  -4   5   18.10    2.40
  -4  -4   5   15.80    7.60
   4   4   5   24.60    3.40
   5   5   5    0.50    2.10
  -5  -5   5   -4.90    7.20
  -5  -5   5    0.50    3.00
  -5  -5   5    2.20    1.90
   6   6   5   11.60    2.50
  -6  -6   5    7.40    3.50
  -6  -6   5   10.50    6.80
   6   6  -5    7.50    2.80
  -7  -7   5    1.60    9.00
   7   7   5    4.30    2.60
  -7  -7   5    1.50    3.50
   7   7  -5    6.00    2.70
  -8  -8   5    3.50    3.60
   8   8   5    2.90    2.40
   0   0   6  373.06   27.80
   0   0   6  298.17   31.70
   0   0   6  394.26   27.50
   1   1   6   80.69   13.20
  -1  -1   6   92.09    7.90
   1   1   6   89.99    7.00
   1   1   6   86.09    7.80
  -1  -1   6   74.49   14.30
   2   2   6   11.70    3.20
  -2  -2   6    9.80    7.00
  -2  -2   6   11.50    3.20
   2   2   6    4.90    5.90
   2   2   6    9.40    1.50
  -2  -2   6   12.80    3.00
   3   3   6   20.80    7.50
  -3  -3   6   14.70    2.20
  -3  -3   6    2.30    8.10
  -3  -3   6    9.70    3.50
   3   3   6   14.00    2.50
  -4  -4   6   58.49    6.70
  -4  -4   6   56.29    5.20
  -4  -4   6   30.20   10.00
   4   4   6   47.90    5.10
  -5  -5   6    8.80    9.10
  -5  -5   6   19.10    4.10
   5   5   6   18.00    3.00
  -6  -6   6    9.30    4.20
   6   6   6    5.30    2.80
  -6  -6   6    1.40    9.50
   6   6  -6    3.80    3.00
   7   7   6    4.30    2.60
  -7  -7   6    4.40    3.70
   7   7  -6    1.40    2.70
  -8  -8   6    4.00    3.50
   8   8   6    5.50    2.50
   0   0   7   48.10    9.60
   0   0   7   60.49    6.10
   0   0   7   65.89    5.50
  -1  -1   7    1.70    5.30
   1   1   7    4.40    7.10
  -1  -1   7    3.60    2.60
  -1  -1   7    5.40    2.00
   1   1   7    4.00    1.70
   1   1   7    2.10    2.80
   2   2   7    6.00    7.10
   2   2   7    6.90    3.00
  -2  -2   7    5.10    2.10
  -2  -2   7    3.60    2.70
   3   3   7    6.70    2.70
  -3  -3   7    4.50    3.50
  -3  -3   7    4.30    2.30
   3   3   7   -0.20    2.80
  -3  -3   7   18.30   10.00
   3   3   7   -0.80    6.80
  -4  -4   7   28.30    4.20
   4   4   7   27.70    3.40
  -4  -4   7   14.90    8.60
   4   4   7   16.70    7.20
   5   5   7   -0.80    2.80
   5   5   7    7.20   10.80
  -5  -5   7    2.70    3.70
   5   5  -7    0.80    3.10
  -6  -6   7   -1.10    3.80
   6   6   7    1.20    2.60
   6   6  -7    1.50    3.00
   7   7   7    0.80    2.40
  -7  -7   7    1.30    3.60
   7   7  -7    2.20    2.60
   0   0   8  165.38   12.20
   0   0   8  151.28   11.90
   0   0   8  121.99   16.60
  -1  -1   8   23.10    3.30
   1   1   8   26.30    3.20
   1   1   8   11.70    6.10
  -1  -1   8   26.20    3.00
   2   2   8    2.60    4.30
  -2  -2   8    6.60    4.20
  -2  -2   8    2.50    7.20
   2   2   8   -3.40    4.70
  -3  -3   8   16.60    6.80
  -3  -3   8    3.30    2.80
   3   3   8    6.20    5.80
   3   3   8    3.00    2.60
  -4  -4   8   17.10    3.30
   4   4   8   12.90    3.10
   5   5   8    4.00    2.50
  -5  -5   8    4.90    3.40
   5   5  -8    1.40    2.80
   0   0   9    6.80    2.20
  -1  -1   9    1.60    2.30
   1   1   9   -0.30    2.10
   2   2   9   -0.30    2.00
  -2  -2   9    1.00    2.10
  -3  -3   9   -0.10    2.10
  10   8   0   76.89    7.30
 -10  -8   0   93.59    8.60
   9   7   0  108.49    9.90
  -9  -7   0  137.89   10.80
   8   6   0   35.70    4.30
  -8  -6   0   48.10    5.20
  -7  -5   0   37.80    4.30
  -6  -4   0  399.76   30.50
  -5  -3   0  780.32   65.69
   5   3   0  957.70   66.79
  -4  -2   0   16.40    1.60
  -4  -2   0   12.60    2.00
   4   2   0   13.10    2.30
  -3  -1   0  120.09    9.70
   3   1   0  105.89    8.90
  -3  -1   0  114.79    8.90
  -2   0   0  568.04   41.70
   2   0   0  525.15   41.30
  -2   0   0  542.45   41.30
   1  -1   0 1821.02  127.09
   1  -1   0 1569.34  127.19
  -1   1   0 1621.14  127.19
  -1   1   0 1718.03  127.09
   0   2   0  800.22   59.09
   0  -2   0  757.42   59.09
   1   3   0 3612.64  243.68
  -1  -3   0 3260.17  243.68
  -1  -3   0 2792.32  243.58
  -2  -4   0 2460.55  186.88
  -2  -4   0 2294.27  186.88
   2   4   0 2648.54  186.98
   3   5   0   95.99    7.60
  -3  -5   0   94.09    7.80
  -3  -5   0   75.09    6.40
   3   5   0   70.19    6.40
  -3  -5   0   81.79    8.10
   4   6   0  279.27   20.10
  -4  -6   0  247.18   18.90
   4   6   0  241.38   18.90
  -4  -6   0  223.88   19.70
   5   7   0  513.65   41.10
  -5  -7   0  570.64   41.20
  -6  -8   0  642.04   48.80
  -7  -9   0    6.00    2.20
   8  10   0   35.70    4.50
  -8 -10   0   38.10    4.40
   9  11   0  109.79    9.20
  10  12   0    6.00    2.30
 -10  -8   1   29.20    4.00
  10   8   1   19.10    2.90
  10   8  -1   23.50    3.10
  -9  -7   1   56.69    6.30
   9   7   1   47.30    5.00
  -8  -6   1    1.60    2.00
   8   6   1    2.80    1.60
  -8  -6  -1    3.60    2.50
   7   5   1   25.60    3.00
  -7  -5   1   18.80    2.60
  -7  -5  -1   23.40    2.90
   6   4   1    8.10    1.50
  -6  -4   1    6.00    4.10
  -6  -4   1    7.20    1.90
  -6  -4  -1    6.20    1.60
  -5  -3   1   15.80    4.00
   5   3   1   15.70    2.30
  -5  -3   1   12.80    2.20
   5   3  -1   21.10    3.30
  -5  -3  -1   21.00    2.40
   4   2   1    6.50    1.60
  -4  -2   1    9.90    1.20
  -4  -2   1    6.20    2.70
  -4  -2   1    5.90    1.20
  -4  -2  -1    8.00    1.10
  -4  -2  -1    7.60    1.70
   4   2  -1    7.20    2.10
   3   1   1   36.30    3.20
  -3  -1   1   30.40    2.90
   3   1   1   31.70    2.70
  -3  -1   1   35.90    4.70
  -3  -1  -1   36.50    3.30
  -3  -1  -1   32.00    2.80
  -2   0   1  403.36   28.50
   2   0   1  366.66   28.10
  -2   0  -1  334.97   28.00
   1  -1   1   10.00    1.30
  -1   1   1   13.20    2.40
  -1   1  -1    9.10    1.30
   0  -2   1  112.99    8.40
   0  -2  -1   99.19    8.20
   0   2  -1  104.99    8.40
  -1  -3   1  296.37   24.90
  -1  -3   1  321.07   24.80
  -1  -3   1  363.46   25.20
   1   3   1  318.87   24.60
  -1  -3  -1  304.27   24.60
  -2  -4   1 1117.49   80.69
  -2  -4   1  961.00   80.69
   2   4   1 1106.69   80.39
  -2  -4  -1 1043.30   80.39
  -3  -5   1  486.55   41.20
   3   5   1  549.95   40.40
  -3  -5   1  585.24   41.60
  -3  -5   1  525.75   40.40
   3   5   1  594.54   41.10
   3   5  -1  463.05   40.40
  -3  -5  -1  509.95   40.40
  -3  -5  -1  554.94   41.10
  -4  -6   1    5.20    1.20
   4   6   1    4.80    2.20
  -4  -6   1    4.40    2.00
  -4  -6   1    2.00    2.70
   4   6  -1    4.40    1.20
  -4  -6  -1    5.60    1.10
  -4  -6  -1    4.00    1.90
  -5  -7   1  141.59   11.20
  -5  -7   1  164.08   14.10
   5   7  -1  124.39   11.10
  -5  -7  -1  145.39   11.20
   6   8   1   52.39    4.90
  -6  -8   1   61.39    5.30
   6   8  -1   44.20    5.00
  -6  -8  -1   62.89    5.40
  -7  -9   1    7.00    2.10
   7   9   1   13.00    2.40
  -7  -9  -1    7.40    2.60
   8  10   1    3.80    2.00
  -8 -10   1    1.80    2.50
   9  11   1   38.70    4.30
  -9 -11   1   31.90    4.30
   9  11  -1   38.30    4.60
  10  12   1    3.90    2.40
  10  12  -1    2.00    2.20
 -10  -8   2   56.39    6.40
  10   8   2   49.30    4.90
  10   8  -2   43.10    5.20
  -9  -7   2   79.39    7.70
   9   7   2   75.69    6.80
   8   6   2    7.40    1.80
  -8  -6   2    5.10    2.10
  -7  -5   2    6.40    2.50
  -7  -5   2    7.60    5.90
   7   5   2    4.10    1.50
   6   4   2  196.18   14.30
  -6  -4   2  173.78   14.60
  -5  -3   2  137.09   14.20
  -5  -3   2  130.99   11.10
   5   3   2  138.19   10.90
   5   3   2  158.18   12.10
  -5  -3  -2  141.29   12.10
  -4  -2   2   49.30    4.40
   4   2   2   55.99    5.10
  -4  -2   2   44.10    4.00
  -4  -2   2   47.10    7.10
   4   2   2   50.09    4.00
  -4  -2  -2   54.09    5.00
  -3  -1   2   27.60    2.30
  -3  -1   2   23.40    2.60
   3   1   2   25.10    2.20
  -3  -1   2   31.20    5.40
   3   1   2   28.10    3.20
  -3  -1  -2   25.80    3.00
  -2   0   2  987.20   68.99
   2   0   2  824.22   68.89
   2   0   2  884.01   69.19
  -2   0   2  920.31   68.89
  -2   0   2 1022.90   70.09
  -2   0  -2  834.32   69.19
  -1   1   2  296.57   22.80
   1  -1  -2  287.57   23.00
  -1   1  -2  312.77   23.10
   0  -2   2   20.70    4.70
   0  -2   2   19.70    2.40
   0   2   2   18.40    2.40
   0   2  -2   24.30    2.70
   0  -2  -2   20.00    2.10
   1   3   2  713.03   53.39
  -1  -3   2  681.13   52.99
   1   3  -2  684.03   53.69
  -1  -3  -2  728.23   53.39
  -2  -4   2  338.67   26.10
   2   4   2  307.27   24.90
   2   4   2  289.07   24.40
  -2  -4   2  355.36   25.10
  -2  -4  -2  320.17   25.00
   3   5   2   13.10    2.40
  -3  -5   2   14.10    3.80
  -3  -5   2   12.20    1.60
   3   5   2   13.80    1.60
  -3  -5   2   14.00    3.00
  -3  -5  -2   10.30    2.30
   4   6   2    6.90    1.10
   4   6   2   13.20    2.90
  -4  -6   2   11.00    4.00
  -4  -6   2   15.30    5.10
  -4  -6   2    5.20    2.60
   4   6  -2   12.80    1.60
  -4  -6  -2    7.00    2.40
  -5  -7   2  240.38   17.90
  -5  -7   2  246.88   20.30
  -5  -7   2  239.08   20.70
   5   7   2  209.78   17.70
   5   7  -2  228.48   17.90
  -6  -8   2   66.69    6.00
   6   8   2   70.39    5.90
  -6  -8   2   63.69   10.80
   6   8  -2   54.79    5.70
  -7  -9   2    1.60    2.30
   7   9   2    1.20    1.70
  -8 -10   2    9.00    2.80
   8  10   2    9.30    2.30
  -9 -11   2   47.10    5.80
   9  11   2   47.80    5.00
 -10  -8   3   25.60    4.00
  10   8   3   23.90    3.00
   9   7   3   66.29    6.40
  -9  -7   3   76.79    7.40
  -8  -6   3   -3.30    6.40
   8   6   3    5.00    2.00
  -8  -6   3    4.00    3.00
  -7  -5   3   16.60    8.30
  -7  -5   3   19.20    3.40
   7   5   3   20.80    2.50
  -6  -4   3   52.29   10.90
   6   4   3   58.89    4.80
  -6  -4   3   50.89    5.60
   6   4  -3   53.69    4.80
  -5  -3   3   21.40    2.60
   5   3   3   20.30    3.80
   5   3   3   24.80    2.40
  -5  -3   3   17.70    5.90
  -5  -3   3   20.40    2.40
  -5  -3  -3   15.50    3.40
  -4  -2   3   12.10    1.30
   4   2   3   14.20    2.80
  -4  -2   3   10.90    4.20
   4   2   3   11.60    1.40
  -4  -2   3   11.90    1.90
  -4  -2  -3    9.10    2.40
   3   1   3   75.09    6.20
  -3  -1   3   78.39    6.20
  -3  -1   3   75.39    6.40
   3   1   3   89.29    7.20
  -3  -1   3   71.89    9.40
  -3  -1  -3   82.29    7.20
   2   0   3  554.44   42.30
  -2   0   3  569.14   44.30
  -2   0   3  551.74   42.30
  -2   0   3  530.05   42.40
   2   0   3  601.84   42.90
  -2   0  -3  549.25   42.90
   1  -1   3   55.59    5.40
   1  -1   3   49.60    4.50
  -1   1   3   54.89    5.10
  -1   1   3   57.99    4.50
  -1   1   3   56.09    8.30
   1  -1   3   63.39    4.60
   1  -1  -3   55.99    5.10
  -1   1  -3   65.49    6.80
   0  -2   3    1.20    9.80
   0  -2   3    4.70    0.90
   0  -2   3    3.20    1.40
   0   2   3    5.00    1.30
   0   2   3    4.30    3.70
   0   2  -3    6.50    2.10
   0  -2  -3    5.10    1.40
   1   3   3  215.68   16.50
  -1  -3   3  227.98   17.10
  -1  -3   3  212.68   20.10
  -1  -3   3  207.38   16.90
  -1  -3   3  212.48   16.50
   1   3   3  224.78   17.10
   1   3   3  229.98   16.60
   1   3  -3  209.48   17.50
  -1  -3  -3  212.48   17.00
   2   4   3  262.97   20.00
  -2  -4   3  236.48   19.40
  -2  -4   3  275.57   20.00
   2   4   3  243.78   19.30
  -2  -4   3  264.37   22.30
  -2  -4   3  247.28   19.60
  -2  -4  -3  254.07   20.10
   3   5   3  340.87   24.90
  -3  -5   3  299.17   23.90
  -3  -5   3  301.07   26.60
  -3  -5   3  342.27   24.80
  -3  -5  -3  289.27   24.80
  -4  -6   3    6.10    4.60
  -4  -6   3    6.10    1.80
   4   6   3    5.20    1.20
   4   6   3    4.60    2.80
  -4  -6   3    1.90    2.80
   4   6  -3    5.90    1.60
  -4  -6  -3    0.30    2.80
   5   7   3  124.79    9.60
  -5  -7   3  107.99   13.40
  -5  -7   3  124.29    9.90
   5   7  -3  123.39    9.80
   6   8   3    8.70    1.80
  -6  -8   3   11.10    2.50
  -6  -8   3    4.40    6.10
   6   8  -3   10.90    2.50
   7   9   3    2.40    2.00
  -7  -9   3    2.30    2.70
  -7  -9   3   -5.50    6.60
   7   9  -3    1.80    2.60
  -9 -11   3   22.50    3.60
   9  11   3   26.80    3.40
  -9  -7   4   64.39    7.10
   9   7   4   68.79    6.10
  -8  -6   4   26.90    4.20
  -8  -6   4   20.20    9.30
   8   6   4   26.10    3.10
  -7  -5   4   -8.50    8.00
  -7  -5   4    3.30    2.90
   7   5   4    2.30    2.10
   6   4   4  257.97   19.30
  -6  -4   4  273.77   19.30
  -6  -4   4  239.98   19.80
   6   4  -4  229.38   19.40
   5   3   4  134.29   10.20
  -5  -3   4  127.19   10.70
  -5  -3   4  136.89   10.20
  -5  -3   4  106.69   14.90
  -4  -2   4   16.10    1.70
  -4  -2   4   10.80    5.40
  -4  -2   4   11.70    2.30
   4   2   4   17.30    1.90
   4   2   4   13.40    3.50
  -4  -2  -4   16.60    3.50
  -3  -1   4   43.00    3.70
   3   1   4   42.40    3.70
  -3  -1   4   40.50    7.60
   2   0   4 1172.98   86.79
  -2   0   4 1112.09   86.69
  -2   0   4 1073.09   88.99
  -2   0   4 1149.29   86.79
   2   0  -4 1124.59   87.29
  -2   0  -4 1230.38   87.39
  -1   1   4  532.95   38.40
  -1   1   4  475.55   40.80
  -1   1   4  477.65   38.20
   1  -1   4  495.25   38.00
   1  -1   4  556.74   38.80
  -1   1   4  527.05   38.00
   1  -1   4  456.95   37.90
   1  -1  -4  489.75   38.60
  -1   1  -4  494.15   39.50
   0   2   4  187.18   14.20
   0  -2   4  152.28   18.40
   0  -2   4  188.78   13.70
   0  -2   4  187.48   14.30
   0   2   4  195.28   13.90
   0  -2   4  159.08   14.20
   0   2   4  184.28   13.60
   0   2   4  167.38   14.00
   0   2   4  167.98   17.20
   0  -2  -4  177.48   14.30
   0   2  -4  169.98   14.80
  -1  -3   4  630.54   44.80
   1   3   4  592.74   44.30
  -1  -3   4  551.14   48.20
   1   3   4  641.54   44.90
   1   3   4  576.64   44.20
   1   3   4  529.05   46.60
  -1  -3  -4  633.04   45.00
   1   3  -4  503.95   45.30
   2   4   4   94.89    7.80
  -2  -4   4   85.79    8.30
  -2  -4   4   90.49   13.30
  -2  -4   4   92.09    8.80
   2   4   4  108.89    8.90
  -2  -4   4  104.09    7.80
  -2  -4  -4  107.09    9.10
   3   5   4   37.30    3.40
  -3  -5   4   36.10    4.30
  -3  -5   4   32.70    4.50
  -3  -5   4   25.40    7.50
  -3  -5   4   45.10    3.70
   3   5   4   55.79    9.30
  -3  -5  -4   24.30    5.30
   4   6   4   41.10    3.80
   4   6   4   44.30    9.50
  -4  -6   4   30.70    7.60
  -4  -6   4   40.20    4.60
  -5  -7   4  218.18   16.60
  -5  -7   4  174.58   20.50
   5   7   4  217.18   16.20
   5   7  -4  215.98   16.40
   6   8   4    0.10    2.10
  -6  -8   4    2.90    2.60
  -6  -8   4    2.00    6.30
   6   8  -4    2.40    2.50
  -7  -9   4   13.90    7.10
   7   9   4   20.90    2.90
  -7  -9   4   20.30    3.30
   7   9  -4   19.30    3.20
  -8 -10   4   13.90    3.30
   8  10   4   12.70    2.70
   9  11   4   35.10    4.10
  -9 -11   4   29.60    5.50
  -9  -7   5    8.40    3.80
   9   7   5   12.00    2.60
   8   6   5    2.50    2.30
  -8  -6   5    0.20    3.40
  -8  -6   5   -0.80    7.50
  -7  -5   5   16.30    3.90
  -7  -5   5    4.80    8.80
   7   5   5   17.90    2.80
   7   5  -5   13.70    2.90
   6   4   5    3.70    2.20
  -6  -4   5    4.90    3.40
  -6  -4   5    4.50    2.10
  -6  -4   5    3.00    8.20
   5   3   5   -0.40    1.70
  -5  -3   5    3.80    2.80
  -5  -3   5    0.30    1.70
  -5  -3   5    1.80    6.60
  -4  -2   5    0.70    6.40
  -4  -2   5    5.20    2.60
   4   2   5    6.90    1.70
  -4  -2   5    4.50    1.50
  -3  -1   5    3.50    2.30
  -3  -1   5    2.30    1.30
   3   1   5    3.40    1.50
  -3  -1   5   -1.30    5.70
   2   0   5   17.50    6.70
   2   0   5   34.00    3.50
  -2   0   5   39.30    3.30
  -2   0   5   30.30    7.40
  -2   0   5   34.80    4.30
   2   0   5   33.60    5.50
  -2   0  -5   35.20    5.80
   2   0  -5   34.00    5.80
  -1   1   5    2.90    5.60
  -1   1   5    9.30    2.40
   1  -1   5    9.30    3.30
   1  -1   5    9.10    1.50
   1  -1   5   10.10    1.80
   1  -1   5    7.40    5.60
  -1   1   5   10.50    2.30
  -1   1   5   11.50    1.40
   1  -1  -5    7.40    3.00
  -1   1  -5    8.00    5.60
   0   2   5   28.40    3.20
   0   2   5   32.30    4.50
   0   2   5   36.30    3.00
   0   2   5   24.80    6.70
   0  -2   5   21.60    3.40
   0   2  -5   35.90    6.20
   0  -2  -5   24.40    4.70
   1   3   5    0.30    1.70
  -1  -3   5    2.10    2.90
   1   3   5    2.00    1.10
  -1  -3   5    6.10    1.50
  -1  -3   5    0.10    5.90
   1   3   5    5.70    5.30
   1   3   5    0.80    2.60
  -1  -3   5    3.90    2.30
   1   3  -5   11.30    4.80
  -1  -3  -5    0.70    2.60
  -2  -4   5    5.10    1.50
   2   4   5    2.60    1.60
   2   4   5   -0.70    5.10
  -2  -4   5    2.50    7.80
  -2  -4   5    5.00    2.70
   3   5   5   13.40    2.20
  -3  -5   5   15.50    8.40
  -3  -5   5   17.70    2.20
  -3  -5   5   12.50    3.20
  -4  -6   5    3.20    2.70
   4   6   5    4.20    1.90
  -4  -6   5   -2.90    6.40
  -5  -7   5    9.30    8.60
  -5  -7   5    7.10    3.20
   5   7   5    5.30    2.30
   5   7  -5    5.00    2.70
  -6  -8   5   15.80    8.60
   6   8   5   19.90    3.00
  -6  -8   5   20.90    3.80
   6   8  -5   15.10    3.40
  -7  -9   5    0.10    3.10
   7   9   5   -0.20    2.60
  -7  -9   5  -13.00    7.30
   7   9  -5    0.00    2.60
   8  10   5    2.40    2.40
  -8 -10   5    1.30    3.00
  -8  -6   6    5.10    3.80
   8   6   6    3.70    2.40
  -7  -5   6    9.50   10.10
  -7  -5   6    1.80    4.00
   7   5   6    2.00    2.50
   7   5  -6   -0.40    2.70
   6   4   6   40.90    4.80
  -6  -4   6   38.20    5.20
  -6  -4   6   31.00   10.90
   6   4  -6   37.50    4.40
  -5  -3   6   14.50    9.60
  -5  -3   6   38.40    4.30
   5   3   6   31.50    3.60
  -5  -3   6   31.90    4.50
  -4  -2   6    5.20    1.90
   4   2   6    5.30    2.40
  -4  -2   6    4.20    3.00
  -4  -2   6    3.90    7.00
  -3  -1   6    8.90    6.90
   3   1   6    3.40    6.50
  -3  -1   6    9.20    2.80
  -3  -1   6   13.20    1.90
   3   1   6    9.80    2.30
  -2   0   6   57.09    9.60
   2   0   6   53.09   11.30
   2   0   6   65.49    5.20
   1  -1   6  105.09    8.00
  -1   1   6  107.29    8.50
  -1   1   6   91.09   13.80
  -1   1   6  102.99    7.90
   1  -1   6   80.59    8.60
   0   2   6   63.29   11.50
   0   2   6   58.09    5.30
   0   2   6   65.39    6.00
   0  -2   6   53.19    6.50
   0  -2   6   69.79    5.60
   1   3   6  117.29    8.80
   1   3   6   94.49   13.40
  -1  -3   6  102.49   15.90
   1   3   6  106.59    8.70
   1   3   6   94.69    8.20
   2   4   6   31.70    3.50
  -2  -4   6   48.70    5.70
   2   4   6   36.90    7.50
   2   4   6   47.70    4.50
  -2  -4   6   40.40    9.10
   3   5   6   13.70    2.60
   3   5   6    9.50    6.40
  -3  -5   6    6.80    3.30
  -3  -5   6   14.90    2.40
  -3  -5   6   14.60    8.70
   4   6   6    9.70    6.50
  -4  -6   6   13.60    3.70
  -4  -6   6    1.60   11.70
   4   6   6   14.80    2.80
  -5  -7   6   25.80   11.30
  -5  -7   6   44.20    5.00
   5   7   6   20.90    7.80
   5   7   6   35.60    4.00
   5   7  -6   43.40    5.30
   6   8   6    6.20   14.20
  -6  -8   6    7.60    8.60
   6   8   6    7.40    2.80
  -6  -8   6   11.80    3.90
   6   8  -6   11.30    3.40
  -7  -9   6    4.20    3.40
   7   9   6    2.30    2.60
   7   9  -6    3.90    2.80
   7   5   7   -0.10    2.30
  -7  -5   7   -2.20    3.70
   7   5  -7   -2.60    4.30
   6   4   7    1.40    2.50
  -6  -4   7    2.10    3.80
   6   4  -7    1.80    2.90
  -5  -3   7   -2.00    8.00
   5   3   7   -2.00    6.90
  -4  -2   7    3.90    2.20
  -4  -2   7    0.10    3.20
   4   2   7   -1.40    2.50
  -4  -2   7   -0.40    7.20
  -3  -1   7    5.20    3.20
  -3  -1   7   11.00    2.10
   3   1   7    4.50    2.40
   3   1   7    5.40    7.60
  -3  -1   7    0.10    7.60
   3   1   7    6.70    3.40
  -2   0   7    2.20    1.80
  -2   0   7   -5.00    6.30
  -2   0   7    2.00    2.70
   2   0   7   -8.20    5.30
   2   0   7   -0.20    2.50
   1  -1   7    4.20    6.50
  -1   1   7    7.10    6.70
   1  -1   7    4.30    2.70
  -1   1   7    2.40    1.80
  -1   1   7    8.10    2.70
   1  -1   7    2.50    1.90
   0  -2   7    6.60    2.20
   0   2   7    5.70    2.60
   0   2   7    5.70    6.60
   0  -2   7    4.20    7.40
   0   2   7    4.60    1.70
   0  -2   7    3.70    2.90
  -1  -3   7    9.80    9.70
  -1  -3   7   17.40    3.40
  -1  -3   7   17.50    2.50
   1   3   7    9.70    1.90
   1   3   7    5.30    5.40
   1   3   7   14.40    2.60
   2   4   7   27.70   11.10
  -2  -4   7   17.20    7.10
   2   4   7   39.70    4.50
  -2  -4   7   25.60    3.80
  -3  -5   7   17.90    3.70
  -3  -5   7   18.90    8.60
   3   5   7   20.30    3.30
   3   5   7   18.40    3.10
   3   5   7   16.10    7.30
  -4  -6   7    0.50    3.80
   4   6   7    7.80    2.80
   4   6   7    4.60    6.70
  -4  -6   7    1.90    6.50
   4   6   7    7.10    3.00
  -5  -7   7    7.20    3.80
   5   7   7    5.10    2.70
  -5  -7   7  -10.60    7.30
   5   7  -7    4.10    3.20
   6   8   7    3.60    2.40
  -6  -8   7    6.50    3.70
   6   8   7    1.80    2.60
   6   8  -7    5.20    3.10
  -6  -4   8    2.40    3.30
   6   4   8    1.40    2.80
   6   4  -8    1.30    2.80
  -5  -3   8   12.50    3.20
   5   3   8    6.20    2.80
   4   2   8    5.70    2.70
  -4  -2   8   -0.30    2.70
  -4  -2   8    4.30    2.30
  -3  -1   8    1.10    2.50
   3   1   8    3.40    3.00
   3   1   8   -1.20    7.90
  -3  -1   8   -0.30    6.10
  -3  -1   8    5.00    2.30
  -2   0   8   -3.50    4.90
   2   0   8    2.70    4.80
  -1   1   8   36.20    4.20
  -1   1   8   22.10    2.90
   1  -1   8   23.50    3.40
   1  -1   8   15.90    7.00
  -1   1   8   17.30    6.20
   0  -2   8   27.90    3.70
   0  -2   8   13.70    7.60
   0   2   8   38.80    4.40
   0   2   8   28.10    3.50
   0   2   8   20.30    6.00
   1   3   8   12.70    6.00
   1   3   8   23.00    3.30
  -1  -3   8   11.50    5.40
  -1  -3   8    9.40    6.60
  -2  -4   8   21.20    3.40
   2   4   8   20.20    3.00
  -2  -4   8   -2.80    9.20
  -3  -5   8    7.00    3.20
  -3  -5   8   15.00   10.20
   3   5   8    6.80    2.50
  -4  -6   8    5.90    3.10
   4   6   8    7.10    2.40
   4   6  -8    6.30    3.10
   5   7   8   10.50    2.30
  -5  -7   8    5.20    3.20
   5   7  -8    4.20    3.50
  -3  -1   9    4.10    2.20
   3   1   9    1.60    2.10
   2   0   9    0.60    2.50
  -2   0   9    3.80    2.10
   1  -1   9    0.90    2.10
  -1   1   9    0.60    1.90
   0  -2   9    1.20    2.30
   0   2   9    0.50    2.00
  -1  -3   9    1.40    2.20
   1   3   9   -0.80    2.00
   2   4   9    0.60    2.90
  -2  -4   9   -1.00    2.10
  11   7   0  162.88   12.90
  10   6   0   32.70    3.90
 -10  -6   0   28.10    4.40
   9   5   0    9.80    2.20
  -9  -5   0   10.20    3.00
   8   4   0  142.09   11.70
  -8  -4   0  156.08   12.20
  -7  -3   0  578.94   44.10
  -6  -2   0   88.29    7.10
  -5  -1   0  751.82   59.89
  -5  -1   0  806.12   60.29
   5   1   0  816.42   60.39
  -4   0   0  514.25   39.50
  -4   0   0  543.75   39.80
   4   0   0  507.65   39.80
  -3   1   0   99.79    8.20
   3  -1   0  109.29    8.20
   2  -2   0  177.78   13.40
  -2   2   0  171.78   13.50
   0  -4   0  140.09   11.50
  -1  -5   0   16.20    2.20
   1   5   0   18.10    3.20
  -1  -5   0   17.30    3.30
  -2  -6   0   66.49    6.40
  -2  -6   0   67.89    6.80
   2   6   0   81.19    6.80
   2   6   0   62.69    5.50
  -3  -7   0 1675.43  121.79
   3   7   0 1590.44  120.89
  -3  -7   0 1529.55  121.89
  -4  -8   0  153.48   11.70
   4   8   0  151.68   11.80
   4   8   0  144.89   13.90
  -5  -9   0   56.39    4.80
   5   9   0   49.50    4.90
  -6 -10   0  272.57   18.10
   6  10   0  194.08   18.00
  -7 -11   0  216.08   17.10
   8  12   0  136.09   11.10
  -8 -12   0  131.69   11.50
   9  13   0    4.70    2.30
  11   7   1   49.30    4.90
 -11  -7   1   60.49    6.60
  11   7  -1   45.80    4.90
  10   6   1    1.30    1.90
 -10  -6   1    3.30    3.20
  10   6  -1    2.40    2.20
  -9  -5   1    3.90    2.60
   9   5   1    0.80    1.80
  -9  -5  -1    6.80    3.20
  -8  -4   1   24.00    3.20
   8   4   1   29.70    3.20
  -8  -4  -1   32.60    3.60
  -7  -3   1   33.10    3.80
   7   3   1   36.30    3.50
  -7  -3  -1   41.50    4.30
  -6  -2   1   12.30    4.30
  -6  -2   1   13.30    2.00
  -6  -2  -1   13.10    1.80
   5   1   1    5.40    2.20
   5   1   1    6.10    1.00
  -5  -1   1    3.50    3.00
  -5  -1   1    6.30    1.20
  -5  -1  -1    4.80    1.10
  -5  -1  -1    6.60    1.80
  -4   0   1   40.20    5.20
   4   0   1   38.40    3.10
  -4   0   1   35.10    3.30
   4   0   1   40.50    3.90
  -4   0  -1   37.60    3.30
  -4   0  -1   40.00    3.80
  -3   1   1   33.70    3.00
   3  -1   1   39.30    3.50
  -3   1   1   43.90    4.50
  -3   1  -1   34.70    3.30
  -3   1  -1   33.00    3.00
  -2   2   1  201.88   15.00
   2  -2   1  192.98   14.80
  -2   2  -1  177.78   14.80
  -1   3   1  315.17   24.00
   1  -3   1  332.87   24.10
  -1   3   1  298.67   24.10
   1  -3  -1  305.57   23.90
  -1   3  -1  314.77   24.10
   0  -4   1  518.75   37.20
   0   4   1  447.16   37.10
   0  -4  -1  482.75   36.90
  -1  -5   1   73.79    6.80
   1   5   1   72.59    6.30
  -1  -5   1   72.99    6.70
  -1  -5   1   57.29    6.80
  -2  -6   1   28.90    4.30
   2   6   1   28.30    3.80
  -2  -6   1   27.90    4.80
   2   6  -1   25.30    2.60
  -2  -6  -1   28.40    3.90
  -3  -7   1  462.75   35.40
   3   7   1  518.35   36.50
   3   7   1  469.25   35.40
  -3  -7  -1  465.65   35.40
  -3  -7  -1  452.85   36.40
   3   7  -1  432.06   35.40
  -4  -8   1   11.70    3.40
  -4  -8   1   14.40    1.90
   4   8   1   19.80    3.90
   4   8   1   17.00    1.90
  -4  -8   1   16.50    4.00
  -4  -8  -1   14.20    3.50
   4   8  -1   18.50    2.10
  -4  -8  -1   17.50    2.30
  -5  -9   1   23.30    3.30
  -5  -9   1   29.30    5.50
   5   9   1   23.50    2.70
   5   9   1   27.10    3.00
  -5  -9  -1   27.10    3.40
   5   9  -1   25.10    2.90
  -6 -10   1    4.20    1.90
   6  10   1    3.80    1.90
  -6 -10  -1   -0.40    2.10
   6  10  -1    4.20    2.20
   7  11   1   87.59    7.40
  -7 -11   1   84.29    7.80
  -8 -12   1   28.10    5.70
  -9 -13   1    4.10    2.80
   9  13   1    6.30    2.40
   9  13  -1   12.40    2.80
  11   7   2   79.69    7.70
 -11  -7   2   97.39    9.10
  10   6   2    7.90    2.20
 -10  -6   2    3.40    3.20
  10   6  -2    1.50    2.30
   9   5   2    4.10    1.80
  -9  -5   2    1.20    2.40
   8   4   2   73.09    6.20
  -7  -3   2  279.87   21.40
  -7  -3   2  251.17   25.10
   7   3   2  290.37   21.10
   6   2   2    9.60    1.30
  -6  -2   2    5.10    4.30
  -6  -2   2    8.90    1.90
  -5  -1   2  121.89   10.00
   5   1   2  124.69    9.80
   5   1   2  144.09   10.80
  -5  -1   2  125.99   12.40
  -5  -1  -2  110.39   12.10
   4   0   2   13.80    1.60
  -4   0   2   18.30    1.80
  -4   0   2   16.10    1.70
   4   0   2   16.80    3.00
  -4   0   2   16.70    3.70
  -4   0  -2   15.50    2.90
   3  -1   2   28.50    3.30
  -3   1   2   25.20    2.40
  -3   1   2   26.50    4.60
   3  -1   2   26.40    2.30
  -3   1  -2   24.90    3.10
  -2   2   2   11.30    1.40
   2  -2   2   14.60    2.20
  -2   2   2   14.90    2.90
   2  -2   2   10.20    1.40
  -2   2  -2   11.40    2.20
  -1   3   2  802.52   61.69
   1  -3   2  805.42   62.09
  -1   3   2  942.81   62.49
   1  -3  -2  745.63   61.89
  -1   3  -2  787.82   62.19
   0   4   2  457.65   35.10
   0  -4   2  410.76   35.00
   0  -4   2  486.55   36.50
   0   4   2  515.85   35.40
   0  -4  -2  433.86   34.70
   0   4  -2  422.56   35.10
  -1  -5   2  104.29    8.60
   1   5   2  102.29    8.40
   1   5   2   89.99    7.50
  -1  -5   2  112.29   10.00
  -1  -5   2   92.89    7.80
  -1  -5  -2   95.89    8.30
  -2  -6   2    3.80    1.10
   2   6   2    4.50    0.80
  -2  -6   2   10.00    2.70
  -2  -6   2   -0.70    2.30
   2   6   2    6.30    2.00
  -2  -6   2    4.90    4.70
   2   6  -2    2.80    1.10
  -2  -6  -2    4.70    2.00
  -3  -7   2  594.84   46.00
   3   7   2  612.44   45.90
  -3  -7   2  655.63   47.50
   3   7   2  642.54   47.20
   3   7  -2  604.54   46.00
  -3  -7  -2  524.15   48.10
  -4  -8   2  293.17   22.20
  -4  -8   2  308.47   24.60
   4   8   2  297.57   23.70
  -4  -8   2  311.77   24.30
   4   8   2  257.57   22.00
   4   8  -2  276.97   22.20
  -5  -9   2    2.50    1.80
   5   9   2    2.90    1.30
   5   9  -2    2.00    1.90
  -6 -10   2   55.99   10.30
  -6 -10   2   56.39    5.40
   6  10   2   51.09    4.90
   6  10  -2   48.90    5.70
  -7 -11   2   91.59    7.80
   7  11   2   96.89    7.50
   7  11  -2   72.19    7.80
  -8 -12   2   28.20    3.70
   8  12   2   29.30    3.50
   9  13   2    3.20    2.20
   9  13  -2    1.80    2.30
 -10  -6   3    1.30    3.10
  10   6   3    1.20    2.10
   9   5   3    7.10    2.30
  -9  -5   3    5.70    3.10
   8   4   3   58.49    4.90
  -8  -4   3   33.10   10.80
  -8  -4   3   51.49    6.20
  -7  -3   3   72.39    7.30
   7   3   3   81.09    6.50
  -6  -2   3    1.80    1.20
  -6  -2   3    8.90    5.40
   6   2   3    3.60    1.30
  -6  -2   3    1.60    2.00
   5   1   3   14.40    1.60
  -5  -1   3   15.60    1.50
  -5  -1   3   14.20    2.10
  -5  -1   3   10.50    4.90
   5   1   3   10.60    3.00
  -5  -1  -3   10.10    3.10
  -4   0   3   14.80    4.40
  -4   0   3   16.50    2.90
  -4   0   3   18.30    2.10
   4   0   3   18.90    3.20
  -4   0  -3   18.60    3.20
   3  -1   3   77.09    6.40
   3  -1   3   84.29    9.20
  -3   1   3   84.79    8.90
  -3   1   3   82.99    6.40
  -3   1   3   77.99    6.50
  -3   1  -3   86.49    7.80
  -2   2   3    3.90    1.10
   2  -2   3    5.20    1.00
  -2   2   3    6.40    0.90
   2  -2   3    2.50    1.70
  -2   2   3    2.20    3.30
  -2   2  -3    5.60    1.80
  -1   3   3  223.68   17.90
  -1   3   3  253.27   19.60
  -1   3   3  234.78   18.30
   1  -3   3  237.88   18.50
   1  -3   3  226.48   18.00
  -1   3   3  238.58   18.00
  -1   3  -3  244.58   18.80
   1  -3  -3  229.78   18.20
   0   4   3  386.26   28.80
   0   4   3  349.87   28.20
   0  -4   3  376.46   28.90
   0  -4   3  389.56   31.60
   0  -4   3  366.46   28.60
   0  -4   3  347.27   28.30
   0   4   3  416.46   30.10
   0  -4  -3  357.46   28.70
   0   4  -3  375.06   29.30
   1   5   3    4.90    1.00
   1   5   3    4.30    1.90
  -1  -5   3    4.90    2.00
   1   5   3    3.20    0.90
  -1  -5   3    3.20    1.60
  -1  -5   3    1.80    4.10
  -1  -5  -3    4.50    1.80
   2   6   3   73.29    5.60
  -2  -6   3   66.39    6.00
   2   6   3   78.89    7.10
  -2  -6   3   65.89    9.30
  -2  -6  -3   67.39    7.00
   3   7   3  353.66   26.40
  -3  -7   3  364.16   26.50
  -3  -7   3  383.46   27.70
   3   7   3  336.67   28.90
  -3  -7   3  348.57   28.70
   3   7  -3  342.87   26.50
  -3  -7  -3  287.07   29.60
  -4  -8   3  371.86   27.80
  -4  -8   3  356.56   30.20
   4   8   3  354.56   27.70
   4   8   3  362.76   29.90
   4   8  -3  373.76   27.90
  -5  -9   3   12.80    5.80
   5   9   3   13.40    2.10
  -5  -9   3   12.70    2.50
   5   9  -3   16.90    2.70
  -6 -10   3    5.00    2.30
  -6 -10   3    1.50    5.80
   6  10   3    4.40    1.90
   6  10  -3    2.00    2.50
   7  11   3   49.10    4.80
  -7 -11   3   53.19    5.40
  -7 -11   3   33.50    8.60
   7  11  -3   39.60    4.90
  -8 -12   3    5.20    2.60
   8  12   3    4.30    2.50
   9  13   3    7.90    2.60
  -9 -13   3    6.80    2.70
  10   6   4    2.90    1.90
 -10  -6   4    3.10    2.90
   9   5   4   17.10    2.70
  -9  -5   4   10.20    3.60
   8   4   4   82.19    7.20
  -8  -4   4   85.99    8.40
   7   3   4  226.08   16.00
  -7  -3   4  172.58   21.90
  -7  -3   4  202.38   16.50
  -6  -2   4   62.89    6.40
   6   2   4   67.49    5.70
  -6  -2   4   68.99    5.50
  -6  -2   4   46.10    9.20
  -5  -1   4  128.19    9.60
  -5  -1   4  102.69   13.80
  -5  -1   4  121.59   10.00
   5   1   4  126.09    9.60
  -4   0   4   55.79    9.30
   4   0   4   66.19    5.40
  -4   0   4   68.69    5.40
  -4   0   4   61.89    5.80
   4   0   4   73.59    7.30
  -4   0  -4   63.99    7.20
  -3   1   4   37.90    7.60
  -3   1   4   42.70    3.70
  -3   1   4   38.90    4.00
   3  -1   4   49.20    5.50
   3  -1   4   42.40    3.80
  -3   1  -4   43.20    5.50
   2  -2   4   81.59    7.00
  -2   2   4   80.09    9.90
   2  -2   4   91.79    8.00
  -2   2   4   88.19    6.80
  -2   2   4   88.49    7.00
  -2   2  -4   84.49    8.40
   1  -3   4  622.74   47.20
   1  -3   4  689.23   47.80
   1  -3   4  570.04   47.00
  -1   3   4  607.74   48.90
  -1   3   4  599.34   47.10
  -1   3   4  595.74   47.40
  -1   3   4  668.03   47.00
   1  -3  -4  592.84   47.50
  -1   3  -4  641.74   48.20
   0   4   4  998.10   74.59
   0   4   4 1066.79   72.69
   0   4   4  974.50   73.09
   0   4   4  959.50   72.59
   0  -4   4 1007.70   73.29
   0   4   4  904.21   72.49
   0  -4   4  883.61   76.09
   0   4  -4  884.41   73.69
   0  -4  -4  946.71   73.09
  -1  -5   4   18.00    3.30
   1   5   4   17.80    2.10
  -1  -5   4    9.30    6.20
  -1  -5   4   13.20    2.70
  -1  -5   4   16.90    1.90
   1   5   4   10.60    4.50
   1   5   4   15.20    3.00
   1   5   4   14.20    1.60
   1   5  -4   22.30    4.40
  -1  -5  -4   23.70    4.00
  -2  -6   4   36.80    4.10
   2   6   4   37.00    3.30
   2   6   4   34.30    5.50
  -2  -6   4   29.90    7.00
  -2  -6   4   32.30    5.00
  -2  -6  -4   30.40    5.30
  -3  -7   4  393.56   30.40
   3   7   4  438.26   33.30
   3   7   4  371.96   30.20
  -3  -7   4  393.56   33.90
  -4  -8   4  417.96   37.40
   4   8   4  457.15   34.30
  -4  -8   4  465.25   34.50
   4   8  -4  459.75   34.50
  -5  -9   4    7.80    6.10
  -5  -9   4   14.00    2.80
   5   9   4   11.70    2.30
   5   9  -4   11.10    3.00
  -6 -10   4   12.90    7.00
  -6 -10   4   16.80    3.00
   6  10   4   19.40    2.80
   6  10  -4   14.80    3.30
  -7 -11   4   77.99    7.30
   7  11   4   69.49    6.30
  -7 -11   4   50.89   11.10
   7  11  -4   57.49    7.60
  -8 -12   4    9.60    2.70
   8  12   4   13.10    2.70
   9   5   5    1.60    2.20
  -9  -5   5    0.00    3.50
  -8  -4   5    0.80   14.90
   8   4   5    3.30    2.30
  -8  -4   5    3.40    3.30
   7   3   5    9.60    2.50
  -7  -3   5   -0.80    7.70
  -7  -3   5   11.30    2.20
  -7  -3   5   11.30    3.40
   7   3  -5    0.90    2.30
  -6  -2   5    8.90    2.00
  -6  -2   5    5.30    7.50
  -6  -2   5    8.40    3.20
   6   2   5   10.30    2.20
   5   1   5    2.50    1.80
  -5  -1   5   -2.00    5.90
  -5  -1   5    2.70    1.80
  -5  -1   5    6.10    2.60
   4   0   5    6.80    1.80
  -4   0   5    5.50    1.40
  -4   0   5    2.80    5.20
  -4   0   5    5.60    2.30
  -3   1   5    2.50    1.20
  -3   1   5    1.40    1.70
  -3   1   5    0.60    5.10
   3  -1   5    1.50    1.60
   3  -1   5   -2.30    5.20
   2  -2   5   11.10    1.90
   2  -2   5   10.10    6.00
  -2   2   5   10.30    1.50
  -2   2   5   12.40    2.00
   2  -2   5   10.30    3.80
  -2   2   5   11.90    4.90
  -2   2  -5   17.10    4.20
   1  -3   5    3.90    1.50
  -1   3   5    0.30    2.40
  -1   3   5    4.30    1.30
   1  -3   5    3.00    3.00
  -1   3   5    4.40    4.30
   1  -3   5    3.10    5.20
  -1   3   5    4.90    1.70
   1  -3  -5    5.00    2.50
  -1   3  -5    3.10    3.70
   0   4   5   23.20    2.50
   0   4   5   16.10    2.50
   0  -4   5   15.20    8.20
   0  -4   5   21.20    2.40
   0   4   5   21.30    2.70
   0   4   5   16.40    5.30
   0  -4   5   17.20    3.40
   0  -4   5   18.90    3.60
   0   4   5   16.80    4.80
   1   5   5   13.10    2.10
  -1  -5   5    3.30   12.50
  -1  -5   5   10.40    1.90
   1   5   5   11.10    4.90
  -1  -5   5   10.60    2.70
   1   5   5    8.40    1.40
  -2  -6   5   -3.40    6.10
   2   6   5    0.70    1.80
  -2  -6   5   -0.60    2.30
   2   6   5   -1.70    4.40
   3   7   5   46.60    4.60
  -3  -7   5   46.10   10.00
  -4  -8   5   58.79   10.60
  -4  -8   5   66.79    6.60
   4   8   5   61.49    5.90
   4   8  -5   70.49    6.50
  -5  -9   5   21.70    3.40
  -5  -9   5   13.70    6.90
   5   9   5   17.00    2.90
   5   9  -5   18.20    3.60
  -6 -10   5    0.00    3.00
   6  10   5    4.30    2.60
  -6 -10   5   -4.70    6.60
   6  10  -5    1.10    3.50
  -7 -11   5   10.10    3.10
   7  11   5    6.00    2.70
   7  11  -5    4.70    3.50
  -8  -4   6    6.80    3.80
   8   4   6   11.00    2.50
  -7  -3   6   40.00    5.10
   7   3   6   47.70    4.90
   7   3  -6   38.60    4.90
  -6  -2   6   23.00    2.80
  -6  -2   6   18.80    3.70
   6   2   6   24.40    3.00
  -6  -2   6    7.20    8.00
  -5  -1   6   27.20    3.00
  -5  -1   6   32.60    3.90
  -5  -1   6   13.70   10.80
   5   1   6   25.90    3.20
  -4   0   6    9.30    6.00
  -4   0   6   16.20    2.70
  -4   0   6   14.20    2.10
   4   0   6   15.10    2.60
  -3   1   6    9.70    6.50
   3  -1   6    6.70    6.60
  -3   1   6    9.30    1.70
   3  -1   6   10.70    2.30
  -3   1   6   11.90    2.60
  -2   2   6   13.00    2.80
  -2   2   6    2.80    5.30
   2  -2   6    4.60    5.00
  -1   3   6  126.39    9.70
  -1   3   6  110.79   14.00
  -1   3   6  124.99    9.90
   0  -4   6   62.59    8.10
   0   4   6   63.99    5.50
   0   4   6   56.39    5.10
   0   4   6   50.19    9.70
   1   5   6    8.80    5.40
   1   5   6    6.70    2.10
  -1  -5   6  -10.60    8.10
  -1  -5   6    4.90    3.20
   1   5   6    2.50    1.40
  -2  -6   6   12.90    9.00
  -2  -6   6   11.20    3.50
   2   6   6   10.50    4.20
   2   6   6    9.00    5.80
   2   6   6    8.10    2.50
  -3  -7   6   97.99    8.60
   3   7   6   86.49    7.80
  -3  -7   6   78.39   16.10
   4   8   6   59.39    5.90
  -4  -8   6   42.00   10.20
  -4  -8   6   69.29    6.70
   4   8  -6   55.89    6.40
   5   9   6    5.20    3.20
   5   9   6   -1.60    8.00
  -5  -9   6   -0.30    6.00
  -5  -9   6    5.40    4.90
   5   9  -6    8.50    5.10
   6  10   6   12.90    2.90
  -6 -10   6   10.30    3.30
   6  10  -6    8.10    3.50
   7  11   6   16.10    3.00
  -7 -11   6   16.30    4.00
   7  11  -6   19.40    4.00
  -7  -3   7    6.40    3.40
   7   3   7    6.00    2.60
   7   3  -7    5.70    2.80
   6   2   7    2.60    2.70
  -6  -2   7    4.50    2.10
  -6  -2   7   -0.20    7.20
  -6  -2   7   -0.40    3.30
  -5  -1   7    6.70    3.40
   5   1   7   -1.30    5.20
  -5  -1   7    1.40    7.90
   5   1   7    5.10    2.60
  -5  -1   7    5.50    2.40
  -4   0   7    2.00    2.00
  -4   0   7    3.30    2.90
   4   0   7   11.40    7.30
   4   0   7    5.50    2.40
  -4   0   7    4.70    6.80
  -3   1   7   10.30    2.10
  -3   1   7    0.20    6.20
  -3   1   7    8.40    2.60
   3  -1   7   -0.40    6.20
   3  -1   7    7.70    3.00
   2  -2   7    3.20    3.00
   2  -2   7    3.50    9.70
  -2   2   7    2.10    1.80
  -2   2   7    1.80    5.10
  -2   2   7    3.60    2.20
  -1   3   7   16.30    2.40
   1  -3   7    8.00    7.90
  -1   3   7    6.70    5.40
  -1   3   7   11.20    2.00
   1  -3   7   14.00    3.20
   0   4   7    0.50    2.10
   0   4   7    6.50    5.60
   0   4   7    1.90    1.60
   0  -4   7    0.90    2.40
   0  -4   7   -1.90    7.10
   1   5   7    5.80    2.30
  -1  -5   7    6.50    8.20
   1   5   7   -0.50    5.20
  -1  -5   7    2.50    3.00
   1   5   7    2.00    1.60
   2   6   7    9.40    2.50
  -2  -6   7    8.90    3.30
   2   6   7   11.10    5.80
  -2  -6   7    5.40    7.70
   3   7   7   26.00    7.00
   3   7   7   26.90    3.60
  -3  -7   7   23.90   10.20
  -3  -7   7   31.60    4.40
   3   7   7   27.30    3.40
   3   7  -7   27.50    4.00
  -4  -8   7    7.10    7.80
   4   8   7   -0.90    2.30
   4   8   7    5.30    2.80
  -4  -8   7    4.60    3.20
   4   8  -7    1.40    3.30
   5   9   7   -1.60    2.50
   5   9   7   -4.70    2.10
  -5  -9   7   -2.40    3.30
   5   9  -7    3.70    3.30
  -6 -10   7    8.00    4.40
   6  10  -7    6.50    3.40
  -6  -2   8   10.00    3.00
   6   2   8   10.20    3.10
   6   2  -8    4.40    4.00
  -5  -1   8   11.00    2.90
  -5  -1   8   12.10    2.30
   5   1   8    6.70    2.90
  -4   0   8    2.90    2.20
  -4   0   8   -2.40    8.00
  -4   0   8    4.00    2.50
   4   0   8    2.40    3.30
   4   0   8    8.30   15.20
  -3   1   8    4.70    2.10
   3  -1   8   -4.80    6.50
  -3   1   8   -2.50    6.10
  -3   1   8    0.90    2.50
   3  -1   8    6.10    3.00
   2  -2   8    3.90    2.90
  -2   2   8    1.70    5.80
  -2   2   8    7.50    4.10
   2  -2   8   12.00    6.10
   1  -3   8    8.20    4.60
  -1   3   8   30.10    3.50
  -1   3   8   20.10    6.10
   0  -4   8    5.20    4.70
   0   4   8    1.70    5.20
   0  -4   8   -2.10    4.70
   1   5   8    0.10    1.70
  -1  -5   8   -7.90    7.20
   1   5   8    5.00    2.30
   1   5   8   17.30   10.10
  -1  -5   8    0.30    2.60
   2   6   8    4.50    2.10
  -2  -6   8    2.50    2.80
   2   6   8   -0.70    8.20
  -2  -6   8   -7.30    6.60
   3   7   8   16.30    2.40
  -3  -7   8   19.30    3.30
   3   7  -8   14.70    3.50
  -4  -8   8    2.40    2.90
   4   8   8    3.00    2.20
   4   8  -8    3.20    3.20
  -3   1   9    3.40    2.00
   3  -1   9   -0.10    2.50
  -3   1   9    0.90    1.80
  -2   2   9    4.00    2.00
  -2   2   9    1.70    1.80
   2  -2   9   -0.30    2.50
   1  -3   9    0.30    2.30
  -1   3   9    1.80    1.80
  -1   3   9    0.00    1.80
   0  -4   9    3.40    2.30
   0   4   9    2.00    1.70
   0   4   9    1.90    1.90
   1   5   9    2.50    2.90
  -1  -5   9    2.10    2.40
  -2  -6   9    1.20    2.30
   2   6   9   -0.80    1.60
   2   6  -9    3.10    3.40
  11   5   0   35.30    4.00
   9   3   0  214.88   16.70
  -9  -3   0  218.18   17.40
  -8  -2   0   23.80    2.90
  -7  -1   0  446.26   34.10
  -6   0   0 1494.75  113.09
  -5   1   0  761.82   55.59
   5  -1   0  719.93   55.79
  -5   1   0  719.03   55.79
  -4   2   0   12.50    2.00
  -4   2   0   12.90    1.50
   4  -2   0   15.10    1.90
  -3   3   0  540.55   42.00
   3  -3   0  562.44   41.90
   2  -4   0 2488.15  173.08
  -2   4   0 2086.29  173.08
   1  -5   0   19.90    3.10
   1  -5   0   13.70    2.60
   0  -6   0   94.39    8.80
   0   6   0   97.69    7.60
   1   7   0  609.84   48.60
  -1  -7   0  574.64   48.90
  -1  -7   0  651.73   49.80
   1   7   0  737.43   49.70
  -2  -8   0  712.53   56.59
   2   8   0  760.02   56.39
   2   8   0  714.63   55.19
  -3  -9   0   14.80    3.80
   3   9   0   21.90    2.80
   3   9   0   24.50    4.30
  -3  -9   0   21.30    2.20
  -4 -10   0  214.58   16.60
   4  10   0  217.18   16.70
   5  11   0  305.87   24.70
  -5 -11   0  334.67   24.60
   6  12   0   12.40    2.60
  -7 -13   0    7.40    2.90
   7  13   0   15.90    2.70
   8  14   0   66.79    6.30
   9  15   0   66.19    7.20
  11   5   1   -1.00    1.80
 -11  -5   1    2.90    3.30
  11   5  -1    0.50    1.70
  10   4   1  141.59   11.60
 -10  -4   1  148.29   12.50
  10   4  -1  138.89   11.80
   9   3   1   65.29    5.60
  -9  -3   1   54.09    6.70
   9   3  -1   67.19    5.80
  -9  -3  -1   70.79    7.30
   8   2   1    7.80    1.50
  -8  -2   1    2.90    1.70
  -8  -2  -1   10.10    2.40
   7   1   1    5.20    1.20
  -7  -1   1    2.70    1.30
  -7  -1  -1    3.00    1.60
  -6   0   1  262.87   19.80
   6   0   1  253.77   19.60
  -6   0  -1  256.77   19.80
  -5   1   1    4.30    2.60
  -5   1   1    7.20    1.20
   5  -1   1    4.60    0.70
  -5   1  -1    4.30    1.80
  -5   1  -1    5.00    1.10
  -4   2   1    8.30    1.10
   4  -2   1    8.10    1.70
  -4   2   1    8.30    2.30
   4  -2   1    8.40    0.90
  -4   2  -1    6.90    1.60
  -4   2  -1    8.90    1.10
  -3   3   1   17.40    2.80
  -3   3   1   16.40    1.80
  -3   3  -1   14.20    2.40
  -3   3  -1   13.30    1.50
   2  -4   1 1068.49   78.59
  -2   4   1 1011.50   78.49
  -2   4  -1 1025.30   78.69
   1  -5   1   83.49    6.60
  -1   5   1   71.09    6.50
   1  -5  -1   71.49    6.40
  -1   5  -1   64.49    6.60
   0   6   1   24.00    2.20
   0  -6   1   25.90    4.00
   0  -6   1   19.30    3.90
   0   6   1   23.90    3.50
   0   6   1   23.30    2.50
   0  -6   1   25.00    3.90
   0   6  -1   16.30    2.20
   0  -6  -1   23.90    3.70
   1   7   1   43.50    4.60
   1   7   1   59.09    5.90
  -1  -7   1   51.89    6.50
  -1  -7   1   60.49    5.60
  -1  -7   1   60.89    6.50
   1   7   1   54.69    4.50
  -1  -7  -1   55.19    5.90
   1   7  -1   48.60    4.50
   2   8   1  415.86   29.90
  -2  -8   1  336.47   30.10
  -2  -8   1  343.17   28.50
  -2  -8   1  427.66   30.20
   2   8   1  371.56   28.60
  -2  -8   1  411.06   29.60
  -2  -8  -1  368.56   29.80
   2   8  -1  344.07   28.60
   3   9   1   46.10    4.20
  -3  -9   1   46.30    6.10
   3   9   1   42.10    6.20
  -3  -9   1   38.50    3.60
  -3  -9  -1   35.80    6.20
   3   9  -1   42.90    4.20
  -3  -9  -1   35.00    4.00
  -4 -10   1    6.50    1.80
  -4 -10   1    0.40    3.60
   4  10   1    9.20    1.90
   4  10   1    3.30    4.20
  -4 -10  -1    8.20    1.40
  -4 -10  -1    3.60    4.30
   4  10  -1    6.40    2.20
  -5 -11   1   78.09    6.40
   5  11   1   80.39    6.30
   5  11   1   63.09    6.60
   5  11  -1   71.69    6.80
   6  12   1    2.70    2.10
  -6 -12   1    5.40    2.20
   6  12  -1    1.20    2.60
   7  13   1    4.90    2.20
  -7 -13   1    0.40    2.60
   7  13  -1    2.70    2.60
   8  14   1   17.90    2.70
  -8 -14   1   15.90    3.10
   8  14  -1   14.70    2.80
 -11  -5   2   14.30    3.80
  11   5   2   13.80    2.30
  11   5  -2   11.40    2.20
 -10  -4   2   83.99    8.50
  10   4   2   86.29    7.10
  10   4  -2   79.19    7.20
  -9  -3   2   49.90    5.90
   9   3   2   53.39    4.90
   8   2   2    2.00    1.50
  -8  -2   2    1.30    1.80
   7   1   2  161.18   12.40
  -7  -1   2  160.78   12.70
  -7  -1   2  155.88   16.50
   6   0   2  796.72   62.89
  -6   0   2  835.72   62.99
  -6   0   2  862.91   65.19
  -5   1   2  146.19   10.80
   5  -1   2  128.39   10.60
  -5   1   2  135.69   10.60
  -5   1   2  144.59   13.00
   5  -1   2  146.09   11.60
  -5   1  -2  133.09   11.60
   4  -2   2   60.69    5.40
  -4   2   2   52.59    4.40
   4  -2   2   52.59    4.30
  -4   2   2   54.19    4.50
  -4   2   2   62.59    6.60
  -4   2  -2   50.69    5.30
  -3   3   2   79.09    6.70
  -3   3   2   89.39    6.60
   3  -3   2   83.69    6.60
  -3   3   2   98.19    7.90
   3  -3   2   88.59    7.30
  -3   3  -2   74.69    7.70
   2  -4   2  276.67   24.00
   2  -4   2  325.07   24.50
  -2   4   2  355.96   24.60
  -2   4   2  304.57   23.90
  -2   4  -2  317.67   24.70
  -1   5   2   88.39    8.10
   1  -5   2   93.89    8.10
  -1   5   2   99.89    8.00
  -1   5   2   98.39    7.40
  -1   5  -2   95.09    8.60
   0   6   2    4.60    1.90
   0  -6   2    6.00    2.30
   0  -6   2    6.00    3.40
   0  -6   2    5.30    1.50
   0   6   2    3.10    0.90
   0   6  -2    2.30    1.00
   0  -6  -2    3.70    1.80
   1   7   2   82.19    6.40
  -1  -7   2   67.39    8.10
   1   7   2   85.79    6.30
  -1  -7   2   89.09    8.10
   1   7   2   89.29    9.00
  -1  -7   2   87.29    8.50
   1   7  -2   72.19    6.50
  -2  -8   2   65.69    5.40
  -2  -8   2   66.39    7.60
   2   8   2   72.99    7.30
  -2  -8   2   62.59    7.80
   2   8   2   68.49    5.20
  -2  -8  -2   66.39    7.30
   2   8  -2   62.69    5.60
   3   9   2    4.50    1.10
  -3  -9   2    7.10    3.50
  -3  -9   2    4.80    1.40
   3   9   2    1.40    3.50
  -3  -9   2    9.60    5.50
   3   9  -2    6.60    1.80
  -3  -9  -2    4.00    3.40
  -4 -10   2  131.09   13.10
   4  10   2  134.39   10.20
  -4 -10   2  131.39   10.40
   4  10  -2  125.99   10.60
  -5 -11   2  177.28   14.00
  -5 -11   2  171.28   17.00
   5  11  -2  183.18   14.30
   6  12   2   43.90    4.60
  -6 -12   2   44.60    5.10
   6  12  -2   45.20    5.60
   7  13   2    3.90    2.20
  -7 -13   2    2.30    2.60
   7  13  -2    1.00    2.90
  -8 -14   2   25.70    3.50
   8  14   2   24.30    3.20
 -11  -5   3    1.00    3.60
  10   4   3   14.00    2.30
 -10  -4   3   14.00    3.30
  -9  -3   3    7.20    2.60
   9   3   3   17.20    2.30
   8   2   3    4.30    1.80
  -8  -2   3    5.90    3.00
  -8  -2   3    3.40    7.10
  -7  -1   3   19.10    6.60
  -7  -1   3   17.70    2.70
  -6   0   3  234.98   17.90
  -6   0   3  225.18   20.90
  -6   0   3  227.58   17.60
   6   0   3  233.38   17.70
  -5   1   3   12.70    4.60
  -5   1   3   14.80    1.60
   5  -1   3   15.80    1.60
  -5   1   3   15.10    1.90
   5  -1   3   12.30    4.20
  -5   1  -3   11.70    3.50
  -4   2   3   14.30    1.60
   4  -2   3   11.20    1.40
  -4   2   3   13.20    1.70
  -4   2   3    7.80    3.40
   4  -2   3   19.10    3.70
  -4   2  -3   11.70    2.90
  -3   3   3   56.59    6.50
   3  -3   3   61.59    5.70
   3  -3   3   56.29    4.50
  -3   3   3   56.29    4.60
  -3   3   3   54.09    4.60
  -3   3  -3   52.69    5.80
   2  -4   3  277.17   20.80
  -2   4   3  283.37   21.20
   2  -4   3  263.87   20.10
  -2   4   3  266.37   20.10
  -2   4   3  237.78   20.10
  -2   4  -3  256.67   21.10
   1  -5   3    1.70    1.90
  -1   5   3    3.20    0.80
  -1   5   3    3.90    2.30
  -1   5   3    2.50    1.70
  -1   5   3    4.60    1.00
  -1   5   3    6.70    1.60
   1  -5   3    3.60    4.50
  -1   5  -3   -1.00    2.40
   1  -5  -3    3.10    1.30
   0  -6   3   26.70    3.50
   0   6   3   22.30    4.60
   0  -6   3   24.00    4.00
   0   6   3   18.30    3.80
   0  -6   3   16.90    5.50
   0   6   3   24.60    2.70
   0   6   3   28.10    2.60
   0   6   3   25.00    2.30
   0   6  -3   17.80    3.80
   0  -6  -3   21.10    3.50
   1   7   3   91.69    8.40
  -1  -7   3   83.79    7.10
   1   7   3   84.59    8.60
  -1  -7   3   83.99   10.20
   1   7   3   80.59    6.70
   1   7   3   87.69    6.70
  -1  -7   3   84.69    8.50
  -1  -7  -3   90.89    8.30
  -2  -8   3  122.09   12.10
  -2  -8   3  119.99   11.30
   2   8   3  118.39   11.00
   2   8   3  121.49    9.30
  -2  -8  -3  113.69   11.20
   2   8  -3  117.49    9.40
  -3  -9   3    8.80    4.10
   3   9   3    0.50    1.20
   3   9   3    2.80    4.10
  -3  -9   3    2.70    1.50
   3   9  -3    2.40    1.90
  -3  -9  -3    0.10    3.80
   4  10   3   34.80    3.50
  -4 -10   3   33.90    3.90
  -4 -10   3   31.70    6.10
   4  10  -3   30.90    3.80
  -5 -11   3   56.49   10.30
   5  11   3   69.89    5.80
  -5 -11   3   67.09    6.10
   5  11  -3   61.39    6.50
  -6 -12   3   66.99    6.20
  -6 -12   3   53.69   11.10
   6  12   3   65.09    5.80
   6  12  -3   61.89    6.90
  -7 -13   3   -1.90    2.50
   7  13   3   -0.80    2.40
   7  13  -3    0.50    3.40
  -8 -14   3   11.40    3.60
   8  14   3   16.70    2.60
 -10  -4   4    6.80    3.00
  10   4   4   16.90    2.50
   9   3   4   20.50    2.70
  -9  -3   4   21.40    4.10
  -8  -2   4    7.20    3.10
   8   2   4    7.50    2.20
  -8  -2   4    2.00    7.40
  -7  -1   4  131.29   11.10
  -7  -1   4  140.49   10.50
  -7  -1   4  115.29   16.20
   7   1   4  134.79   10.60
   6   0   4  459.85   32.80
  -6   0   4  372.26   35.50
  -6   0   4  443.96   32.50
  -5   1   4  137.19   10.60
  -5   1   4  128.59   10.40
   5  -1   4  134.99   10.40
  -5   1   4  131.89   14.10
  -4   2   4   15.30    1.90
  -4   2   4   19.20    1.90
   4  -2   4   15.30    1.90
  -4   2   4   17.30    4.50
   4  -2   4   23.20    5.90
  -4   2  -4    3.60    5.20
   3  -3   4  133.39   10.50
  -3   3   4  133.29   12.60
  -3   3   4  131.09   10.50
  -3   3   4  139.79   10.50
   3  -3   4  148.39   11.80
  -3   3  -4  124.59   12.00
   2  -4   4  118.89    9.40
  -2   4   4   99.69   10.20
   2  -4   4  100.49    8.20
  -2   4   4  107.89    8.10
  -2   4   4  100.29    8.10
  -2   4  -4   93.99   10.00
  -1   5   4    8.40    3.50
  -1   5   4   16.80    2.00
  -1   5   4   11.10    2.70
   1  -5   4    9.40    5.30
   1  -5   4   13.70    3.00
  -1   5   4   20.40    2.10
  -1   5  -4   19.30    4.10
   1  -5  -4   12.80    2.30
   0  -6   4   81.79   12.40
   0   6   4   74.89    8.50
   0   6   4   78.49    6.10
   0   6   4   88.79    6.40
   0   6   4   75.69    6.00
   0  -6   4   70.89    6.90
   0  -6   4   70.89    7.50
   0   6   4   78.29    7.60
   0   6  -4   66.19    8.60
   0  -6  -4   66.09    6.90
   1   7   4  117.59   10.70
   1   7   4  117.09    8.90
   1   7   4  116.29   11.20
  -1  -7   4  101.09   10.80
  -1  -7   4  113.89   13.70
  -1  -7   4  120.29    9.30
   1   7   4  109.09    8.80
  -1  -7  -4  104.79   10.20
  -2  -8   4   70.49   10.80
  -2  -8   4   84.19    6.80
   2   8   4   64.29    9.20
   2   8   4   86.49    6.50
   2   8  -4   80.19    6.70
  -3  -9   4   32.10    3.70
   3   9   4   28.60    3.20
  -3  -9   4   20.80    6.20
   3   9  -4   25.60    3.30
  -4 -10   4  173.28   12.80
   4  10   4  160.88   12.60
  -4 -10   4  144.79   16.40
   4  10  -4  160.78   13.20
   5  11   4  136.39   10.40
  -5 -11   4  137.49   10.70
  -5 -11   4  110.59   14.70
   5  11  -4  123.29   11.10
  -6 -12   4  129.89   10.00
  -6 -12   4   89.29   14.40
   6  12   4  124.89    9.70
   6  12  -4  120.09   10.50
  -7 -13   4    4.00    2.70
   7  13   4    4.00    2.50
   7  13  -4    7.80    3.40
  -8 -14   4   16.20    2.80
  -9  -3   5    2.20    3.40
   9   3   5   -2.80    2.00
  -8  -2   5   10.00    7.70
  -7  -1   5    2.40    2.70
   7   1   5    1.80    1.90
  -7  -1   5    3.10    1.80
  -7  -1   5   -0.30    6.30
  -6   0   5    7.80    1.90
  -6   0   5    8.80    6.00
  -6   0   5   10.40    2.60
   6   0   5    8.30    2.00
  -5   1   5    3.40    2.20
   5  -1   5    1.80    1.80
  -5   1   5    4.90    5.10
  -5   1   5    2.20    1.50
  -4   2   5    6.20    4.40
  -4   2   5    8.80    1.80
  -4   2   5    7.00    1.60
   4  -2   5    6.10    1.90
  -3   3   5    7.20    4.20
  -3   3   5    3.70    1.50
  -3   3   5    4.50    1.50
   3  -3   5    3.40    1.60
  -2   4   5    2.70    1.30
   2  -4   5    5.10    6.00
  -2   4   5    3.70    1.40
  -2   4   5    1.30    3.60
   2  -4   5   10.20    6.00
  -1   5   5   10.40    1.60
  -1   5   5   16.20    6.70
  -1   5   5   12.00    4.30
   1  -5   5    6.80    2.50
  -1   5   5   13.50    1.70
   0  -6   5    4.00    2.60
   0   6   5    4.70    1.40
   0   6   5   -0.10    3.70
   0  -6   5   11.20    6.60
   0   6   5    5.80    1.60
   0   6   5    6.00    2.10
   1   7   5    3.30    1.30
   1   7   5    0.10    1.70
  -1  -7   5    0.60    2.40
   1   7   5   -1.40    1.80
  -1  -7   5   -1.10    6.10
   1   7   5    3.00    4.10
   2   8   5    4.70    2.10
   2   8   5    6.20    4.40
  -2  -8   5    9.10    2.70
  -2  -8   5    4.20    6.30
   2   8  -5    4.10    3.70
  -3  -9   5    5.00    2.40
   3   9   5    2.70    4.90
   3   9   5    3.50    2.00
  -3  -9   5   -3.20    5.40
   3   9  -5    0.90    2.50
   4  10   5   -4.40    6.00
   4  10   5    3.80    2.20
  -4 -10   5    3.00    2.60
  -4 -10   5    5.60    5.90
   4  10  -5   -0.50    3.10
   5  11   5    7.40    2.50
  -5 -11   5    3.50    2.80
  -5 -11   5   -8.80    5.50
   5  11  -5    7.00    3.50
   6  12   5   19.60    3.10
  -6 -12   5   19.70    8.70
  -6 -12   5   15.10    3.20
   6  12  -5   13.40    3.50
  -7 -13   5    1.60    2.70
   7  13   5    2.10    2.40
   7  13  -5   -2.70    5.40
  -9  -3   6    9.00    3.60
   9   3   6    2.90    2.20
   8   2   6    5.00    2.40
  -8  -2   6    6.30    3.10
  -7  -1   6   33.90    5.00
  -7  -1   6   26.00    8.80
   7   1   6   33.80    4.70
   6   0   6  100.09    8.50
  -6   0   6   77.39   13.80
  -6   0   6  110.99    8.90
  -6   0   6  101.99    8.30
   5  -1   6   28.60    3.50
  -5   1   6   34.40    4.40
  -5   1   6   22.70    7.10
  -5   1   6   31.80    3.80
   4  -2   6    4.40    7.40
  -4   2   6    5.80    2.20
   4  -2   6    4.70    2.20
  -4   2   6    3.50    4.90
  -4   2   6    4.80    1.70
  -3   3   6   13.00    5.40
   3  -3   6    3.70    6.00
  -3   3   6   18.30    2.30
  -3   3   6   12.70    2.00
   2  -4   6   40.70    5.60
  -2   4   6   42.90    8.30
  -2   4   6   49.90    4.50
  -2   4   6   56.19    4.50
   2  -4   6   29.80    9.50
  -1   5   6    5.50    2.40
  -1   5   6    5.80    1.90
  -1   5   6    3.50    4.40
   1  -5   6    1.70    6.20
   1  -5   6    7.30    2.70
   0  -6   6    6.60    2.60
   0  -6   6    4.20    5.80
   0   6   6   12.30    1.90
   0   6   6    1.70    4.40
   0   6   6    8.00    2.70
   1   7   6   19.40    2.80
  -1  -7   6   15.60    3.10
  -1  -7   6    6.20    6.20
   1   7   6   11.50    2.00
   1   7   6    4.70    4.70
   1   7   6   13.10    2.10
   2   8   6   27.00    3.00
   2   8   6   13.80    5.40
  -2  -8   6   21.90    8.30
   2   8   6   26.50    3.30
  -2  -8   6   27.00    3.70
   2   8  -6   26.80    3.60
   3   9   6    6.50    2.20
  -3  -9   6    9.00    3.00
  -3  -9   6   11.90    7.30
   3   9   6   -3.20    6.10
   3   9   6    3.70    2.50
   3   9  -6    8.20    3.10
  -4 -10   6   13.90    6.90
  -4 -10   6   20.90    3.50
   4  10   6   17.10    3.20
   4  10  -6   28.10    4.10
   5  11   6   26.50    3.70
  -5 -11   6   29.50    3.90
   5  11  -6   25.70    4.50
   6  12   6   12.40    2.80
  -6 -12   6   13.90    3.00
   6  12  -6   11.50    3.40
   7   1   7    1.80    2.30
  -7  -1   7    4.50    2.00
  -7  -1   7    5.80    2.90
   7   1  -7    4.40    2.70
  -6   0   7    6.10    2.10
  -6   0   7    6.50    6.60
  -6   0   7   15.50    2.90
   6   0   7    8.60    2.50
   6   0   7   11.40    6.90
   5  -1   7    5.20    2.50
  -5   1   7    7.20    2.60
   5  -1   7    6.30    8.30
  -5   1   7    3.10    2.50
  -5   1   7    1.80    6.40
  -4   2   7    4.50    2.00
   4  -2   7   -2.40    6.80
  -4   2   7    3.70    2.10
  -4   2   7   -3.90    4.60
  -3   3   7    2.70    1.80
  -3   3   7    3.50    2.10
   3  -3   7    3.20    2.80
   3  -3   7    6.40    7.40
  -3   3   7    4.50    4.90
  -2   4   7   43.90    4.20
  -2   4   7   24.30    6.30
   2  -4   7   26.80    9.50
  -2   4   7   39.40    4.00
   2  -4   7   34.30    4.50
   1  -5   7    1.00    2.70
  -1   5   7    1.20    1.80
  -1   5   7    1.40    1.70
  -1   5   7   -4.00    4.10
   1  -5   7    3.30    6.40
   0   6   7    1.70    4.40
   0  -6   7    2.90    2.70
   0  -6   7    0.20    6.10
   0   6   7   -0.70    1.60
   0   6   7    1.80    1.90
   1   7   7    1.80    1.80
   1   7   7   -0.50    7.80
  -1  -7   7    8.20    3.10
  -1  -7   7   14.70    8.60
   1   7   7    2.50    1.60
  -2  -8   7   10.70    8.10
   2   8   7    7.80    6.00
  -2  -8   7   14.40    3.40
   2   8   7   12.20    2.20
   2   8  -7   18.50    3.50
  -3  -9   7   -0.50    2.90
   3   9   7   -2.00    2.70
   3   9   7    2.50    2.90
  -3  -9   7    4.10    9.40
   3   9  -7    3.80    3.50
   4  10   7   -1.30    2.50
  -4 -10   7   -0.60    2.80
   4  10  -7    1.80    3.40
  -5 -11   7    2.30    2.90
   5  11   7    0.40    2.50
   5  11  -7   -1.10    3.30
  -6   0   8   24.60    3.00
  -6   0   8   21.10    2.60
   6   0   8   10.20    3.20
  -5   1   8   11.70    2.30
  -5   1   8   14.80    2.50
   5  -1   8    9.80    3.00
  -4   2   8    0.70    2.00
   4  -2   8   -1.00    2.60
  -4   2   8    3.90    2.10
  -3   3   8    7.60    4.80
  -3   3   8    4.60    2.10
   3  -3   8    6.10    3.20
  -3   3   8    3.80    2.10
   3  -3   8    7.20    7.20
   2  -4   8   20.30    8.30
  -2   4   8   26.60    3.40
   2  -4   8   18.00    3.20
  -2   4   8   20.00    2.60
  -1   5   8   16.70    8.20
  -1   5   8    1.30    1.90
   1  -5   8   -2.60    7.10
  -1   5   8    3.40    1.90
   1  -5   8    0.20    2.30
   0   6   8    0.80    1.80
   0   6   8    1.10    1.70
   0  -6   8    0.10    5.80
   0   6   8   -9.10    6.40
   0  -6   8    1.70    2.60
   1   7   8    2.30    1.60
  -1  -7   8    5.60    2.60
  -1  -7   8    1.90    5.20
   1   7   8    3.10    1.70
   1   7  -8    4.20    3.10
   2   8   8    5.70    2.00
  -2  -8   8   17.20    3.20
   2   8  -8    6.60    3.20
  -3  -9   8    0.90    2.70
   3   9  -8    5.50    3.40
   3  -3   9    2.30    2.30
  -3   3   9    0.50    1.90
  -3   3   9    0.70    1.70
  -2   4   9    1.90    1.80
   2  -4   9    0.00    2.10
  -2   4   9   -1.10    2.90
   1  -5   9    0.10    2.40
  -1   5   9    0.80    2.10
  -1   5   9    1.50    1.70
  -1   5  -9    2.20    3.20
   0   6   9    1.40    1.40
   0  -6   9    1.00    2.10
   0   6  -9    1.40    3.10
  -1  -7   9   -3.10    3.20
   1   7  -9    0.10    4.10
  11   3   0   16.00    2.20
 -10  -2   0    5.80    3.20
  10   2   0    1.80    1.60
   9   1   0   39.50    3.90
  -9  -1   0   40.00    5.40
   8   0   0 1018.50   78.59
  -8   0   0 1059.09   78.79
   7  -1   0  439.16   33.60
  -7   1   0  448.46   33.80
   6  -2   0   94.29    7.30
  -6   2   0   94.69    7.50
  -5   3   0  813.72   62.79
   5  -3   0  848.42   62.79
   5  -3   0  828.92   63.09
  -4   4   0 1668.33  126.39
   4  -4   0 1767.42  126.69
  -4   4   0 1583.64  126.79
  -3   5   0   79.89    6.60
   3  -5   0   87.69    7.00
   2  -6   0   75.49    6.70
   2  -6   0   72.09    7.10
  -1   7   0  661.53   53.39
   1  -7   0  781.32   56.19
   1  -7   0  683.13   54.49
   0  -8   0   10.70    3.60
   0   8   0   11.40    1.50
   1   9   0  216.88   16.70
  -1  -9   0  217.48   18.40
   2  10   0  363.56   26.30
  -2 -10   0  320.67   28.20
   3  11   0  600.04   40.80
  -3 -11   0  505.95   40.70
  -3 -11   0  494.95   44.50
  -4 -12   0  214.58   15.90
   4  12   0  195.98   16.20
  -5 -13   0   13.20    2.10
   5  13   0   13.60    2.90
   6  14   0   92.59    7.00
   6  14   0   64.29    7.40
   7  15   0  174.48   13.80
   8  16   0    2.50    2.20
 -11  -3   1    2.60    3.30
  11   3   1    0.30    1.60
  11   3  -1    3.50    1.60
  10   2   1   18.10    2.40
 -10  -2   1   11.00    3.20
  10   2  -1   14.80    2.20
   9   1   1    2.70    1.50
  -9  -1   1    2.30    2.20
  -9  -1  -1    4.50    2.60
   9   1  -1    3.60    1.70
   8   0   1  469.85   37.00
  -8   0   1  491.35   37.20
  -8   0  -1  497.85   37.30
  -7   1   1    2.30    1.20
   7  -1   1    5.10    1.00
  -7   1  -1    6.00    1.70
   6  -2   1   15.80    1.60
  -6   2   1   14.80    2.00
  -6   2  -1   14.70    1.80
   5  -3   1   15.80    3.20
   5  -3   1   20.20    1.70
  -5   3   1   20.60    2.20
  -5   3  -1   16.30    3.00
  -5   3  -1   19.30    2.20
  -4   4   1  801.12   55.19
   4  -4   1  673.23   55.19
  -4   4   1  736.73   55.19
   4  -4   1  757.32   55.69
  -4   4  -1  707.23   55.79
  -4   4  -1  703.63   55.19
  -3   5   1  547.65   40.40
  -3   5   1  526.25   40.90
   3  -5   1  548.25   40.90
  -3   5  -1  513.75   41.10
  -2   6   1   26.30    2.90
   2  -6   1   34.70    4.70
   2  -6  -1   29.00    4.10
   2  -6  -1   36.80    4.30
  -1   7   1   59.39    4.80
   1  -7   1   64.09    6.20
   1  -7   1   57.59    6.40
  -1   7   1   51.19    4.90
   1  -7  -1   63.89    6.40
   0  -8   1  185.58   14.20
   0   8   1  182.58   13.60
   0   8   1  172.28   13.60
   0  -8   1  171.78   15.20
   0   8   1  188.78   14.70
   0   8  -1  158.88   13.50
   0  -8  -1  174.28   15.00
   1   9   1   77.39    6.00
  -1  -9   1   84.49    7.10
  -1  -9   1   57.89    9.10
  -1  -9   1   85.79    8.60
   1   9   1   73.09    6.50
   1   9   1   84.29    6.30
   1   9   1   82.79    8.20
   1   9  -1   72.69    6.30
  -1  -9  -1   70.09    8.30
   2  10   1   20.20    2.00
  -2 -10   1   10.10    4.20
   2  10   1   18.10    7.40
   2  10   1   20.60    2.20
  -2 -10   1   13.20    3.10
  -2 -10   1   16.40    2.00
   2  10   1   19.80    2.30
  -2 -10   1   24.90    4.90
  -2 -10  -1    9.90    4.40
   2  10  -1   19.50    2.40
  -3 -11   1  114.89    9.60
   3  11   1  126.09    9.50
  -3 -11   1  135.19   11.50
   3  11   1  121.69    9.90
   3  11   1  108.09   12.40
  -3 -11   1  115.59   13.80
   3  11  -1  132.69   10.10
   4  12   1    0.60    1.60
   4  12   1    0.90    2.10
  -4 -12   1    6.20    1.50
   4  12  -1    2.60    2.30
   5  13   1   19.20    2.40
  -5 -13   1   14.40    2.30
   5  13   1    9.20    2.90
   5  13  -1   13.50    3.20
   6  14   1   34.70    3.50
  -6 -14   1   19.20    3.00
   6  14  -1   20.00    3.70
   7  15   1   75.59    6.90
   7  15  -1   83.09    7.10
   8  16   1    2.20    2.20
   8  16  -1    1.80    2.30
  11   3   2    9.00    2.00
 -11  -3   2   11.10    3.50
  11   3  -2   14.80    2.00
  10   2   2    4.40    1.90
 -10  -2   2    4.50    2.80
  10   2  -2    2.10    1.80
  -9  -1   2    7.50    2.60
   9   1   2    7.20    1.80
   8   0   2  262.27   20.10
   7  -1   2  161.38   13.30
  -7   1   2  172.88   16.60
  -7   1   2  184.98   13.60
  -6   2   2    8.20    1.60
   6  -2   2    7.40    1.20
  -6   2   2    7.70    4.00
  -5   3   2  177.08   13.90
   5  -3   2  148.79   12.80
  -5   3   2  160.78   11.80
   5  -3   2  150.48   11.80
  -5   3  -2  135.69   12.80
  -4   4   2  309.37   24.00
   4  -4   2  318.77   24.70
  -4   4   2  327.47   24.00
   4  -4   2  310.77   24.00
  -4   4   2  354.66   25.20
  -4   4  -2  279.47   24.80
  -3   5   2   13.40    1.40
   3  -5   2   13.80    1.50
  -3   5   2   18.20    1.90
  -3   5   2   12.60    2.40
   3  -5   2    9.00    2.20
  -3   5  -2   10.80    2.60
   2  -6   2    0.60    1.80
  -2   6   2    5.30    1.60
  -2   6   2    4.90    1.00
  -2   6  -2    8.00    3.40
   2  -6  -2    2.90    1.30
  -2   6  -2    5.00    1.20
   1  -7   2   97.49    7.90
  -1   7   2   87.09    6.50
  -1   7   2   78.89    7.60
   1  -7   2   87.29    9.30
  -1   7  -2   70.89    8.00
   1  -7  -2   80.49    7.30
  -1   7  -2   71.99    6.50
   0  -8   2   55.09    7.80
   0   8   2   72.99    5.90
   0   8   2   75.89    7.30
   0  -8   2   78.49    7.70
   0  -8   2   80.49    6.00
   0  -8   2   76.39    7.90
   0  -8  -2   71.59    7.40
   0   8  -2   66.69    5.90
  -1  -9   2   16.60    4.50
   1   9   2   27.70    2.90
  -1  -9   2   22.90    2.50
  -1  -9   2   23.80    4.40
   1   9   2   22.20    4.20
  -1  -9   2   35.00    7.30
   1   9   2   28.00    2.30
   1   9  -2   27.20    3.40
  -1  -9  -2   21.00    4.10
   2  10   2   65.39    5.70
  -2 -10   2   57.59    8.50
   2  10   2   57.39    8.30
  -2 -10   2   68.09    5.30
   2  10   2   70.09    5.20
  -2 -10   2   65.99    7.40
   2  10   2   61.89    5.50
   2  10  -2   65.19    5.80
  -2 -10  -2   66.79    8.70
  -3 -11   2  197.68   15.30
   3  11   2  206.48   15.20
   3  11   2  178.08   18.10
  -3 -11   2  207.08   17.20
   3  11  -2  194.38   15.50
  -4 -12   2    3.40    1.70
  -4 -12   2    3.60    4.50
   4  12   2    3.10    1.50
   4  12  -2    3.20    3.00
   5  13   2    0.60    1.70
  -5 -13   2    2.10    2.40
   5  13  -2    5.00    3.10
  -6 -14   2   60.09    5.80
   6  14   2   59.99    5.40
   6  14  -2   44.40    6.50
   7  15   2  104.59    7.70
   7  15  -2   72.19    8.30
   8  16  -2    1.20    2.40
  11   3   3    4.40    2.30
 -11  -3   3    6.50    3.20
  10   2   3    0.90    1.80
 -10  -2   3    1.90    2.90
   9   1   3    4.30    1.70
  -9  -1   3    3.30    2.20
   8   0   3   98.39    7.90
  -8   0   3   74.59   13.20
  -8   0   3  107.89    8.50
  -7   1   3   20.10    2.60
  -7   1   3   17.90    6.30
   7  -1   3   19.30    2.20
   6  -2   3    2.30    1.30
  -6   2   3    2.60    1.60
  -6   2   3    3.80    1.30
  -6   2   3    5.00    5.00
  -5   3   3   24.50    4.70
   5  -3   3   21.80    2.40
  -5   3   3   21.60    2.70
  -5   3   3   23.40    2.80
  -4   4   3  280.87   21.10
   4  -4   3  276.87   21.10
   4  -4   3  281.07   22.70
  -4   4   3  282.57   21.20
  -4   4   3  295.07   22.50
  -4   4  -3  246.88   22.80
  -3   5   3  339.37   25.30
  -3   5   3  305.87   24.30
   3  -5   3  321.47   24.40
   3  -5   3  350.36   25.30
  -3   5   3  338.87   24.60
  -3   5  -3  267.47   25.40
  -2   6   3   73.89    5.90
  -2   6   3   62.59    5.40
   2  -6   3   72.69    7.00
  -2   6   3   77.59    6.70
  -2   6  -3   64.19    7.60
   1  -7   3   80.79   10.70
   1  -7   3   80.99    7.90
  -1   7   3   89.69    7.40
  -1   7   3   84.59    6.60
  -1   7  -3   70.19    8.70
  -1   7  -3   76.69    6.60
   1  -7  -3   87.89    7.40
   0  -8   3   57.69    6.50
   0  -8   3   50.49    4.80
   0   8   3   54.39    4.30
   0   8   3   53.29    5.20
   0   8   3   51.69    4.50
   0  -8   3   40.00    8.20
   0   8   3   50.79    6.50
   0  -8  -3   44.70    6.00
   0   8  -3   51.49    4.50
   1   9   3    5.70    2.50
  -1  -9   3   -0.60    1.50
   1   9   3   11.00    4.60
  -1  -9   3    5.40    3.80
   1   9   3    0.50    1.10
  -1  -9   3    3.30    3.40
  -1  -9   3    2.90    3.40
  -1  -9  -3    2.40    3.70
   1   9  -3    5.60    1.80
  -2 -10   3   16.50    5.80
  -2 -10   3    9.50    4.20
   2  10   3    9.20    5.10
  -2 -10   3   11.40    1.70
   2  10   3    8.10    1.50
   2  10   3    9.10    1.60
   2  10  -3   11.70    2.30
  -2 -10  -3    9.70    6.70
  -3 -11   3   55.89    5.10
  -3 -11   3   47.50    8.30
   3  11   3   61.79    4.90
   3  11  -3   55.09    5.70
  -4 -12   3   46.80    8.90
  -4 -12   3   50.19    5.00
   4  12   3   50.99    5.00
   4  12  -3   50.09    5.70
  -5 -13   3    1.40    2.20
   5  13   3    1.90    2.00
  -5 -13   3    3.80    5.90
   5  13  -3   -1.70    3.50
  -6 -14   3   46.50    5.40
   6  14   3   45.90    5.00
   6  14  -3   50.29    6.10
  -7 -15   3   49.70    5.90
   7  15   3   57.49    5.20
   7  15  -3   43.90    6.20
 -10  -2   4    4.00    3.10
  10   2   4    5.20    1.90
  -9  -1   4   29.60    4.20
   9   1   4   21.70    3.10
  -8   0   4  102.99    8.40
   8   0   4   96.99    7.90
  -8   0   4   74.29   13.70
  -7   1   4  143.09   16.20
  -7   1   4  147.69   11.50
   7  -1   4  142.29   11.60
  -7   1   4  153.08   11.80
  -6   2   4   79.29    6.60
  -6   2   4   63.19   10.10
  -6   2   4   73.19    6.20
   6  -2   4   72.49    6.10
  -5   3   4  154.98   12.30
  -5   3   4  160.18   12.30
   5  -3   4  157.58   12.30
  -4   4   4  222.38   18.50
  -4   4   4  224.28   16.80
  -4   4   4  217.18   16.80
   4  -4   4  219.38   16.80
   4  -4   4  225.48   18.20
  -4   4  -4  200.98   18.80
  -3   5   4   39.80    5.70
  -3   5   4   39.60    3.70
   3  -5   4   41.60    3.80
   3  -5   4   35.10    5.70
  -3   5   4   48.00    4.10
  -3   5  -4   32.80    5.70
   2  -6   4   32.30    5.60
  -2   6   4   39.90    5.50
   2  -6   4   22.80    6.80
  -2   6   4   46.60    3.60
  -2   6   4   33.50    3.20
  -2   6  -4   45.10    7.00
  -1   7   4  119.99    8.70
   1  -7   4  119.99    9.20
   1  -7   4  118.49   13.70
  -1   7   4  104.49    8.50
   1  -7   4  100.69   10.60
  -1   7   4  114.09    9.90
  -1   7  -4   86.19   12.00
   1  -7  -4  107.69    9.30
   0  -8   4    7.10    2.30
   0   8   4    4.30    1.40
   0   8   4    7.70    1.80
   0   8   4    1.40    2.80
   0   8   4    4.80    1.00
   0  -8   4   13.20    3.80
   0  -8   4   14.90    6.00
   0   8   4    4.60    4.00
   0   8  -4    6.10    1.80
   0  -8  -4    5.10    3.20
   1   9   4   44.60    4.30
  -1  -9   4   43.60    7.70
  -1  -9   4   64.39    4.90
   1   9   4   48.30    4.40
   1   9   4   55.29    4.50
   1   9   4   35.90    6.60
   1   9  -4   56.29    4.80
   2  10   4   56.39    5.60
  -2 -10   4   65.09   10.00
   2  10   4   72.39    5.80
   2  10   4   60.19    8.30
  -2 -10   4   78.59    6.10
   2  10  -4   79.79    6.50
  -3 -11   4   95.29   12.60
   3  11   4  112.99    9.10
  -3 -11   4  117.79    9.40
   3  11  -4  121.99    9.70
  -4 -12   4   -3.20    4.80
  -4 -12   4    6.80    2.30
   4  12   4    3.30    2.10
   4  12  -4    4.30    3.30
   5  13   4   11.00    2.40
  -5 -13   4    9.30    2.60
  -5 -13   4    7.20    7.00
   5  13  -4    8.80    3.50
   6  14   4   66.09    6.00
  -6 -14   4   63.89    6.40
   6  14  -4   60.89    7.30
   7  15   4   61.19    5.60
  -7 -15   4   62.69    5.90
   7  15  -4   49.90    7.80
 -10  -2   5   -1.60    2.70
  10   2   5    4.10    2.40
  -9  -1   5    5.50    3.00
   9   1   5   -0.50    1.90
   8   0   5    4.70    3.50
  -8   0   5    9.00    6.90
  -8   0   5    8.40    3.00
  -7   1   5    2.10    2.20
  -7   1   5    0.60    1.80
  -7   1   5   -5.40    5.10
   7  -1   5    0.10    2.00
  -6   2   5    7.80    2.30
  -6   2   5    4.40    5.20
   6  -2   5    6.30    2.00
  -6   2   5    6.50    1.90
  -5   3   5    3.60    4.40
  -5   3   5    3.00    1.90
   5  -3   5    1.00    1.90
  -5   3   5    1.20    1.60
  -4   4   5   17.00    4.50
  -4   4   5   21.60    2.70
   4  -4   5   15.90    2.30
   3  -5   5    7.10    6.00
  -3   5   5   14.00    3.90
  -3   5   5   15.80    1.90
  -3   5   5   17.10    2.00
   2  -6   5   -2.80    5.00
  -2   6   5    3.30    3.10
  -2   6   5    1.60    1.30
  -2   6   5    2.10    1.50
   1  -7   5   -5.30    4.90
  -1   7   5    3.10    1.50
   1  -7   5    2.10    2.40
  -1   7   5    3.10    3.20
  -1   7   5    3.40    1.20
   0   8   5    1.60    2.10
   0   8   5    0.70    3.40
   0  -8   5    2.30    2.40
   0   8   5   -0.30    1.40
   0  -8   5    4.70    6.40
   0   8   5    2.90    1.20
  -1  -9   5    2.40    5.60
   1   9   5    6.80    1.40
   1   9   5    8.00    2.20
   1   9   5    6.70    1.60
   1   9   5    9.50    3.90
  -1  -9   5    7.60    2.50
   1   9  -5    8.70    2.50
  -2 -10   5    2.20    2.30
  -2 -10   5    2.80    5.70
   2  10   5    8.50    4.30
   2  10  -5    3.60    2.70
   3  11   5    1.70    2.20
  -3 -11   5   -0.60    2.30
  -3 -11   5    8.80    5.60
   3  11  -5    4.80    3.10
  -4 -12   5   19.20    6.80
   4  12   5   32.40    3.50
  -4 -12   5   36.20    4.70
   4  12  -5   32.10    4.50
  -5 -13   5   -0.90    8.20
  -5 -13   5    2.30    2.50
   5  13   5    1.70    2.40
   5  13  -5    3.00    3.40
   6  14   5    7.50    2.50
  -6 -14   5    5.80    2.50
   6  14  -5    7.40    3.80
  -9  -1   6    6.50    2.80
   9   1   6    2.00    2.00
  -8   0   6   51.29    5.10
  -8   0   6   59.49    5.70
   8   0   6   43.40    5.10
   7  -1   6   33.30    4.00
  -7   1   6   35.40    4.20
  -7   1   6   18.30    7.50
   6  -2   6   23.00    3.00
  -6   2   6   12.20    6.30
  -6   2   6   23.50    2.70
  -6   2   6   26.30    3.00
   5  -3   6   29.20    3.70
  -5   3   6   34.30    6.90
  -5   3   6   43.60    4.20
  -5   3   6   37.90    4.10
  -4   4   6   54.19    5.00
  -4   4   6   55.49    4.80
  -4   4   6   40.90    8.10
  -3   5   6   14.10    2.00
  -3   5   6    8.70    4.10
  -3   5   6   11.50    2.00
   3  -5   6   14.70    7.90
  -2   6   6   10.50    1.70
  -2   6   6    8.90    2.00
   2  -6   6    5.00    2.60
  -2   6   6   12.00    4.20
   2  -6   6    3.80    5.50
  -1   7   6   14.40    2.20
   1  -7   6   18.00    3.20
  -1   7   6   17.50    2.00
   1  -7   6    9.00    6.10
  -1   7   6   13.70    4.10
   0  -8   6    3.70    7.80
   0   8   6    9.10    3.90
   0   8   6    6.00    1.60
   0  -8   6    4.30    3.00
   0   8   6    7.10    1.80
   1   9   6    8.00    1.80
   1   9   6    8.50    2.60
   1   9   6    4.10    4.50
  -1  -9   6    5.30    6.60
  -1  -9   6   11.10    2.90
   1   9   6   12.80    1.80
   1   9  -6    9.50    2.90
   2  10   6   24.70    3.10
  -2 -10   6   22.50    3.40
  -2 -10   6    9.50    7.40
   2  10  -6   22.20    3.80
   3  11   6   22.30    3.30
  -3 -11   6   14.70    7.00
  -3 -11   6   25.60    3.40
   3  11  -6   28.50    4.20
   4  12   6    5.20    2.60
  -4 -12   6    5.40    2.80
  -4 -12   6   13.70    6.40
   4  12  -6    5.10    3.70
   5  13   6   -1.30    2.40
  -5 -13   6    4.90    2.60
   5  13  -6    5.50    3.30
  -8   0   7   17.80    3.80
   7  -1   7    1.50    2.30
  -7   1   7    4.50    2.30
  -7   1   7    3.10    1.90
   6  -2   7   -3.20    8.00
  -6   2   7   12.20    6.20
  -6   2   7    1.90    2.20
  -6   2   7    2.40    1.90
  -5   3   7    5.00    2.70
  -5   3   7   -6.70    4.70
   5  -3   7    6.90    7.30
  -4   4   7   17.60    5.70
   4  -4   7   23.10    9.10
  -4   4   7   22.80    2.70
  -4   4   7   26.30    3.40
  -3   5   7   17.40    2.40
   3  -5   7    7.90    5.60
  -3   5   7   22.20    2.40
  -3   5   7   20.10    4.90
   3  -5   7   12.70    3.10
   2  -6   7    6.70    7.00
  -2   6   7    6.70    2.00
   2  -6   7    7.30    3.20
  -2   6   7    6.30    6.20
  -2   6   7    8.10    1.80
   1  -7   7   -3.00    6.00
   1  -7   7    4.00    2.70
  -1   7   7    3.50    1.90
  -1   7   7    7.80    1.80
  -1   7   7   10.40    8.80
   0   8   7    0.80    1.70
   0   8   7    9.50    7.70
   0   8   7   -0.10    1.50
   0  -8   7    0.40    2.80
   0  -8   7    2.30    7.00
   0   8  -7    3.10    3.10
  -1  -9   7   -0.10    6.00
   1   9   7   -0.10    1.50
  -1  -9   7    0.10    2.70
   1   9  -7    3.30    3.10
  -2 -10   7    0.80    2.90
  -2 -10   7    3.60    9.90
   2  10  -7    0.70    3.40
  -3 -11   7    2.90    2.80
   3  11  -7    2.80    3.50
  -4 -12   7    2.10    2.50
   4  12   7   -1.50    2.20
   4  12  -7    1.00    3.40
  -6   2   8    8.60    2.00
   6  -2   8    4.50    2.60
  -6   2   8   10.60    2.80
   5  -3   8   11.10    3.20
  -5   3   8    8.40    2.00
  -5   3   8    7.90    2.10
  -4   4   8   20.90    2.40
  -4   4   8   16.80    2.50
   4  -4   8   12.00    3.10
  -3   5   8    6.30    2.10
  -3   5   8    8.80    1.80
   3  -5   8    6.40    2.80
   3  -5   8   -2.60    5.00
  -3   5  -8   12.90    3.50
   2  -6   8    5.80    2.70
  -2   6   8    5.10    1.70
  -2   6   8    3.90    1.90
   2  -6   8    2.00    6.00
  -2   6  -8    4.90    3.60
  -1   7   8    6.90    1.90
   1  -7   8    5.60    2.80
  -1   7   8    2.50    1.50
  -1   7  -8    1.80    3.30
   0  -8   8    1.40    2.30
   0   8   8    1.80    1.60
   0   8  -8    3.80    3.30
  -1  -9   8    3.50    2.50
   1   9  -8    5.70    3.40
  -2 -10   8    7.10    2.50
   2  10  -8    7.20    3.50
   2  -6   9    0.20    2.70
  -2   6   9    0.20    2.10
  -2   6  -9   -0.70    3.30
  -1   7   9   -2.00    1.60
   1  -7   9   -0.40    3.10
  -1   7  -9   -2.70    4.20
  11   1   0   45.20    4.30
 -10   0   0    7.10    3.10
  10   0   0    6.20    1.70
   9  -1   0   44.20    4.10
  -9   1   0   46.40    5.50
  -8   2   0   25.90    2.90
   8  -2   0   25.60    2.70
   7  -3   0  669.73   50.09
  -7   3   0  653.73   50.19
   6  -4   0  444.46   33.60
  -6   4   0  444.46   33.80
  -5   5   0   79.89    6.30
  -4   6   0  224.08   18.70
   4  -6   0  244.18   19.50
  -4   6   0  270.07   18.80
  -3   7   0 1528.35  119.29
   3  -7   0 1628.64  119.89
   2  -8   0  800.72   61.69
  -2   8   0  804.92   60.79
   2  -8   0  802.02   61.99
  -1   9   0  229.58   18.20
   1  -9   0  226.18   19.90
   1  -9   0  257.87   19.70
   0 -10   0  427.16   36.00
   0 -10   0  493.65   36.10
   0  10   0  437.36   34.40
  -1 -11   0  699.93   50.79
   1  11   0  652.93   48.90
  -1 -11   0  578.64   50.59
   2  12   0   89.89    6.90
  -2 -12   0   62.49   10.70
   3  13   0   36.60    4.50
   4  14   0  150.88   12.40
   5  15   0  162.08   11.60
   5  15   0  127.49   12.10
   6  16   0   23.80    4.70
   7  17   0    9.90    2.30
  11   1   1    5.00    1.70
 -11  -1   1    6.00    3.30
  11   1  -1   -0.40    1.40
  10   0   1   10.70    1.80
 -10   0   1   12.60    3.20
  10   0  -1   11.20    1.80
  -9   1   1    1.70    2.20
   9  -1   1    2.70    1.40
   9  -1  -1    2.70    1.40
  -8   2   1    9.50    1.90
   8  -2   1    6.70    1.30
  -8   2  -1    7.60    2.20
   8  -2  -1    7.50    1.40
   7  -3   1   42.50    3.60
  -7   3   1   44.10    4.10
   7  -3  -1   41.10    3.60
  -7   3  -1   43.20    4.40
   6  -4   1    4.70    0.80
  -6   4   1    4.40    1.20
  -6   4  -1    5.80    1.40
  -5   5   1   17.10    1.90
   5  -5   1   15.30    1.80
  -5   5   1   19.10    2.20
  -4   6   1    2.30    0.70
  -4   6   1    1.70    1.10
  -4   6  -1    1.30    1.30
  -4   6  -1    3.20    3.70
  -3   7   1  459.75   33.80
   3  -7   1  493.35   34.60
  -3   7  -1  390.86   34.70
   3  -7  -1  435.56   34.30
   2  -8   1  452.35   31.70
  -2   8   1  356.16   30.60
  -2   8   1  437.16   30.60
   2  -8  -1  389.16   31.60
  -2   8  -1  381.06   30.60
  -1   9   1   74.69    6.50
   1  -9   1   94.89    8.30
  -1   9   1   80.99    6.40
   1  -9   1   77.09    7.20
   1  -9   1   65.79    8.70
   1  -9  -1   79.49    8.50
  -1   9  -1   75.89    6.40
   0  10   1   37.50    3.90
   0  10   1   33.50    4.10
   0 -10   1   24.00    5.30
   0 -10   1   44.70    6.40
   0 -10  -1   30.20    7.50
   0  10  -1   38.80    3.90
  -1 -11   1   59.59    6.20
  -1 -11   1   52.89    8.80
   1  11   1   71.79    5.20
   1  11   1   65.39    6.00
   1  11   1   71.19    5.80
  -1 -11   1   70.39    8.80
  -1 -11  -1   66.19    9.00
   1  11  -1   66.39    5.90
  -2 -12   1   30.20    6.40
   2  12   1   23.30    5.80
  -2 -12   1   34.10    6.30
   2  12   1   36.70    3.00
   2  12   1   37.70    3.90
  -2 -12   1   24.50    4.50
   2  12   1   31.50    3.90
  -2 -12  -1   17.60    5.70
   2  12  -1   28.40    3.80
   3  13   1   73.69    6.90
   3  13   1   75.99    6.80
   3  13   1   81.29    6.20
   3  13  -1   72.49    7.00
   4  14   1   33.60    3.50
   4  14   1   32.70    4.00
   4  14  -1   29.50    4.10
   5  15   1   36.90    4.00
   5  15  -1   32.90    4.50
   6  16   1   -1.30    3.90
   6  16  -1    2.30    5.50
   7  17   1    5.20    2.20
   7  17  -1    5.60    2.40
  11   1   2   12.50    2.00
 -11  -1   2   17.40    3.50
  11   1  -2   11.90    1.70
 -10   0   2   34.80    4.70
  -9   1   2    5.10    2.20
   9  -1   2    5.20    1.70
   9  -1  -2    7.50    1.60
  -8   2   2    1.40    1.60
   8  -2   2    4.50    1.40
  -7   3   2  340.17   26.10
   7  -3   2  342.87   26.00
  -6   4   2  224.28   17.20
  -6   4   2  235.58   19.10
  -6   4   2  230.78   17.20
   6  -4   2  207.58   17.10
  -5   5   2   22.90    2.70
  -5   5   2   22.80    2.60
  -5   5   2   27.60    5.10
   5  -5   2   21.70    2.30
   4  -6   2    8.80    1.10
   4  -6   2   10.00    2.50
  -4   6   2   10.90    1.20
  -4   6   2    7.10    2.50
  -3   7   2  647.64   46.20
  -3   7   2  618.94   46.70
   3  -7   2  656.23   47.10
  -3   7  -2  514.85   47.20
  -2   8   2   65.29    5.30
   2  -8   2   68.19    6.80
  -2   8  -2   62.89    5.20
   2  -8  -2   61.99    6.20
  -2   8  -2   51.99    7.20
   1  -9   2   16.90    4.50
   1  -9   2   23.80    4.50
   1  -9   2   26.40    2.90
   1  -9   2   18.90    4.00
  -1   9  -2   25.60    2.80
   1  -9  -2   25.50    4.90
   0  10   2   73.19    5.90
   0 -10   2   57.79    9.00
   0 -10   2   69.09    7.70
   0 -10   2   68.99    5.70
   0  10   2   65.19    8.00
   0 -10  -2   76.69    8.40
   0  10  -2   69.99    5.90
   1  11   2  218.98   21.40
   1  11   2  270.57   19.50
   1  11   2  271.67   19.20
  -1 -11   2  250.37   19.20
  -1 -11   2  274.67   20.50
   1  11   2  245.58   19.40
  -1 -11   2  254.57   21.50
   1  11  -2  259.37   19.50
  -1 -11  -2  210.08   21.50
  -2 -12   2   31.20    5.90
   2  12   2   28.10    3.20
  -2 -12   2   38.20    3.20
   2  12   2   32.30    3.10
   2  12  -2   34.80    4.10
  -3 -13   2   -2.20    4.10
  -3 -13   2    4.20    1.50
   3  13   2    4.00    1.50
   4  14   2   37.70    3.60
  -4 -14   2   30.70    3.90
   4  14  -2   26.60    4.20
   5  15   2   52.89    5.10
   5  15  -2   52.69    6.60
   6  16   2    2.10    2.10
   6  16  -2   -3.50    3.30
   7  17   2   -2.10    2.00
   7  17  -2   -1.40    4.70
   7  17  -2    1.70    2.40
 -11  -1   3    3.10    2.90
  11   1  -3    1.30    0.80
 -10   0   3   63.09    6.20
  10   0   3   52.49    5.00
  10   0  -3   49.00    4.60
  -9   1   3    6.40    2.50
   9  -1   3    6.40    1.90
  -8   2   3    2.00    2.00
   8  -2   3    2.10    1.60
  -7   3   3   92.69    7.90
  -7   3   3   93.89   11.40
  -7   3   3  109.79    9.00
   7  -3   3   93.19    7.70
  -6   4   3   71.69    6.20
   6  -4   3   70.69    6.00
  -6   4   3   72.49    6.10
  -6   4   3   89.89   11.70
   5  -5   3   23.20    2.40
  -5   5   3   18.40    4.10
  -5   5   3   17.20    2.10
  -5   5   3   18.60    2.50
  -4   6   3    5.70    1.40
  -4   6   3    4.60    2.70
   4  -6   3    4.00    1.10
   4  -6   3    5.80    2.80
  -4   6   3    5.10    1.10
  -4   6  -3   -0.30    3.20
   3  -7   3  387.26   29.10
  -3   7   3  407.96   29.60
  -3   7   3  381.96   28.00
  -3   7   3  351.66   27.90
  -3   7  -3  358.46   28.00
  -3   7  -3  321.17   29.70
   2  -8   3  123.39   10.90
  -2   8   3  118.89    9.70
   2  -8   3  105.39   12.90
  -2   8   3  126.09    9.30
  -2   8  -3  113.19    9.40
   2  -8  -3  118.29    9.80
  -1   9   3    1.50    1.30
   1  -9   3    2.20    4.30
   1  -9   3    0.60    2.00
   1  -9   3    2.90    3.40
  -1   9   3   -0.60    3.00
   1  -9  -3    1.70    2.80
  -1   9  -3    2.00    1.70
   0 -10   3    1.90    1.60
   0 -10   3    6.60    4.20
   0 -10   3    6.40    3.90
   0 -10   3   -3.10    6.50
   0  10   3    7.70    4.40
   0  10   3    4.10    1.50
   0  10   3    4.50    1.30
   0  10  -3    6.40    2.00
   0 -10  -3    8.30    3.80
   1  11   3   86.49    6.70
   1  11   3   77.39    7.00
  -1 -11   3   83.99    6.90
  -1 -11   3   82.69   13.00
  -1 -11   3   83.19    9.60
   1  11  -3   92.19    7.30
  -2 -12   3    0.10    1.50
  -2 -12   3    2.50    3.80
   2  12   3    3.80    1.40
   2  12   3    2.40    1.60
   2  12  -3    0.80    2.50
  -3 -13   3   16.50    5.10
   3  13   3   14.50    2.20
  -3 -13   3   16.40    2.30
   3  13  -3   15.50    3.20
  -4 -14   3    4.40    2.10
  -4 -14   3   11.50    5.90
   4  14   3    3.10    2.00
   4  14  -3    6.30    3.80
  -5 -15   3   13.60    2.70
   5  15   3   13.40    2.50
   5  15  -3   13.50    4.10
   6  16   3    2.20    2.10
   6  16  -3   -2.80    3.50
   7  17   3    4.10    2.00
   7  17  -3    3.00    3.10
 -10   0   4  100.99    8.60
  10   0   4   90.49    7.90
  -9   1   4   16.40    2.90
   9  -1   4   18.00    2.70
  -8   2   4    5.60    2.20
  -8   2   4   10.80    5.20
   8  -2   4    6.20    1.90
   7  -3   4  249.18   19.40
  -7   3   4  250.57   19.40
  -7   3   4  237.48   22.40
  -7   3   4  266.57   19.50
  -6   4   4  302.07   25.20
   6  -4   4  286.27   22.80
  -6   4   4  306.77   23.00
  -5   5   4  100.19    8.40
  -5   5   4  104.89    8.30
   5  -5   4  100.39    8.40
  -5   5   4  115.59   12.60
  -4   6   4   45.80    4.30
   4  -6   4   42.30    4.20
  -4   6   4   43.50    6.30
  -4   6   4   47.30    4.00
   3  -7   4  389.76   32.20
  -3   7   4  420.96   31.80
  -3   7   4  404.86   30.80
  -3   7   4  400.16   30.70
  -3   7  -4  407.56   30.80
  -2   8   4   81.79    7.70
  -2   8   4   85.99    6.70
  -2   8   4   77.69    6.30
   2  -8   4   58.79   11.30
  -2   8  -4   89.39    6.80
   1  -9   4   42.00    7.90
  -1   9   4   54.19    4.60
   1  -9   4   49.40    5.20
   1  -9   4   47.50    7.90
  -1   9   4   39.40    5.30
  -1   9  -4   57.09    4.80
   0 -10   4   98.99   12.50
   0  10   4  105.19    8.40
   0 -10   4  114.49    8.60
   0  10   4   90.89    8.60
   0  10  -4  104.99    8.70
  -1 -11   4  201.88   14.70
   1  11   4  176.18   14.60
  -1 -11   4  161.68   18.70
   1  11   4  190.08   14.60
   1  11  -4  206.28   15.20
  -2 -12   4   67.89   10.40
  -2 -12   4   96.29    7.30
   2  12   4   87.49    7.10
   2  12  -4   91.19    8.00
  -3 -13   4    6.60    5.20
   3  13   4    8.00    2.10
  -3 -13   4   10.20    2.30
   3  13  -4   10.80    3.40
  -4 -14   4   15.10    2.60
  -4 -14   4   11.30    6.70
   4  14   4   11.80    2.40
   4  14  -4   10.30    3.60
  -5 -15   4   19.80    2.90
   5  15  -4   21.40    4.40
   6  16   4    2.20    2.20
   6  16  -4   -1.80    3.60
  10   0   5    8.20    2.20
 -10   0   5    8.10    2.80
  -9   1   5    0.20    2.30
   9  -1   5   -0.90    1.90
  -8   2   5    4.60    3.10
  -8   2   5   -1.80    5.20
  -7   3   5    9.00    2.00
  -7   3   5    7.60    5.40
  -7   3   5    9.70    2.20
   7  -3   5   12.30    2.40
   6  -4   5    5.30    2.00
  -6   4   5    9.80    4.90
  -6   4   5    6.90    1.90
  -6   4   5    7.00    2.00
  -5   5   5    1.40    1.70
   5  -5   5   -0.10    1.80
  -5   5   5    2.20    1.90
  -5   5   5   -1.10    3.70
  -4   6   5    1.50    1.70
  -4   6   5    3.30    1.40
  -4   6   5    0.70    3.40
  -3   7   5   55.59    5.60
  -3   7   5   53.69    4.70
  -3   7   5   49.20    7.10
  -3   7  -5   69.29    5.60
  -2   8   5   10.90    3.20
   2  -8   5    3.40    6.50
  -2   8   5    6.80    1.20
   2  -8   5    5.10    2.80
  -2   8  -5    5.20    2.50
   1  -9   5    6.60    6.30
   1  -9   5    2.10    2.70
  -1   9   5    8.90    3.40
  -1   9  -5   11.50    2.90
   0 -10   5    9.80    6.10
   0  10   5    8.40    3.10
   0  10  -5   10.00    2.80
  -1 -11   5    7.30    5.70
  -1 -11   5    9.20    2.40
   1  11   5    9.70    2.20
   1  11   5    5.50    1.80
   1  11  -5    6.30    3.00
  -2 -12   5   -1.80    5.20
   2  12   5    1.30    2.20
  -2 -12   5    1.80    2.30
   2  12  -5    1.80    3.00
   3  13   5   12.00    2.60
  -3 -13   5   14.80    2.80
  -3 -13   5   16.20    6.60
   3  13  -5   16.10    3.90
   4  14   5    1.20    2.60
  -4 -14   5    0.50   12.80
  -4 -14   5    3.10    2.60
   4  14  -5    5.80    3.60
   5  15   5   -0.20    2.20
  -5 -15   5   -2.70    2.30
   5  15  -5    3.90    4.00
  -9   1   6    6.70    2.40
  -8   2   6    4.00    2.20
  -8   2   6    2.50    1.90
   8  -2   6    3.40    2.00
  -7   3   6   55.09    5.10
   7  -3   6   50.19    5.20
  -7   3   6   42.80    8.50
  -7   3   6   53.89    5.30
  -6   4   6   39.50    4.50
  -6   4   6   47.10    4.40
  -6   4   6   36.70    6.70
   6  -4   6   40.80    4.60
  -5   5   6   20.80    2.40
   5  -5   6    8.30    8.10
  -5   5   6   17.90    2.50
  -4   6   6   16.00    2.00
  -4   6   6   19.50    5.00
  -4   6   6    9.70    2.20
   4  -6   6    9.00    8.30
  -3   7   6   94.39    7.20
  -3   7   6   71.79    9.50
   3  -7   6   82.19    8.30
  -3   7   6   88.89    7.60
  -3   7  -6  106.09    8.20
  -2   8   6   24.00    4.50
  -2   8   6   22.80    2.80
  -2   8   6   23.30    2.80
   2  -8   6   23.40    3.50
   2  -8   6   14.20    6.30
  -2   8  -6   33.50    3.80
   1  -9   6   -2.40    6.10
  -1   9   6    9.80    2.10
   1  -9   6    9.50    2.80
  -1   9  -6   10.00    3.10
   0  10   6   13.80    2.40
   0 -10   6   13.70    8.20
   0 -10   6   26.40    3.40
   0  10  -6   17.90    3.50
   1  11   6   18.40    2.30
  -1 -11   6    9.40    6.60
  -2 -12   6    8.90    2.70
   2  12   6    6.10    2.50
  -2 -12   6   16.40    6.40
   2  12  -6   13.10    3.70
  -3 -13   6   -0.90    2.50
   3  13   6    5.90    2.30
   3  13  -6    3.80    3.60
   4  14   6    7.30    2.30
  -4 -14   6    5.40    2.60
   4  14  -6    3.80    3.40
  -5 -15   6    3.80    2.20
  -7   3   7    3.10    1.90
  -7   3   7    4.90    1.80
  -6   4   7    4.30    1.90
  -6   4   7    0.80    1.90
   5  -5   7   -4.10    8.00
  -5   5   7    0.20    2.00
  -5   5   7    1.60    1.70
  -5   5   7    3.90    7.10
   4  -6   7   -0.70    4.10
  -4   6   7   -0.80    4.70
  -4   6   7    6.10    2.50
   4  -6   7    2.80    3.00
  -4   6   7    6.20    1.70
   3  -7   7   22.80    3.50
  -3   7   7   20.00    5.90
   3  -7   7   19.10    6.00
  -3   7   7   23.10    2.90
  -3   7  -7   37.00    4.20
  -2   8   7   14.80    2.50
  -2   8   7   20.00    2.40
   2  -8   7   11.20    3.10
  -2   8  -7   15.10    3.80
   1  -9   7    0.90    5.30
   1  -9   7    2.00    2.60
  -1   9   7    2.90    2.00
  -1   9  -7   -3.40    3.20
   0 -10   7   -9.80    5.30
   0 -10   7   -2.20    3.90
   0  10  -7   -1.30    5.30
   1  11   7    5.30    1.80
  -1 -11   7   11.80    7.70
  -1 -11   7    6.60    2.90
   1  11  -7    5.10    3.60
  -2 -12   7    2.70    2.60
   2  12  -7   -0.80    3.40
  -3 -13   7    0.60    2.40
   3  13  -7    1.50    3.50
   6  -4   8    1.00    2.40
  -6   4   8    3.10    2.30
  -6   4   8    3.00    1.60
   5  -5   8    3.20    2.70
  -5   5   8   -0.20    1.90
   4  -6   8    5.40    2.80
  -4   6   8    7.70    1.60
  -4   6   8    6.30    2.10
  -3   7   8   10.90    2.00
  -3   7   8   10.40    2.20
   3  -7   8   16.10    3.00
  -3   7  -8   16.00    3.70
   2  -8   8    7.20    2.70
  -2   8   8    7.40    2.00
  -2   8  -8   11.80    3.80
   1  -9   8    1.00    2.40
  -1   9   8    4.20    1.80
  -1   9  -8    3.40    3.70
   0 -10   8    6.60    2.40
   0  10   8    0.80    1.60
   0  10  -8    8.50    3.70
  -1 -11   8    6.20    2.40
   1  11  -8   11.90    3.60
  11  -1   0   53.49    4.90
  10  -2   0    1.20    1.40
 -10   2   0    2.40    2.80
   9  -3   0  281.87   21.60
  -9   3   0  284.87   22.10
  -8   4   0  190.18   15.20
   8  -4   0  195.98   14.80
   7  -5   0   44.20    3.60
  -7   5   0   40.80    4.20
  -6   6   0  121.19    9.60
  -5   7   0  638.34   43.50
  -5   7   0  509.55   43.40
  -4   8   0  152.88   11.60
   4  -8   0  141.29   13.10
   3  -9   0   25.00    5.00
   3  -9   0   20.90    3.80
  -3   9   0   22.50    2.70
   2 -10   0  364.96   30.00
  -2  10   0  388.26   28.70
   2 -10   0  373.76   30.50
  -1  11   0  699.93   51.89
   1 -11   0  649.83   54.89
   1 -11   0  698.63   53.49
   0  12   0  330.17   24.60
   0 -12   0  290.97   26.90
   0 -12   0  341.07   26.80
  -1 -13   0  107.29   14.60
  -1 -13   0   79.09   12.70
   1  13   0  112.39    8.50
   2  14   0  182.68   14.50
   3  15   0   18.90    3.40
   4  16   0    4.20    3.10
   4  16   0    3.70    2.00
   5  17   0    9.90    4.30
   5  17   0   10.30    2.30
   6  18   0   63.19    5.70
 -11   1   1    4.90    2.90
  11  -1   1    5.00    1.60
  10  -2   1   20.30    2.30
 -10   2   1   19.30    3.30
  10  -2  -1   17.40    2.10
   9  -3   1   82.69    6.80
  -9   3   1   82.99    7.50
   9  -3  -1   81.69    6.60
   8  -4   1   37.30    3.50
  -8   4   1   38.30    4.30
   8  -4  -1   39.00    3.40
   7  -5   1   28.40    2.60
  -7   5   1   26.50    3.20
  -6   6   1   87.29    6.90
   6  -6   1   85.79    6.70
  -5   7   1  145.89   11.00
  -5   7   1  137.39   10.90
  -4   8   1   15.00    1.90
  -4   8   1   12.00    1.60
  -4   8  -1   13.00    2.20
  -3   9   1   43.80    4.00
   3  -9   1   32.10    5.60
   3  -9   1   45.00    5.60
   3  -9  -1   35.70    6.10
  -3   9  -1   46.90    3.90
  -2  10   1   17.50    2.20
   2 -10   1   19.90    4.50
   2 -10   1   31.50    7.40
  -2  10   1   22.30    2.70
   2 -10   1   12.60    3.20
   2 -10  -1   14.70    4.40
   2 -10  -1    9.50    4.00
  -1  11   1   64.39    5.70
  -1  11   1   71.69    5.50
   1 -11   1   54.99    9.20
  -1  11  -1   62.39    5.50
   1 -11  -1   51.19    8.60
   0 -12   1   67.39   11.90
   0  12   1   85.69    7.30
   0  12   1   96.29    7.20
   0 -12  -1   65.19   10.80
   0  12  -1   92.49    7.20
  -1 -13   1   20.70    6.60
   1  13   1   41.70    4.20
   1  13   1   35.50    3.00
  -1 -13   1   31.20    6.90
   1  13   1   37.50    4.40
   1  13  -1   39.60    4.20
   2  14   1   20.40    3.10
   2  14   1   21.80    2.40
   2  14   1   20.90    3.00
   2  14  -1   19.70    3.10
   3  15   1    7.60    1.70
   3  15   1   11.10    3.10
   3  15  -1    4.40    2.90
   4  16   1    4.30    1.80
   4  16   1    1.50    3.00
   4  16  -1   -1.00    3.30
   5  17   1    4.80    2.50
   5  17  -1    2.00    2.90
   5  17  -1   -3.70    5.30
   6  18   1   22.90    2.80
   6  18  -1   20.60    3.80
   6  18  -1   27.20    3.00
 -11   1   2   15.20    3.10
  11  -1   2   14.10    2.10
 -10   2   2    3.40    2.60
  10  -2   2    6.40    1.80
  -9   3   2   65.59    5.80
   9  -3   2   50.39    5.10
  -8   4   2   89.49    7.60
  -7   5   2    5.00    1.60
   7  -5   2    6.10    1.30
  -6   6   2   29.00    3.10
   6  -6   2   34.90    3.80
  -6   6   2   32.00    3.60
  -5   7   2  252.47   18.40
   5  -7   2  220.58   18.30
  -5   7   2  249.97   18.50
  -4   8   2  268.57   20.90
  -4   8   2  281.07   21.00
   3  -9   2    2.20    2.90
  -3   9   2    9.60    1.60
  -3   9  -2    4.50    1.60
   2 -10   2   46.20    8.30
  -2  10   2   61.39    5.10
   2 -10   2   56.59    8.80
  -2  10  -2   64.49    5.10
   2 -10  -2   49.40    7.00
   1 -11   2  250.87   20.50
   1 -11   2  230.78   22.10
   1 -11   2  233.38   18.90
   1 -11   2  257.47   21.60
  -1  11   2  239.38   19.00
  -1  11  -2  256.47   19.00
   1 -11  -2  255.87   20.80
   0 -12   2  154.68   16.50
   0 -12   2  147.89   15.10
   0 -12   2  159.18   13.80
   0  12   2  162.28   12.60
   0 -12   2  156.48   12.60
   0  12  -2  174.28   12.70
   1  13   2   24.90    2.70
   1  13   2   17.00    2.00
  -1 -13   2   25.20    5.30
   1  13  -2   26.80    3.20
   2  14   2   57.89    5.80
  -2 -14   2   69.69   10.20
   2  14   2   54.59    4.90
   2  14  -2   67.39    6.50
   3  15   2    6.90    2.60
   3  15  -2    9.50    3.20
   4  16   2    1.50    1.80
   4  16  -2    0.50    3.40
   5  17   2    3.70    2.00
   5  17  -2    2.90    3.70
   6  18   2   29.00    3.40
   6  18  -2   29.30    3.20
   6  18  -2   20.50    4.00
  11  -1   3    4.10    1.60
 -11   1   3    2.30    2.50
  10  -2   3    3.20    1.70
 -10   2   3    0.20    2.20
  -9   3   3   17.70    2.70
   9  -3   3   21.80    2.60
   8  -4   3   67.89    6.00
  -8   4   3   71.09    6.20
   7  -5   3   17.50    2.30
  -7   5   3   28.60    3.50
   6  -6   3    4.30    1.50
  -6   6   3    7.40    1.80
  -6   6   3   10.20    1.70
  -5   7   3  147.89   10.70
  -5   7   3  145.69   12.50
  -5   7   3  134.49   10.90
   5  -7   3  125.79   10.70
  -4   8   3  373.86   28.90
  -4   8   3  385.26   29.80
  -4   8   3  384.56   29.00
  -3   9   3    2.00    1.50
  -3   9  -3    7.50    1.80
   2 -10   3    8.60    5.10
  -2  10   3    8.90    1.80
   2 -10   3    7.50    4.00
  -2  10  -3   11.20    2.20
  -1  11   3   85.69    7.30
   1 -11   3   82.89   10.10
   1 -11   3   70.89   11.90
   1 -11   3   92.39    7.80
  -1  11  -3   97.79    7.60
   0 -12   3   55.29    8.50
   0 -12   3   75.29    6.10
   0  12   3   66.69    6.20
   0  12  -3   83.29    6.50
  -1 -13   3   -2.70    3.60
  -1 -13   3    4.20    1.50
   1  13   3    6.60    2.20
   1  13   3    3.10    1.90
   1  13  -3    5.30    4.00
  -2 -14   3   26.30    5.40
  -2 -14   3   15.40    2.20
   2  14   3   14.40    2.10
   2  14  -3   18.60    3.40
   3  15   3   13.90    2.20
   3  15  -3   21.70    4.10
   4  16   3    2.60    1.90
   4  16  -3    1.90    3.80
   5  17   3    0.70    1.90
   5  17  -3    6.80    3.90
   6  18   3    9.60    2.10
   6  18  -3    6.40    5.00
 -10   2   4    5.70    2.20
  10  -2   4    6.20    2.00
  -9   3   4   22.20    2.90
   9  -3   4   19.70    2.70
  -8   4   4   93.49    8.30
  -8   4   4  105.69    8.50
   8  -4   4  103.69    8.40
   7  -5   4   -0.20    1.80
  -7   5   4   -2.20    4.40
  -7   5   4    1.30    1.80
  -7   5   4    1.40    1.90
  -6   6   4   48.60    5.20
  -6   6   4   56.79    5.50
  -6   6   4   53.09    8.20
   6  -6   4   63.09    6.30
  -5   7   4  233.48   20.30
  -5   7   4  248.58   18.10
  -5   7   4  244.48   18.70
   5  -7   4  216.68   18.20
  -4   8   4  496.85   37.60
  -4   8   4  509.85   38.80
  -4   8   4  482.35   37.80
   3  -9   4   21.70    7.30
  -3   9   4   23.30    4.60
  -3   9   4   22.70    2.70
  -3   9  -4   29.20    3.70
  -2  10   4   74.99    6.60
   2 -10   4   78.89    7.10
   2 -10   4   56.79   12.10
  -2  10  -4   85.79    7.00
   1 -11   4  209.88   15.30
   1 -11   4  174.08   22.40
  -1  11   4  182.78   15.10
  -1  11  -4  199.18   15.40
   0 -12   4  160.38   12.10
   0 -12   4  128.29   15.00
   0  12  -4  164.88   12.50
  -1 -13   4   28.30    5.90
  -1 -13   4   28.80    3.70
   1  13   4   26.20    3.30
   1  13   4   27.00    3.10
   1  13  -4   40.00    4.20
  -2 -14   4   46.30    4.40
   2  14   4   33.70    4.30
  -2 -14   4   33.70    6.80
   2  14  -4   53.19    5.60
  -3 -15   4   24.60    3.00
   3  15   4   22.00    2.80
   3  15  -4   23.40    4.30
   4  16   4    5.60    2.10
   4  16  -4   10.70    4.00
   5  17   4    3.00    2.30
   5  17  -4    5.70    4.00
  10  -2   5   -0.10    1.70
 -10   2   5    1.80    2.90
   9  -3   5    6.80    2.00
  -9   3   5    0.40    1.90
  -8   4   5    5.90    2.10
  -8   4   5    5.10    2.40
   8  -4   5    6.30    2.20
  -7   5   5    8.50    5.10
  -7   5   5   14.60    2.40
   7  -5   5   15.10    2.40
  -6   6   5   12.50    2.00
   6  -6   5   12.00    2.30
  -6   6   5   12.40    5.00
  -6   6   5   10.90    2.40
  -5   7   5    9.10    4.40
  -5   7   5    8.20    2.10
  -5   7   5    7.10    1.80
  -4   8   5   70.69    5.60
  -4   8   5   68.89    6.10
  -4   8   5   56.69    8.50
  -3   9   5    5.90    1.90
  -3   9   5    5.60    3.50
   3  -9   5   -4.30    6.00
  -3   9  -5    3.60    3.90
   2 -10   5    1.30    6.00
  -2  10   5    4.00    2.00
   2 -10   5    1.40    2.90
  -2  10  -5    4.00    3.00
   1 -11   5    3.50    6.10
   1 -11   5    8.40    2.60
  -1  11   5    7.20    2.20
  -1  11  -5    4.50    3.00
   0  12   5    4.00    2.10
   0 -12   5    5.90    2.40
   0 -12   5    4.70    5.90
   0  12  -5    4.90    3.10
  -1 -13   5    4.20    6.10
  -1 -13   5    6.10    2.50
   1  13   5    4.40    2.00
   1  13  -5    9.10    3.40
  -2 -14   5   -0.30    2.30
  -2 -14   5    1.60    6.10
   2  14  -5    2.90    3.40
   3  15   5   -0.10    2.50
  -3 -15   5   -1.70    2.30
   3  15  -5   -3.70    3.40
   4  16  -5    1.30    4.10
  -9   3   6    9.70    2.00
  -8   4   6   14.80    2.30
  -8   4   6   13.10    2.20
  -7   5   6    3.20    1.80
  -7   5   6    2.70    1.90
  -7   5   6    2.80    5.90
  -6   6   6   13.60    5.50
  -6   6   6   10.30    2.00
  -6   6   6    7.90    2.60
   6  -6   6    3.00    7.90
   5  -7   6   27.40    8.30
  -5   7   6   48.20    4.10
  -5   7   6   39.90    4.60
  -4   8   6   45.70   10.80
  -4   8   6   68.19    5.20
  -4   8   6   56.59    5.90
   3  -9   6    3.00    3.20
   3  -9   6    5.50    7.00
  -3   9   6   11.70    2.30
  -3   9  -6    8.50    3.40
   2 -10   6   23.50    7.50
   2 -10   6   17.90    3.50
  -2  10   6   19.90    2.80
  -2  10  -6   26.20    4.10
   1 -11   6   36.70    4.10
  -1  11   6   35.00    4.40
   1 -11   6   28.70    7.50
  -1  11  -6   38.30    4.80
   0  12   6   32.70    4.30
   0 -12   6   50.59    5.10
   0 -12   6   34.10    8.20
  -1 -13   6    9.90    3.10
   1  13   6    5.30    2.30
  -1 -13   6   14.40    7.00
   1  13  -6   16.00    4.30
  -2 -14   6    9.70    2.70
  -2 -14   6   32.10   11.20
   2  14  -6    8.40    3.70
  -3 -15   6    5.20    2.40
   3  15  -6    7.10    3.40
   4  16  -6   -1.50    5.30
  -7   5   7    2.40    2.60
  -7   5   7    0.90    1.70
  -6   6   7   -1.60    1.50
  -6   6   7    2.10    1.90
  -5   7   7    6.60    2.10
  -5   7   7    4.70    1.60
   5  -7   7    2.70    2.80
   4  -8   7    3.60    3.00
  -4   8   7    1.70    2.20
   4  -8   7   12.40    7.50
   3  -9   7    0.40    2.70
  -3   9   7    0.80    2.40
   3  -9   7    2.90    8.10
  -3   9  -7   -5.90    3.70
  -2  10   7    1.50    2.20
   2 -10   7    2.10    2.70
   2 -10   7   -2.40    7.60
  -2  10  -7   -2.50    4.50
  -1  11   7    2.90    2.10
   1 -11   7    5.10    6.90
   1 -11   7    5.60    2.80
  -1  11  -7    6.10    3.80
   0 -12   7    8.10    2.70
   0  12   7    6.60    2.00
   0  12  -7    4.10    3.70
  -1 -13   7   -1.10    2.30
   1  13  -7    1.00    3.60
  -2 -14   7   -0.70    3.80
   2  14  -7    5.30    3.20
   5  -7   8    4.70    2.70
  -5   7   8    6.60    2.00
   4  -8   8    2.60    2.60
  -4   8   8    1.60    1.90
   3  -9   8   -1.10    2.40
  -3   9   8    3.50    2.00
  -3   9  -8    9.20    3.90
   2 -10   8    6.40    2.40
  -2  10   8    4.00    1.90
  -2  10  -8    6.30    3.70
  -1  11   8    4.20    1.70
   1 -11   8    4.80    2.20
  -1  11  -8    6.70    3.70
   0 -12   8   13.30    2.90
   0  12  -8   13.10    4.20
  -5   9   0   55.69    5.40
  -4  10   0  197.38   15.50
   4 -10   0  199.38   17.50
  -3  11   0  555.44   44.60
   3 -11   0  526.55   46.50
  -3  11   0  670.63   44.50
   2 -12   0   56.99   11.40
  -2  12   0   83.29    7.20
  -2  12   0   91.19    6.90
  -1  13   0  123.29    9.60
  -1  13   0  111.39    9.80
   0  14   0  313.27   23.80
   0  14   0  302.37   23.70
   1  15   0  371.56   28.00
   1  15   0  350.56   28.30
   2  16   0    7.00    3.00
   2  16   0    8.70    3.00
   2  16   0    6.20    1.50
   3  17   0   25.10    4.00
   3  17   0   22.80    3.70
   3  17   0   25.10    2.70
   4  18   0   52.69    7.60
   4  18   0   63.99    5.40
   5  19   0   32.40    3.20
 -10   4   1  171.58   15.40
  -9   5   1    2.90    2.30
  -8   6   1    3.40    1.90
  -7   7   1   18.40    2.20
  -6   8   1   52.09    4.70
  -6   8   1   62.79    5.30
  -5   9   1   30.50    3.80
  -5   9  -1   28.80    3.40
  -4  10   1    7.70    1.80
   4 -10  -1   -2.20    3.80
  -4  10  -1    2.90    2.20
   3 -11   1   86.79   15.10
   3 -11   1  115.29   10.90
  -3  11   1  109.69    9.30
   3 -11  -1  123.99   11.70
  -3  11  -1  124.19    9.30
  -2  12   1   31.90    4.20
  -2  12   1   40.00    4.00
  -2  12  -1   35.20    3.90
  -1  13   1   41.70    4.50
  -1  13   1   39.50    4.70
  -1  13  -1   37.90    4.30
   0  14   1   16.10    2.80
   0  14   1   18.60    2.80
   0  14  -1   14.40    2.60
   1  15   1  160.68   12.90
   1  15  -1  157.58   12.90
   2  16   1   15.40    2.90
   2  16   1   11.30    3.40
   2  16  -1   13.60    3.20
   3  17   1   -0.20    2.60
   3  17   1    1.40    3.10
   3  17  -1    4.70    3.40
   4  18   1   27.30    3.60
   4  18  -1   35.10    3.90
   5  19   1    2.50    2.40
   5  19  -1    0.20    1.90
   5  19  -1    0.50    3.30
 -11   3   2   22.80    3.30
 -10   4   2  123.69   10.40
  -9   5   2    5.50    2.10
  -8   6   2   12.30    2.20
  -7   7   2   49.40    5.00
  -7   7   2   49.60    4.60
  -6   8   2   76.19    6.50
  -6   8   2   72.59    6.00
  -5   9   2    1.30    0.90
  -5   9   2    2.90    1.70
  -5   9  -2    5.50    4.00
  -4  10   2  121.39    9.70
   3 -11   2  187.38   17.70
  -3  11   2  181.88   15.30
  -3  11  -2  220.48   15.40
  -2  12   2   30.70    3.50
   2 -12   2   37.60    7.50
  -2  12  -2   40.30    4.20
  -1  13   2   23.60    3.00
  -1  13  -2   27.80    3.30
   0  14   2  173.38   14.70
   0  14  -2  199.58   14.80
   1  15   2  146.89   11.30
   1  15  -2  128.79   11.40
   2  16   2    4.00    2.40
   2  16  -2    1.80    3.10
   3  17  -2    9.80    3.70
   4  18  -2   19.60    4.30
   5  19  -2   14.50    4.00
   5  19  -2   21.10    2.60
 -11   3   3    6.60    3.20
 -10   4   3   25.20    3.10
  -9   5   3   10.40    2.40
   9  -5   3   11.80    2.20
   8  -6   3    0.10    1.70
  -8   6   3    5.10    1.90
  -7   7   3    4.10    2.10
   7  -7   3    3.10    1.60
  -7   7   3    4.80    1.70
  -6   8   3   12.30    1.80
  -6   8   3   10.50    2.30
  -5   9   3   15.90    2.60
  -5   9   3   15.50    2.50
  -4  10   3   30.20    3.90
  -3  11   3   51.69    5.00
   3 -11   3   49.00    9.70
  -3  11  -3   52.69    5.10
   2 -12   3   -4.80    4.30
  -2  12   3    6.20    2.00
   2 -12   3    9.10    2.10
  -2  12  -3    4.00    2.30
   1 -13   3    7.10    1.90
   1 -13   3    5.00    4.20
  -1  13  -3    4.90    2.60
   0  14   3   40.00    4.80
   0 -14   3   38.30    7.30
   0  14  -3   50.39    5.40
   1  15   3   57.99    6.30
   1  15  -3   79.09    7.20
   2  16   3    1.70    2.20
   2  16  -3    0.80    3.20
   3  17  -3    2.40    3.70
   4  18  -3    9.00    4.00
   5  19  -3    1.10    3.40
 -10   4   4   21.20    2.70
   9  -5   4   12.10    2.40
  -9   5   4   16.10    2.40
  -8   6   4   30.60    3.70
  -8   6   4   27.00    3.20
   8  -6   4   25.40    3.10
   7  -7   4   20.00    2.80
  -7   7   4   30.00    3.40
  -7   7   4   25.70    3.10
  -6   8   4    4.60    2.10
  -5   9   4   12.10    2.40
  -5   9   4   13.10    2.20
  -4  10   4  158.18   12.60
   3 -11   4  114.29    9.70
   3 -11   4   86.39   13.80
  -3  11   4  117.19    9.30
  -3  11  -4  122.99    9.50
   2 -12   4   78.99   12.30
  -2  12   4   88.09    7.80
   2 -12   4   91.59    8.00
  -2  12  -4  102.29    8.90
   1 -13   4   30.60    3.90
   1 -13   4   21.50    6.20
  -1  13   4   29.20    3.30
  -1  13  -4   39.60    4.90
   0 -14   4   93.59   12.90
   0  14   4  109.09    9.80
   0 -14   4  130.69    9.60
   0  14  -4  132.09   10.30
   1  15   4   62.59    6.40
   1  15  -4   74.69    7.20
   2  16  -4   22.20    4.50
   3  17  -4    9.90    3.80
   4  18  -4   18.80    4.40
  -9   5   5   -1.10    1.70
  -8   6   5    1.00    1.80
  -8   6   5    2.00    2.00
  -7   7   5    4.00    2.00
  -7   7   5    4.90    2.20
  -6   8   5   15.50    2.60
   5  -9   5    9.00    8.40
  -5   9   5   16.50    2.60
  -4  10   5    5.60    2.10
   4 -10   5   -3.80    6.30
  -3  11   5    2.50    2.20
   3 -11   5    4.00    3.10
   3 -11   5   -1.80    6.20
  -3  11  -5   -1.20    3.10
  -2  12   5    4.90    2.30
   2 -12   5   -2.10    2.70
   2 -12   5    3.80    6.40
  -2  12  -5   -0.20    3.40
  -1  13   5    4.80    2.40
   1 -13   5    8.20    6.30
   1 -13   5    9.00    2.70
  -1  13  -5    7.40    3.60
   0 -14   5   -9.30    8.60
   0  14   5    5.70    2.30
   0 -14   5    3.70    2.50
   0  14  -5    5.90    3.30
  -1 -15   5    7.80    2.30
   1  15   5    6.30    2.20
   1  15  -5   12.40    3.50
   2  16  -5    4.20    3.90
   3  17  -5    3.00    3.60
  -8   6   6    8.20    2.10
  -8   6   6    4.40    2.00
  -7   7   6    9.80    1.90
  -7   7   6    4.00    2.10
   6  -8   6    7.90    7.90
  -6   8   6    6.80    2.30
  -5   9   6    7.50    4.30
   5  -9   6   21.70    7.30
  -4  10   6   20.20    2.90
   4 -10   6   14.70    7.10
   4 -10   6   22.30    3.60
   3 -11   6   26.00    3.70
   3 -11   6   27.30    7.80
  -3  11   6   20.20    3.10
  -3  11  -6   26.30    4.30
   2 -12   6   15.00    7.30
  -2  12   6    8.80    2.50
   2 -12   6   10.90    2.90
  -2  12  -6    6.50    3.80
   1 -13   6   12.20    2.90
  -1  13   6    7.50    3.00
  -1  13  -6   11.30    4.40
   0  14   6   17.40    2.80
   0 -14   6   18.20   11.60
   0 -14   6   24.80    3.30
   0  14  -6   28.30    4.40
   1  15   6    9.20    2.20
  -1 -15   6   17.60    2.60
   1  15  -6   18.10    3.80
   2  16  -6    4.90    3.70
  -7   7   7    1.80    1.90
   6  -8   7    3.00    2.60
  -6   8   7    3.60    1.90
  -5   9   7    0.50    2.10
   5  -9   7   -0.60    2.50
   4 -10   7    2.10    2.80
  -4  10   7    0.00    2.20
   3 -11   7    2.30    2.60
  -3  11   7    2.80    2.30
  -3  11  -7    4.60    3.50
  -2  12   7    0.80    2.10
   2 -12   7   -0.10    2.40
  -2  12  -7   -5.40    3.70
  -1  13   7    0.90    2.00
   1 -13   7    3.00    2.50
  -1  13  -7    0.80    3.80
   0  14   7    3.50    1.80
   0 -14   7    5.10    2.30
   0  14  -7    3.30    3.40
  -1 -15   7    6.50    2.10
   1  15  -7    2.30    3.30
  -6  10   0  278.67   21.70
  -5  11   0  300.77   23.20
  -4  12   0  186.18   14.70
  -3  13   0   33.20    3.70
  -3  13   0   33.50    4.20
  -2  14   0  180.38   14.50
  -2  14   0  184.58   14.40
  -1  15   0  393.06   30.50
   0  16   0   92.59    8.10
   0  16   0   76.59    7.60
   1  17   0    3.50    2.90
   1  17   0    2.60    3.00
   2  18   0   65.79    7.00
   2  18   0   57.99    6.80
   3  19   0   66.49    8.10
   4  20   0    3.40    3.20
  -6  10   1    3.30    2.20
  -5  11   1   64.19    6.30
  -5  11  -1   71.49    6.80
  -4  12   1    1.50    2.10
  -4  12  -1    4.70    2.70
  -3  13   1   65.49    6.30
  -3  13  -1   65.19    6.70
  -3  13  -1   70.29    6.10
  -2  14   1   17.10    3.10
  -2  14  -1   17.30    2.80
  -1  15   1  151.88   12.60
  -1  15   1  157.08   12.50
   0  16   1    0.20    2.60
   0  16   1    4.30    2.80
   0  16  -1    2.30    2.70
   1  17   1    1.20    2.70
   1  17   1    2.00    3.00
   1  17  -1    1.80    3.00
   2  18   1   18.60    3.90
   2  18   1   27.80    3.60
   2  18  -1   21.70    4.10
   2  18  -1   32.60    4.30
   3  19   1   43.80    5.00
   3  19  -1   43.20    5.40
   3  19  -1   36.90    5.10
   4  20  -1    2.10    3.00
   4  20  -1   -1.20    3.40
 -10   6   2    7.90    2.50
  -9   7   2   98.29    8.40
  -8   8   2   33.60    4.20
  -7   9   2    2.40    1.60
  -7   9   2    2.90    2.30
  -6  10   2   55.49    5.70
  -5  11  -2  168.38   13.90
   4 -12   2   10.10    5.70
  -3  13  -2    8.20    2.50
  -2  14   2   63.29    6.50
  -2  14  -2   75.09    6.60
  -1  15   2  136.39   11.50
  -1  15  -2  144.29   11.60
   0  16   2    5.20    2.60
   0  16  -2    3.80    2.80
   1  17   2   10.80    2.70
   1  17  -2    3.60    3.10
   2  18   2   32.80    3.80
   2  18  -2   33.50    4.60
   3  19  -2   33.10    4.80
   4  20  -2    7.00    3.60
   4  20  -2    7.30    3.70
 -10   6   3   -0.90    2.00
  -9   7   3   95.49    8.10
  -8   8   3   23.00    2.70
  -8   8   3   18.10    3.00
  -7   9   3    1.50    2.30
  -6  10   3    1.60    2.30
  -5  11   3   64.19    6.20
  -4  12   3   52.09    5.30
   4 -12   3   49.00    9.70
   3 -13   3   11.50    5.50
  -3  13   3   11.30    2.40
   3 -13   3   11.20    3.10
  -3  13  -3   14.60    3.00
  -2  14   3   16.10    2.60
  -2  14  -3   14.50    3.10
  -1  15   3   63.59    6.60
  -1  15  -3   75.49    7.00
   0  16   3    1.70    2.40
   0  16  -3    3.50    3.20
   1  17   3    3.70    2.40
   1  17  -3    0.10    3.20
   2  18  -3   35.40    6.00
   3  19  -3    8.70    3.90
   4  20  -3    2.90    3.50
 -10   6   4    5.60    3.00
  -9   7   4   88.49    7.50
  -7   9   4   18.50    2.80
  -6  10   4   16.70    2.70
  -5  11   4  122.49    9.30
   5 -11   4   87.49   15.50
   4 -12   4   -2.50    6.50
   4 -12   4    2.10    3.00
  -4  12   4    7.60    2.40
   3 -13   4   15.00    3.20
   3 -13   4   15.20    6.70
  -3  13   4   12.20    2.70
  -3  13  -4    7.80    3.30
   2 -14   4   37.10    9.90
   2 -14   4   40.40    5.50
  -2  14   4   41.00    5.20
  -2  14  -4   56.09    6.00
  -1  15   4   71.99    7.10
  -1  15  -4   81.09    7.90
   0  16   4    2.00    2.50
   0  16  -4    1.60    3.70
   1  17   4    4.10    3.60
   1  17  -4    5.40    4.80
   2  18  -4   37.50    5.00
   3  19  -4   10.90    3.90
  -9   7   5   15.40    2.90
  -8   8   5    3.10    2.20
  -7   9   5    1.00    2.20
  -6  10   5    3.80    2.40
   6 -10   5    0.80    7.80
   5 -11   5    4.20    7.40
  -5  11   5    5.20    2.30
  -4  12   5   28.10    3.40
   4 -12   5   41.10    4.20
   4 -12   5   11.10    8.50
   3 -13   5   11.50    2.90
  -3  13   5    6.50    2.60
   3 -13   5   12.00    7.60
  -3  13  -5   11.50    3.50
   2 -14   5   15.70   12.10
  -2  14   5    2.50    2.50
   2 -14   5    1.90    2.50
  -2  14  -5    2.60    3.50
   1 -15   5   13.10    3.90
  -1  15   5    5.30    2.60
  -1  15  -5   10.20    3.80
   0  16   5    3.00    2.60
   0  16  -5    6.50    4.20
   1  17   5   -1.00    2.00
   1  17  -5   -1.10    3.80
   2  18  -5    5.60    3.60
  -7   9   6    7.60    2.20
  -6  10   6    6.00    2.20
   6 -10   6    3.70    3.10
  -5  11   6   21.20    2.90
   5 -11   6   22.50    3.70
   5 -11   6   10.20   11.50
   4 -12   6   -5.30    2.70
   4 -12   6    2.40    8.00
  -4  12   6    2.00    2.30
   3 -13   6   17.50    8.40
   3 -13   6    4.50    2.60
  -3  13   6   -0.70    2.40
  -3  13  -6   -2.70    3.30
   2 -14   6    7.10    2.50
  -2  14   6    5.50    2.50
  -2  14  -6    9.40    3.80
   1 -15   6   17.20    2.90
  -1  15   6   13.30    2.60
  -1  15  -6   23.50    4.20
   0  16   6    4.40    2.00
   0  16  -6    3.80    3.80
   1  17  -6    0.10    3.70
  -6  10   7    2.60    2.30
   6 -10   7    5.90    3.00
   5 -11   7    3.60    2.80
  -5  11   7    1.70    2.10
   4 -12   7   -2.50    2.30
  -4  12   7   -1.70    2.20
  -3  13   7    2.10    2.10
   3 -13   7    3.50    2.40
  -3  13  -7   -2.30    4.60
   2 -14   7    2.50    3.10
  -2  14   7    1.50    2.10
  -2  14  -7    1.90    4.20
   1 -15   7    2.20    2.90
  -1  15  -7   11.50    5.30
  -6  12   0   15.80    3.30
  -5  13   0    9.50    2.80
  -4  14   0  154.48   12.60
  -3  15   0   21.30    3.30
  -3  15   0   20.30    3.70
  -2  16   0    2.10    2.80
  -2  16   0    2.70    2.80
  -1  17   0    3.20    2.90
  -1  17   0    3.40    2.80
   0  18   0  195.88   17.00
   0  18   0  233.88   17.20
   1  19   0   12.70    3.60
   1  19   0   16.60    3.80
   2  20   0   18.30    3.60
   2  20   0   10.50    3.70
   3  21   0   19.50    3.50
  -7  11   1   80.99    7.90
  -6  12   1    2.90    2.60
  -6  12  -1    2.80    3.10
  -5  13   1   12.70    2.70
  -5  13  -1    8.10    3.00
  -4  14   1   32.60    3.70
  -4  14  -1   32.70    4.00
  -3  15   1    4.90    2.50
  -3  15  -1    1.60    3.10
  -3  15  -1    6.30    2.80
  -2  16   1   10.60    2.90
  -2  16  -1   15.50    3.10
  -2  16  -1   15.90    3.60
  -1  17   1   -2.30    2.70
  -1  17  -1    1.60    3.30
  -1  17  -1    4.50    2.90
   0  18   1  121.79   10.60
   0  18  -1  143.19   11.20
   0  18  -1  111.09   10.60
   1  19   1    3.30    3.00
   1  19  -1    1.50    3.30
   1  19  -1    5.20    3.70
   2  20   1   -4.40    2.70
   2  20  -1    6.00    3.50
   2  20  -1    1.60    3.50
   3  21  -1    2.30    3.10
   3  21  -1   -2.60    3.30
  -7  11   2   96.89    8.70
  -6  12   2   31.30    4.00
  -6  12  -2   50.99    4.90
  -5  13   2    2.50    2.30
  -5  13  -2    1.00    3.20
  -4  14   2   28.10    3.60
  -4  14  -2   39.20    4.40
  -3  15   2   12.40    2.70
  -3  15  -2   11.30    2.90
  -2  16   2    1.30    2.50
  -2  16  -2    1.90    2.80
  -1  17   2    4.30    2.70
  -1  17  -2    4.00    3.00
   0  18   2   50.09    6.10
   0  18  -2   58.69    6.40
   1  19  -2    7.10    7.60
   2  20   2    2.70    2.40
   2  20  -2   -0.20    3.70
   2  20  -2    2.80    3.50
   3  21  -2   13.80    4.20
   3  21  -2    6.30    3.50
  -7  11   3   46.10    5.50
  -6  12   3   55.59    5.90
  -5  13   3    1.70    2.40
  -5  13  -3    2.90    3.40
  -4  14   3    2.90    2.40
  -3  15   3   13.50    2.80
  -3  15  -3   16.60    3.40
  -2  16   3    0.30    2.50
  -2  16  -3    0.20    3.10
  -1  17   3    3.80    2.60
  -1  17  -3    3.80    3.20
   0  18   3   12.70    2.90
   0  18  -3   11.70    3.70
   1  19   3    5.90    2.50
   1  19  -3    6.70    3.50
   2  20  -3    2.50    3.50
   3  21  -3    3.50    4.70
  -8  10   4   18.10    3.00
  -6  12   4  111.19    8.50
   6 -12   4   76.59   13.70
  -5  13   4    5.90    2.60
   5 -13   4   10.90    3.20
  -4  14   4    6.60    2.60
  -3  15   4   22.10    3.30
  -3  15  -4   23.70    4.10
  -2  16   4   13.50    2.90
  -2  16  -4   11.50    3.70
  -1  17  -4   -1.80    5.00
   0  18   4    9.60    2.60
   0  18  -4    9.70    3.70
   1  19   4    8.30    2.30
   1  19  -4    7.10    3.50
   2  20  -4    0.30    3.40
  -8  10   5    0.60    2.20
  -7  11   5    2.70    2.30
  -6  12   5   11.30    2.60
   6 -12   5   14.70    3.50
   5 -13   5    3.00    2.90
  -5  13   5    1.70    2.40
   4 -14   5   -0.60    2.70
  -4  14   5   -0.90    2.50
  -3  15   5    2.00    2.50
  -3  15  -5   -0.50    3.80
  -2  16   5    2.50    2.50
  -2  16  -5    2.00    3.60
  -1  17   5   -1.20    2.40
  -1  17  -5    6.30    3.50
   0  18   5    1.60    2.10
   0  18  -5    2.50    3.50
   1  19  -5   -1.10    3.30
  -7  11   6   12.50    2.50
   7 -11   6   12.40    3.30
   6 -12   6   11.80    3.30
  -6  12   6   10.70    2.40
  -5  13   6    4.10    2.20
   5 -13   6    2.70    2.50
  -4  14   6    3.50    2.40
   4 -14   6   -3.60    2.20
  -3  15   6    3.30    2.40
  -3  15  -6   10.90    3.60
  -2  16   6    3.20    2.30
  -2  16  -6    1.50    3.70
  -1  17   6    1.80    2.00
  -1  17  -6    1.90    3.60
  -7  13   0   12.20    3.50
  -6  14   0   74.69    7.60
  -5  15   0  125.59   10.80
  -4  16   0    2.20    2.90
  -3  17   0   21.20    3.50
  -2  18   0   62.79    6.50
  -2  18   0   45.90    5.80
  -1  19   0    9.70    3.20
  -1  19   0   10.50    3.40
   0  20   0   32.90    4.60
   0  20   0   38.40    4.60
   1  21   0   14.30    3.40
   1  21   0   13.50    3.50
   2  22   0   80.89    8.50
  -7  13   1    8.50    3.20
  -6  14   1   22.30    3.50
  -6  14  -1   26.10    4.00
  -5  15   1   21.80    3.50
  -5  15  -1   31.50    3.90
  -4  16   1    2.30    2.70
  -4  16  -1    1.80    3.20
  -3  17   1    2.00    2.80
  -3  17  -1    2.20    2.90
  -3  17  -1    5.10    3.30
  -2  18   1   22.10    3.50
  -2  18  -1   25.50    4.10
  -2  18  -1   17.50    3.40
  -1  19   1    6.00    3.00
  -1  19  -1    4.70    3.60
  -1  19  -1    1.40    3.00
   0  20   1   87.39    8.20
   0  20  -1   72.69    8.30
   0  20  -1  105.69    8.70
   1  21   1    2.40    2.70
   1  21  -1    2.20    3.40
   1  21  -1    0.70    3.40
   2  22  -1   18.20    3.60
   2  22  -1   21.70    4.00
  -8  12   2   26.50    4.10
  -7  13   2   -0.20    2.80
  -6  14   2   42.20    4.70
  -6  14  -2   51.69    5.20
  -5  15   2   43.60    5.50
  -5  15  -2   48.10    5.20
  -4  16   2    1.40    2.60
  -4  16  -2    5.60    3.40
  -3  17   2    9.20    2.80
  -3  17  -2    7.00    3.80
  -3  17  -2    2.90    3.00
  -2  18   2   35.40    4.20
  -2  18  -2   34.70    4.60
  -2  18  -2   61.69    6.90
  -1  19  -2    2.00    4.70
   0  20   2    3.90    2.70
   0  20  -2    5.70    3.40
   0  20  -2    5.30    4.00
   1  21   2    5.00    2.50
   1  21  -2    9.70    3.70
   1  21  -2    4.70    3.30
   2  22   2   28.00    3.20
   2  22  -2   24.00    4.10
   2  22  -2   46.70    6.50
  -8  12   3    4.70    2.80
  -7  13   3   -0.30    2.80
  -6  14   3   28.60    4.10
  -5  15   3    6.00    2.80
  -5  15  -3    9.00    3.60
  -4  16   3    5.00    2.70
  -4  16  -3   -1.40    3.70
  -3  17   3    3.40    2.60
  -3  17  -3   -1.00    3.00
  -1  19   3    2.40    2.60
  -1  19  -3    2.90    3.40
   0  20   3    1.00    2.50
   0  20  -3   -2.40    3.30
   0  20  -3    9.90    4.20
   1  21   3   -5.10    3.80
   1  21  -3    2.10    3.20
   1  21  -3    0.70    3.80
  -8  12   4   14.20    2.80
  -7  13   4    5.90    2.50
  -6  14   4   46.00    5.30
  -5  15   4   21.90    3.20
  -5  15  -4   16.10    4.10
  -4  16   4   11.20    2.80
  -3  17   4    7.30    2.60
  -3  17  -4    2.00    3.20
  -2  18   4   25.60    3.60
  -2  18  -4   36.80    4.70
  -1  19   4   10.20    2.60
  -1  19  -4    9.70    3.60
   0  20   4    5.70    2.20
   0  20  -4    5.20    3.40
  -7  13   5   -1.20    2.10
  -6  14   5    4.80    2.30
  -5  15   5   -1.40    2.20
  -5  15  -5    0.70    3.50
  -4  16   5   -0.90    2.30
  -3  17   5   -0.80    2.40
  -3  17  -5    1.00    3.30
  -2  18   5    6.50    2.40
  -2  18  -5    6.10    3.60
  -1  19   5   -3.30    3.20
  -1  19  -5   -2.70    4.90
  -4  16   6    5.10    3.40
  -7  15   0  160.58   13.30
  -5  17   0    6.60    3.70
  -3  19   0   93.69   11.40
  -2  20   0   21.80    3.80
  -1  21   0   13.70    3.50
   0  22   0   10.40    3.20
  -7  15   1   67.99    7.10
  -6  16   1    1.80    5.00
  -3  19   1   39.30    4.70
  -3  19  -1   44.10    5.40
  -2  20   1    3.40    2.90
  -2  20  -1   -3.20    3.40
  -2  20  -1    4.20    2.90
  -1  21   1    6.60    2.90
  -1  21  -1    5.40    3.50
  -1  21  -1    1.20    3.10
   0  22   1   -0.60    2.60
   0  22  -1   -2.60    3.30
   0  22  -1    0.50    3.00
  -8  14   2   18.30    3.20
  -7  15   2   83.79    7.90
  -6  16   2    2.80    2.70
  -6  16  -2   -1.10    3.10
  -5  17   2    1.40    2.60
  -5  17  -2   -2.40    3.20
  -4  18   2   23.40    3.40
  -4  18  -2   27.60    4.30
  -3  19   2   31.00    3.80
  -3  19  -2   29.60    4.20
  -3  19  -2   40.30    4.90
  -2  20   2   -1.20    2.70
  -2  20  -2    2.70    3.90
  -2  20  -2   -1.60    3.10
  -1  21   2    7.60    2.70
  -1  21  -2    4.30    3.30
  -1  21  -2    7.50    3.80
   0  22   2    9.30    2.90
   0  22  -2   15.00    3.60
   0  22  -2   16.40    3.70
  -8  14   3    4.10    2.60
  -7  15   3   44.10    5.30
  -6  16   3    1.50    2.50
  -6  16  -3   -8.20    2.90
  -5  17   3   -1.90    2.50
  -5  17  -3    1.60    3.40
  -4  18   3    9.70    2.80
  -4  18  -3   15.60    3.90
  -3  19   3   11.40    2.80
  -3  19  -3    3.70    3.00
  -3  19  -3   19.00    4.20
  -2  20   3    4.40    2.50
  -2  20  -3    4.10    4.20
  -2  20  -3    5.00    3.20
  -1  21   3    3.40    2.40
  -1  21  -3   -0.70    3.00
  -1  21  -3    1.00    3.90
  -7  15   4   42.40    4.80
  -6  16   4    2.30    2.30
  -5  17   4    3.30    2.40
  -5  17  -4    5.50    3.50
  -4  18   4   17.00    2.90
  -4  18  -4   20.00    4.30
  -3  19   4   14.10    2.80
  -3  19  -4   17.10    4.80
  -3  19  -4   18.70    4.40
  -2  20   4    2.60    2.30
  -2  20  -4    2.70    4.10
  -7  17   0    7.60    2.70
  -6  18   0   53.99    6.00
  -5  19   0   36.00    4.10
  -4  20   0    0.10    2.90
  -3  21   0   20.90    3.50
  -2  22   0  107.19    9.50
  -7  17   1    1.20    2.60
  -7  17  -1   -0.50    2.50
  -6  18   1   19.00    3.00
  -6  18  -1   20.80    3.40
  -5  19   1    6.30    2.70
  -5  19  -1    4.50    3.00
  -4  20   1    3.60    2.70
  -4  20  -1    6.60    3.20
  -3  21   1    0.90    2.60
  -3  21  -1    1.70    3.20
  -2  22   1   19.10    3.20
  -2  22  -1   25.80    3.80
  -8  16   2    0.40    2.30
  -7  17   2    3.20    2.40
  -6  18   2   27.20    3.30
  -6  18  -2   21.50    3.50
  -5  19   2   19.70    3.10
  -5  19  -2   23.60    3.60
  -4  20   2    3.80    2.50
  -4  20  -2    1.90    3.20
  -3  21   2   11.60    2.70
  -3  21  -2   10.90    3.60
  -2  22   2   31.50    4.10
  -2  22  -2   36.00    4.70
  -6  18   3    9.70    2.40
  -6  18  -3    4.90    4.40
  -5  19   3    3.70    2.30
  -5  19  -3    7.90    3.90
  -4  20   3    3.40    2.40
  -4  20  -3   -3.00    3.40
  -3  21   3    1.10    3.90
   0   0   0    0.00    0.00

_computing_structure_solution     'SHELXT 2014/5 (Sheldrick, 2014)'
;
_shelx_hkl_checksum              16459
_olex2_submission_special_instructions 'No special instructions were received'
loop_
_space_group_symop_operation_xyz
'x, y, z'
'-x, -y, z'
'-x, y, -z'
'x, -y, -z'
'x+1/2, y+1/2, z'
'-x+1/2, -y+1/2, z'
'-x+1/2, y+1/2, -z'
'x+1/2, -y+1/2, -z'
'-x, -y, -z'
'x, y, -z'
'x, -y, z'
'-x, y, z'
'-x+1/2, -y+1/2, -z'
'x+1/2, y+1/2, -z'
'x+1/2, -y+1/2, z'
'-x+1/2, y+1/2, z'
loop_
_atom_site_label
_atom_site_type_symbol
_atom_site_fract_x
_atom_site_fract_y
_atom_site_fract_z
_atom_site_U_iso_or_equiv
_atom_site_adp_type
_atom_site_occupancy
_atom_site_site_symmetry_order
_atom_site_calc_flag
_atom_site_refinement_flags_posn
_atom_site_refinement_flags_adp
_atom_site_refinement_flags_occupancy
_atom_site_disorder_assembly
_atom_site_disorder_group
C1 C 0.1362(6) 0.3345(3) 0.500000 0.0529(15) Uani 1 2 d S T P . .
C6 C 0.5739(16) 0.9400(9) 0.000000 0.105(6) Uani 0.5 2 d S TU P A 1
H6 H 0.661904 0.942365 0.000000 0.126 Uiso 0.5 2 d RS T P A 1
C2 C 0.2347(8) 0.3310(4) 0.3744(11) 0.052(2) Uani 0.5 1 d . . . B 1
H2 H 0.229010 0.297243 0.286024 0.062 Uiso 0.5 1 calc R . . B 1
C3 C 0.3408(8) 0.3778(5) 0.3813(11) 0.050(2) Uani 0.5 1 d . . . B 1
H3 H 0.408616 0.374969 0.296071 0.060 Uiso 0.5 1 calc R . . B 1
Cu1 Cu 0.500000 0.500000 0.500000 0.0423(6) Uani 1 8 d S T P B .
F1 F 0.500000 0.500000 0.7861(6) 0.0620(14) Uani 1 4 d S TU P B .
N1 N 0.3536(4) 0.4266(3) 0.500000 0.0439(11) Uani 1 2 d S T P . .
O1 O 0.500000 0.8029(7) 0.000000 0.135(4) Uani 1 4 d S TU P . .
H1 H 0.580110 0.819055 0.000000 0.161 Uiso 1 2 d RS T P . .
O2 O 0.675570 0.703470 0.000000 0.122 Uani 0.5 2 d S TU P . .
H2A H 0.597040 0.723820 0.000000 0.147 Uiso 0.5 2 d RS T P . .
H2B H 0.663340 0.660620 0.000000 0.147 Uiso 0.5 2 d RS T P . .
S1 S 0.000000 0.27367(12) 0.500000 0.0679(8) Uani 1 4 d S T P B .
Si1 Si 0.500000 0.500000 1.000000 0.0436(8) Uani 1 8 d S T P . .
C4 C 0.2564(8) 0.4287(5) 0.6246(10) 0.0506(19) Uani 0.5 1 d . . . B -1
H4 H 0.265218 0.462383 0.712898 0.061 Uiso 0.5 1 calc R . . B -1
C5 C 0.1482(9) 0.3848(5) 0.6270(12) 0.058(2) Uani 0.5 1 d . . . B -1
H5 H 0.081867 0.388307 0.713884 0.069 Uiso 0.5 1 calc R . . B -1
F4 F 0.6673(9) 0.500000 1.000000 0.071(3) Uani 0.5 4 d S TU P C 3
F2 F 0.500000 0.5865(6) 1.000000 0.078(3) Uani 0.5 4 d S TU P C 1
F3 F 0.6182(15) 0.5593(8) 1.000000 0.131(4) Uani 0.5 2 d S TU P C 2
loop_
_atom_site_aniso_label
_atom_site_aniso_U_11
_atom_site_aniso_U_22
_atom_site_aniso_U_33
_atom_site_aniso_U_23
_atom_site_aniso_U_13
_atom_site_aniso_U_12
C1 0.023(3) 0.042(3) 0.093(4) 0.000 0.000 0.002(2)
C6 0.055(9) 0.077(10) 0.182(15) 0.000 0.000 0.007(8)
C2 0.035(4) 0.038(4) 0.083(6) -0.008(4) -0.005(4) 0.003(3)
C3 0.023(4) 0.060(5) 0.067(5) -0.007(4) 0.001(3) 0.003(3)
Cu1 0.0207(8) 0.0443(10) 0.0620(10) 0.000 0.000 0.000
F1 0.041(3) 0.084(4) 0.060(3) 0.000 0.000 0.000
N1 0.027(2) 0.045(3) 0.060(3) 0.000 0.000 0.002(2)
O1 0.121(8) 0.143(9) 0.139(8) 0.000 0.000 0.000
O2 0.133 0.100 0.134 0.000 0.000 0.001
S1 0.0244(11) 0.0402(12) 0.139(2) 0.000 0.000 0.000
Si1 0.0261(15) 0.0491(18) 0.0555(16) 0.000 0.000 0.000
C4 0.031(4) 0.054(5) 0.067(5) -0.001(4) 0.005(3) -0.004(4)
C5 0.031(4) 0.069(5) 0.073(5) -0.004(4) 0.005(4) -0.011(4)
F4 0.020(4) 0.133(10) 0.061(5) 0.000 0.000 0.000
F2 0.121(10) 0.044(6) 0.071(6) 0.000 0.000 0.000
F3 0.144(9) 0.150(9) 0.100(6) 0.000 0.000 -0.088(7)
loop_
_atom_type_symbol
_atom_type_description
_atom_type_scat_dispersion_real
_atom_type_scat_dispersion_imag
_atom_type_scat_source
C C 0.0148 0.0070 'International Tables Vol C Tables 4.2.6.8 and 6.1.1.4'
H H 0.0000 0.0000 'International Tables Vol C Tables 4.2.6.8 and 6.1.1.4'
Cu Cu -2.9170 3.6935 'International Tables Vol C Tables 4.2.6.8 and 6.1.1.4'
F F 0.0583 0.0400 'International Tables Vol C Tables 4.2.6.8 and 6.1.1.4'
N N 0.0253 0.0136 'International Tables Vol C Tables 4.2.6.8 and 6.1.1.4'
O O 0.0412 0.0250 'International Tables Vol C Tables 4.2.6.8 and 6.1.1.4'
S S 0.2924 0.4247 'International Tables Vol C Tables 4.2.6.8 and 6.1.1.4'
Si Si 0.2148 0.2488 'International Tables Vol C Tables 4.2.6.8 and 6.1.1.4'
loop_
_geom_angle_atom_site_label_1
_geom_angle_atom_site_label_2
_geom_angle_atom_site_label_3
_geom_angle
_geom_angle_site_symmetry_1
_geom_angle_site_symmetry_3
_geom_angle_publ_flag
C2 C1 C2 90.8(8) 10_556 . ?
C2 C1 S1 120.0(4) 10_556 . ?
C2 C1 S1 120.0(4) . . ?
C2 C1 C5 57.4(6) 10_556 . ?
C2 C1 C5 119.1(7) . . ?
C5 C1 S1 120.9(4) . . ?
C6 C6 H6 177.1 3_655 . ?
C1 C2 H2 120.9 . . ?
C3 C2 C1 118.3(7) . . ?
C3 C2 H2 120.9 . . ?
C2 C3 H3 118.1 . . ?
N1 C3 C2 123.7(7) . . ?
N1 C3 H3 118.1 . . ?
F1 Cu1 F1 180.0 . 9_666 ?
N1 Cu1 F1 90.000(1) . 9_666 ?
N1 Cu1 F1 90.0 3_656 . ?
N1 Cu1 F1 90.000(1) . . ?
N1 Cu1 F1 90.000(1) 9_666 9_666 ?
N1 Cu1 F1 90.0 11_565 9_666 ?
N1 Cu1 F1 90.0 3_656 9_666 ?
N1 Cu1 F1 90.0 11_565 . ?
N1 Cu1 F1 90.000(1) 9_666 . ?
N1 Cu1 N1 88.1(3) 9_666 3_656 ?
N1 Cu1 N1 88.1(3) 11_565 . ?
N1 Cu1 N1 91.9(3) 3_656 . ?
N1 Cu1 N1 180.0 11_565 3_656 ?
N1 Cu1 N1 91.9(3) 9_666 11_565 ?
N1 Cu1 N1 180.0 9_666 . ?
Si1 F1 Cu1 180.0 . . ?
C3 N1 C3 89.8(8) . 10_556 ?
C3 N1 Cu1 123.8(4) 10_556 . ?
C3 N1 Cu1 123.8(4) . . ?
C3 N1 C4 117.3(6) . . ?
C3 N1 C4 56.6(5) 10_556 . ?
C4 N1 Cu1 118.8(4) . . ?
H1 O1 H1 137.4 . 3_655 ?
H2A O2 H2B 108.1 . . ?
C1 S1 C1 98.5(4) . 3_556 ?
F1 Si1 F1 180.0 9_667 . ?
F4 Si1 F1 90.000(1) . . ?
F4 Si1 F1 90.000(1) 9_667 . ?
F4 Si1 F4 180.0 9_667 . ?
F2 Si1 F1 90.0 9_667 . ?
F2 Si1 F1 90.000(1) 9_667 9_667 ?
F2 Si1 F1 90.0 . . ?
F2 Si1 F1 90.000(1) . 9_667 ?
F2 Si1 F4 90.000(3) 9_667 9_667 ?
F2 Si1 F4 90.000(2) . 9_667 ?
F2 Si1 F2 180.0 . 9_667 ?
F3 Si1 F1 90.000(1) 11_565 . ?
F3 Si1 F1 90.000(1) 3_657 . ?
F3 Si1 F1 90.000(2) . . ?
F3 Si1 F1 90.000(1) 9_667 . ?
F3 Si1 F3 88.1(13) 11_565 . ?
F3 Si1 F3 180.0 9_667 . ?
F3 Si1 F3 91.9(13) 3_657 . ?
F3 Si1 F3 91.9(13) 9_667 11_565 ?
N1 C4 H4 118.6 . . ?
C5 C4 N1 122.8(7) . . ?
C5 C4 H4 118.6 . . ?
C1 C5 H5 120.6 . . ?
C4 C5 C1 118.8(7) . . ?
C4 C5 H5 120.6 . . ?
loop_
_geom_bond_atom_site_label_1
_geom_bond_atom_site_label_2
_geom_bond_distance
_geom_bond_site_symmetry_2
_geom_bond_publ_flag
C1 C2 1.389(9) 10_556 ?
C1 C2 1.389(9) . ?
C1 S1 1.777(6) . ?
C1 C5 1.390(10) . ?
C6 C6 1.46(3) 3_655 ?
C6 H6 0.8706 . ?
C2 H2 0.9500 . ?
C2 C3 1.378(12) . ?
C3 H3 0.9500 . ?
C3 N1 1.325(9) . ?
Cu1 F1 2.253(5) . ?
Cu1 F1 2.253(5) 9_666 ?
Cu1 N1 2.012(5) 3_656 ?
Cu1 N1 2.012(5) . ?
Cu1 N1 2.012(5) 9_666 ?
Cu1 N1 2.012(5) 11_565 ?
F1 Si1 1.685(5) . ?
N1 C4 1.374(8) . ?
O1 H1 0.8496 . ?
O1 H1 0.8495 3_655 ?
O2 H2A 0.8676 . ?
O2 H2B 0.8257 . ?
Si1 F4 1.653(9) 9_667 ?
Si1 F4 1.653(9) . ?
Si1 F2 1.648(11) 9_667 ?
Si1 F2 1.648(11) . ?
Si1 F3 1.626(11) . ?
Si1 F3 1.626(11) 11_565 ?
Si1 F3 1.626(11) 9_667 ?
Si1 F3 1.626(11) 3_657 ?
C4 H4 0.9500 . ?
C4 C5 1.359(12) . ?
C5 H5 0.9500 . ?
