#------------------------------------------------------------------------------
#$Date: 2020-02-12 01:54:15 +0200 (Wed, 12 Feb 2020) $
#$Revision: 248052 $
#$URL: file:///home/coder/svn-repositories/cod/cif/4/13/41/4134163.cif $
#------------------------------------------------------------------------------
#
# This file is available in the Crystallography Open Database (COD),
# http://www.crystallography.net/
#
# All data on this site have been placed in the public domain by the
# contributors.
#
data_4134163
loop_
_publ_author_name
'Hou, Jingwei'
'Rios, Laura'
'Krajnc, Andra\<z'
'McCaul, Aoife'
'Li, Shichun'
'Bumstead, Alice'
'Sapnik, Adam'
'Deng, Zeyu'
'Lin, Rijia'
'Chater, Philip A.'
'Keeble, Dean S.'
'Keen, David A.'
'Appadoo, Dominique'
'Chan, Bun'
'Chen, Vicki'
'Mali, Gregor'
'Bennett, Thomas D.'
_publ_section_title
;
 Halogenated Metal-Organic Framework Glasses and Liquids.
;
_journal_name_full               'Journal of the American Chemical Society'
_journal_paper_doi               10.1021/jacs.9b11639
_journal_year                    2020
_chemical_formula_moiety
'C14.27 H12 Cl0.57 N8 Zn2, 0.389(C3 H7 O1 N1)'
_chemical_formula_sum            'C15.44 H14.73 Cl0.57 N8.39 O0.39 Zn2'
_chemical_formula_weight         475.04
_chemical_melting_point          '705 K (onset)'
_chemical_name_common            ZIF-UC-5
_chemical_name_systematic        Zn(Im)1.72(ClbIm)0.28
_space_group_crystal_system      orthorhombic
_space_group_IT_number           61
_space_group_name_Hall           '-P 2ac 2ab'
_space_group_name_H-M_alt        'P b c a'
_symmetry_cell_setting           orthorhombic
_symmetry_space_group_name_H-M   'P b c a'
_atom_sites_solution_hydrogens   geom
_audit_creation_method           SHELXL-2018/3
_cell_angle_alpha                90
_cell_angle_beta                 90
_cell_angle_gamma                90
_cell_formula_units_Z            8
_cell_length_a                   15.7260(8)
_cell_length_b                   16.0184(11)
_cell_length_c                   18.1617(10)
_cell_measurement_reflns_used    2119
_cell_measurement_temperature    293(2)
_cell_measurement_theta_max      63.0470
_cell_measurement_theta_min      4.6300
_cell_volume                     4575.0(5)
_computing_cell_refinement
;
CrysAlisPro, Agilent Technologies,
Version 1.171.37.34i (release 04-08-2014 CrysAlis171 .NET)
(compiled Aug  4 2014,14:34:23)
;
_computing_data_collection
;
CrysAlisPro, Agilent Technologies,
Version 1.171.37.34i (release 04-08-2014 CrysAlis171 .NET)
(compiled Aug  4 2014,14:34:23)
;
_computing_data_reduction
;
CrysAlisPro, Agilent Technologies,
Version 1.171.37.34i (release 04-08-2014 CrysAlis171 .NET)
(compiled Aug  4 2014,14:34:23)
;
_computing_structure_refinement  'SHELXL-2018/3 (Sheldrick, 2018)'
_computing_structure_solution    'SUPERFLIP (Palatinus & Chapuis, 2007)'
_diffrn_ambient_temperature      293(2)
_diffrn_detector                 'CCD plate'
_diffrn_detector_area_resol_mean 16.1183
_diffrn_detector_type            Eos
_diffrn_measured_fraction_theta_full 0.9290
_diffrn_measured_fraction_theta_max 0.9958
_diffrn_measurement_details
;
#__ type_ start__ end____ width___ exp.time_
  1 omega   13.00  130.00   1.0000   57.5950
omega____ theta____ kappa____ phi______ frames
    -       51.2500   30.0000   30.0000 117

#__ type_ start__ end____ width___ exp.time_
  2 omega  121.00  168.00   1.0000   57.5950
omega____ theta____ kappa____ phi______ frames
    -      102.5000  -21.0000  -30.0000 47

#__ type_ start__ end____ width___ exp.time_
  3 omega  132.00  166.00   1.0000   57.5950
omega____ theta____ kappa____ phi______ frames
    -      102.5000  -21.0000 -150.0000 34

#__ type_ start__ end____ width___ exp.time_
  4 omega   87.00  114.00   1.0000   57.5950
omega____ theta____ kappa____ phi______ frames
    -      102.5000  -89.0000   30.0000 27

#__ type_ start__ end____ width___ exp.time_
  5 omega   55.00   86.00   1.0000   57.5950
omega____ theta____ kappa____ phi______ frames
    -      102.5000 -104.0000  -90.0000 31

#__ type_ start__ end____ width___ exp.time_
  6 omega   46.00   84.00   1.0000   57.5950
omega____ theta____ kappa____ phi______ frames
    -      102.5000 -104.0000 -150.0000 38

#__ type_ start__ end____ width___ exp.time_
  7 omega   25.00   75.00   1.0000   57.5950
omega____ theta____ kappa____ phi______ frames
    -      102.5000  -43.0000 -180.0000 50

#__ type_ start__ end____ width___ exp.time_
  8 omega   28.00   83.00   1.0000   57.5950
omega____ theta____ kappa____ phi______ frames
    -      102.5000  -54.0000 -120.0000 55

#__ type_ start__ end____ width___ exp.time_
  9 omega   39.00   85.00   1.0000   57.5950
omega____ theta____ kappa____ phi______ frames
    -      102.5000 -104.0000    0.0000 46

#__ type_ start__ end____ width___ exp.time_
 10 omega   36.00   76.00   1.0000   57.5950
omega____ theta____ kappa____ phi______ frames
    -      102.5000  -89.0000   30.0000 40

#__ type_ start__ end____ width___ exp.time_
 11 omega   47.00   79.00   1.0000   57.5950
omega____ theta____ kappa____ phi______ frames
    -      102.5000 -104.0000  120.0000 32

#__ type_ start__ end____ width___ exp.time_
 12 omega   40.00   67.00   1.0000   57.5950
omega____ theta____ kappa____ phi______ frames
    -      102.5000 -104.0000  150.0000 27

#__ type_ start__ end____ width___ exp.time_
 13 omega   26.00   93.00   1.0000   57.5950
omega____ theta____ kappa____ phi______ frames
    -      102.5000 -120.0000   95.0000 67

#__ type_ start__ end____ width___ exp.time_
 14 omega  147.00  175.00   1.0000   57.5950
omega____ theta____ kappa____ phi______ frames
    -      102.5000  -22.0000  168.0000 28

#__ type_ start__ end____ width___ exp.time_
 15 omega   53.00   84.00   1.0000   14.4000
omega____ theta____ kappa____ phi______ frames
    -        0.0000  178.0000  120.0000 31

#__ type_ start__ end____ width___ exp.time_
 16 omega   99.00  127.00   1.0000   57.5950
omega____ theta____ kappa____ phi______ frames
    -       51.2500  125.0000 -120.0000 28

#__ type_ start__ end____ width___ exp.time_
 17 omega   13.00   69.00   1.0000   14.4000
omega____ theta____ kappa____ phi______ frames
    -        0.0000   57.0000 -150.0000 56

#__ type_ start__ end____ width___ exp.time_
 18 omega  -27.00   -2.00   1.0000   14.4000
omega____ theta____ kappa____ phi______ frames
    -        0.0000   57.0000 -150.0000 25

#__ type_ start__ end____ width___ exp.time_
 19 omega   22.00   52.00   1.0000   57.5950
omega____ theta____ kappa____ phi______ frames
    -      102.5000 -104.0000  -90.0000 30

#__ type_ start__ end____ width___ exp.time_
 20 omega   23.00   52.00   1.0000   57.5950
omega____ theta____ kappa____ phi______ frames
    -      102.5000  -32.0000 -120.0000 29

#__ type_ start__ end____ width___ exp.time_
 21 omega   21.00   65.00   1.0000   57.5950
omega____ theta____ kappa____ phi______ frames
    -      102.5000  -32.0000   30.0000 44

#__ type_ start__ end____ width___ exp.time_
 22 omega   15.00   76.00   1.0000   57.5950
omega____ theta____ kappa____ phi______ frames
    -       51.2500 -125.0000   90.0000 61
;
_diffrn_measurement_device       'four-circle diffractometer'
_diffrn_measurement_device_type  'Xcalibur, Eos, Gemini ultra'
_diffrn_measurement_method       '\w scans'
_diffrn_orient_matrix_UB_11      -0.0712532000
_diffrn_orient_matrix_UB_12      -0.0654909000
_diffrn_orient_matrix_UB_13      0.0076088000
_diffrn_orient_matrix_UB_21      0.0661183000
_diffrn_orient_matrix_UB_22      -0.0661070000
_diffrn_orient_matrix_UB_23      0.0226833000
_diffrn_orient_matrix_UB_31      -0.0118116000
_diffrn_orient_matrix_UB_32      0.0243753000
_diffrn_orient_matrix_UB_33      0.0814018000
_diffrn_radiation_monochromator  mirror
_diffrn_radiation_type           CuK\a
_diffrn_radiation_wavelength     1.54184
_diffrn_reflns_av_R_equivalents  0.0265
_diffrn_reflns_av_sigmaI/netI    0.0372
_diffrn_reflns_av_unetI/netI     0.0220
_diffrn_reflns_Laue_measured_fraction_full 0.997
_diffrn_reflns_Laue_measured_fraction_max 0.996
_diffrn_reflns_limit_h_max       18
_diffrn_reflns_limit_h_min       -17
_diffrn_reflns_limit_k_max       18
_diffrn_reflns_limit_k_min       -17
_diffrn_reflns_limit_l_max       21
_diffrn_reflns_limit_l_min       -8
_diffrn_reflns_number            11094
_diffrn_reflns_point_group_measured_fraction_full 0.997
_diffrn_reflns_point_group_measured_fraction_max 0.996
_diffrn_reflns_theta_full        66.9682
_diffrn_reflns_theta_max         64.0128
_diffrn_reflns_theta_min         2.4328
_diffrn_source                   'sealed X-ray tube'
_diffrn_source_type              'Enhance Ultra (Cu) X-ray Source'
_exptl_absorpt_coefficient_mu    3.33097
_exptl_absorpt_correction_T_max  1.00000
_exptl_absorpt_correction_T_min  0.95391
_exptl_absorpt_correction_type   multi-scan
_exptl_absorpt_process_details
;
CrysAlisPro, Agilent Technologies,
Version 1.171.37.34i (release 04-08-2014 CrysAlis171 .NET)
(compiled Aug  4 2014,14:34:23)
Empirical absorption correction using spherical harmonics,
 implemented in SCALE3 ABSPACK scaling algorithm.
;
_exptl_crystal_colour            white
_exptl_crystal_density_diffrn    1.375
_exptl_crystal_description       tetrahedral
_exptl_crystal_F_000             2125.60
_exptl_crystal_size_max          0.05
_exptl_crystal_size_mid          0.04
_exptl_crystal_size_min          0.03
_refine_diff_density_max         0.844
_refine_diff_density_min         -0.614
_refine_diff_density_rms         0.096
_refine_ls_extinction_method     none
_refine_ls_goodness_of_fit_ref   1.103
_refine_ls_hydrogen_treatment    constr
_refine_ls_matrix_type           full
_refine_ls_number_parameters     244
_refine_ls_number_reflns         3786
_refine_ls_number_restraints     8
_refine_ls_restrained_S_all      1.103
_refine_ls_R_factor_all          0.0872
_refine_ls_R_factor_gt           0.0646
_refine_ls_shift/su_max          0.001
_refine_ls_shift/su_mean         0.000
_refine_ls_structure_factor_coef Fsqd
_refine_ls_weighting_details
'w=1/[\s^2^(Fo^2^)+(0.1112P)^2^+4.3903P] where P=(Fo^2^+2Fc^2^)/3'
_refine_ls_weighting_scheme      calc
_refine_ls_wR_factor_gt          0.1888
_refine_ls_wR_factor_ref         0.2107
_reflns_Friedel_coverage         0.000
_reflns_number_gt                2684
_reflns_number_total             3786
_reflns_threshold_expression     'I > 2\s(I)'
_cod_data_source_file            ja9b11639_si_004.cif
_cod_data_source_block           shelx
_cod_database_code               4134163
_shelx_shelxl_version_number     2018/3
_shelx_space_group_comment
;
The symmetry employed for this shelxl refinement is uniquely defined
by the following loop, which should always be used as a source of
symmetry information in preference to the above space-group names.
They are only intended as comments.
;
_symmetry_space_group_name_h-m_alt 'P b c a'
_reflns_odcompleteness_completeness 92.90
_reflns_odcompleteness_theta     66.97
_reflns_odcompleteness_iscentric 1
_shelx_res_file
;
TITL CF solution in Pbca
    shelx.res
    created by SHELXL-2018/3 at 12:20:42 on 04-Sep-2019
CELL  1.54184  15.7260  16.0184  18.1617   90.000   90.000   90.000
ZERR     8.00   0.0008   0.0011   0.0010    0.000    0.000    0.000
LATT   1
SYMM  1/2 - X, - Y, 1/2 + Z
SYMM  1/2 + X, 1/2 - Y, - Z
SYMM  - X, 1/2 + Y, 1/2 - Z
SFAC  C    H    N    ZN   CL   O
UNIT  40 0 112 16 0 0
MERG   2
EXYZ  C9a C9b
EXYZ  C8a C8b
EADP  C9a C9b
EADP  C8a C8b
EXYZ  N7a N7b
EXYZ  N8a N8b
EADP  N7a N7b
EADP  N8a N8b
EADP  C14a C14b
FLAT  C14B N8B N7B C15B C16B C19 C20 C17 C18
EADP  O1S C1S N1S C2S C3S
DFIX  1.31 0.020 C14B N8B
DFIX  1.31 0.020 C14B N7B
FREE  C1S C3S
FREE  Cl1 C13
FMAP   2
PLAN   20
ACTA    50.00
L.S.  50
WGHT    0.111200    4.390300
FVAR       2.16821   0.39713   0.17123   0.38947
ZN1   4    0.309108    0.357233    0.098493    11.00000    0.05950    0.07635 =
         0.09475    0.00847   -0.00142   -0.00525
ZN2   4    0.495840    0.663873    0.182207    11.00000    0.06185    0.07624 =
         0.08666   -0.00082   -0.00905    0.00021
N2    3    0.448735    0.191429    0.222408    11.00000    0.08443    0.07754 =
         0.08702   -0.00380   -0.01640   -0.00061
N6    3    0.070706    0.259571    0.144718    11.00000    0.06057    0.07227 =
         0.09901    0.01008    0.00718    0.00197
N1    3    0.374554    0.261304    0.140203    11.00000    0.07579    0.08019 =
         0.08072    0.00103   -0.01071    0.00069
N5    3    0.186437    0.332419    0.113587    11.00000    0.05830    0.07461 =
         0.10686    0.01155    0.00341   -0.00145
N3    3    0.341165    0.458218    0.155348    11.00000    0.07381    0.08348 =
         0.10380    0.00301    0.01071   -0.00414
C4    1    0.400636    0.512537    0.140337    11.00000    0.07592    0.07936 =
         0.09028   -0.00364    0.00945   -0.01149
AFIX  43
H4    2    0.430190    0.511534    0.095992    11.00000   -1.20000
AFIX   0
N4    3    0.416325    0.568245    0.190893    11.00000    0.07547    0.07500 =
         0.09241   -0.00351    0.00446   -0.00376
C1    1    0.415129    0.262414    0.203455    11.00000    0.07859    0.07654 =
         0.09365   -0.00385   -0.01243    0.00084
AFIX  43
H1    2    0.419460    0.310156    0.232351    11.00000   -1.20000
AFIX   0
C7    1    0.155830    0.261854    0.139758    11.00000    0.06117    0.07485 =
         0.08788    0.00822   -0.00077    0.00273
AFIX  43
H7    2    0.190294    0.217371    0.153626    11.00000   -1.20000
AFIX   0
C3    1    0.426689    0.140053    0.166666    11.00000    0.15975    0.08241 =
         0.13362   -0.01476   -0.06302    0.02318
AFIX  43
H3    2    0.439419    0.083447    0.163820    11.00000   -1.20000
AFIX   0
C6    1    0.318243    0.480686    0.224704    11.00000    0.15855    0.12059 =
         0.14899   -0.03455    0.07886   -0.06537
AFIX  43
H6    2    0.277279    0.453693    0.252939    11.00000   -1.20000
AFIX   0
C2    1    0.383696    0.183594    0.116328    11.00000    0.15186    0.08406 =
         0.12330   -0.02118   -0.06467    0.01650
AFIX  43
H2    2    0.363467    0.162862    0.071820    11.00000   -1.20000
AFIX   0
C5    1    0.362714    0.546695    0.246377    11.00000    0.16860    0.11564 =
         0.13362   -0.02942    0.06542   -0.05045
AFIX  43
H5    2    0.357995    0.573492    0.291618    11.00000   -1.20000
AFIX   0
PART    1
N7A   3    0.339407    0.373196   -0.005957   -31.00000    0.06630    0.11885 =
         0.09313    0.02096    0.00378    0.01695
N8A   3    0.413840    0.364037   -0.110690   -31.00000    0.06952    0.11114 =
         0.09494    0.01674   -0.00366    0.01537
C14A  1    0.409029    0.349852   -0.038922   -31.00000    0.04949    0.08780 =
         0.07769    0.00098   -0.01990   -0.00535
AFIX  43
H14A  2    0.453232    0.324454   -0.013322   -31.00000   -1.20000
AFIX   0
C15A  1    0.332690    0.387928   -0.128793   -31.00000    0.10484    0.30982 =
         0.11206    0.04790    0.00461    0.09618
AFIX  43
H15A  2    0.311643    0.397761   -0.175855   -31.00000   -1.20000
AFIX   0
C16A  1    0.290106    0.394246   -0.065849   -31.00000    0.09492    0.42388 =
         0.14177    0.10774    0.03072    0.12155
AFIX  43
H16A  2    0.233590    0.410937   -0.062602   -31.00000   -1.20000
AFIX   0
C8A   1    0.116133    0.379145    0.097918   -21.00000    0.06777    0.08866 =
         0.16409    0.03428    0.00752    0.00560
AFIX  43
H8A   2    0.116550    0.432373    0.077472   -21.00000   -1.20000
AFIX   0
C9A   1    0.046222    0.335889    0.116780   -21.00000    0.06977    0.09185 =
         0.13557    0.02220    0.00928    0.01298
AFIX  43
H9A   2   -0.009531    0.354408    0.111799   -21.00000   -1.20000
AFIX   0
PART    2
C8B   1    0.116133    0.379145    0.097918    21.00000    0.06777    0.08866 =
         0.16409    0.03428    0.00752    0.00560
C9B   1    0.046222    0.335889    0.116780    21.00000    0.06977    0.09185 =
         0.13557    0.02220    0.00928    0.01298
C10   1   -0.037334    0.361973    0.097364    21.00000    0.07462
AFIX  43
H10   2   -0.086152    0.331599    0.108209    21.00000   -1.20000
AFIX   0
C13   1    0.112397    0.456572    0.052612    21.00000    0.08020
AFIX  43
H13   2    0.160799    0.483255    0.034956    21.00000   -1.20000
AFIX   0
C11   1   -0.037819    0.442590    0.058108    21.00000    0.08780
CL1   5    9.881400   10.469300   10.044300    21.00000    0.31780
C12   1    0.028819    0.486337    0.038572    21.00000    0.09186
AFIX  43
H12   2    0.021360    0.537493    0.015232    21.00000   -1.20000
AFIX   0
N7B   3    0.339407    0.373196   -0.005957    31.00000    0.06630    0.11885 =
         0.09313    0.02096    0.00378    0.01695
N8B   3    0.413840    0.364037   -0.110690    31.00000    0.06952    0.11114 =
         0.09494    0.01674   -0.00366    0.01537
C14B  1    0.384942    0.330878   -0.050534    31.00000    0.04949    0.08780 =
         0.07769    0.00098   -0.01990   -0.00535
AFIX  43
H14B  2    0.397587    0.275496   -0.039748    31.00000   -1.20000
AFIX  66
C19   1    0.339826    0.599813   -0.125493    31.00000   10.13620
C20   1    0.383097    0.528163   -0.146941    31.00000    0.12851
AFIX  43
H20   2    0.413124    0.527458   -0.191051    31.00000   -1.20000
AFIX  65
C15B  1    0.381491    0.457565   -0.102460    31.00000    0.05370    0.08638 =
         0.07308    0.02785   -0.00505    0.04702
C16B  1    0.336612    0.458618   -0.036532    31.00000    0.04318    0.07965 =
         0.11865    0.01683   -0.01033    0.02412
C17   1    0.293340    0.530268   -0.015083    31.00000    0.12651
AFIX  43
H17   2    0.263314    0.530972    0.029028    31.00000   -1.20000
AFIX  65
C18   1    0.294946    0.600866   -0.059563    31.00000    0.13858
AFIX  43
H18   2    0.265994    0.648805   -0.045212    31.00000   -1.20000
AFIX   0
CL2   5   10.342700   10.668015    9.818400    31.00000    0.33947
PART    3
C2S   1   10.385571   10.623075    9.902905    41.00000   10.23144
AFIX  33
H2S1  2    0.379280    0.581093   -0.059769    41.00000   -1.50000
H2S2  2    0.398631    0.596913   -0.143287    41.00000   -1.50000
H2S3  2    0.430846    0.660316   -0.083743    41.00000   -1.50000
AFIX   0
C1S   1   10.302164   10.713021    9.862234    41.00000   10.23144
AFIX  43
H1S   2    0.263590    0.727006   -0.174568    41.00000   -1.20000
AFIX   0
O1S   6   10.376005   10.750863    9.913651    41.00000   10.23144
N1S   3   10.325212   10.658916    9.897700    41.00000   10.23144
C3S   1   10.265800   10.676600    9.958000    41.00000   10.23144
AFIX  33
H3S1  2    0.218689    0.708448   -0.060463    41.00000   -1.50000
H3S2  2    0.245383    0.625017   -0.021711    41.00000   -1.50000
H3S3  2    0.294455    0.707904   -0.004369    41.00000   -1.50000
PART    0

AFIX   0
HKLF    4




REM  CF solution in Pbca
REM wR2 = 0.2107, GooF = S = 1.103, Restrained GooF = 1.103 for all data
REM R1 = 0.0646 for 2684 Fo > 4sig(Fo) and 0.0872 for all 3786 data
REM 244 parameters refined using 8 restraints

END

WGHT      0.1322      4.3049

REM Highest difference peak  0.844,  deepest hole -0.614,  1-sigma level  0.096
Q1    1   0.1869  0.6281 -0.0608  11.00000  0.05    0.84
Q2    1   0.4271  0.5794 -0.0413  11.00000  0.05    0.44
Q3    1   0.4055  0.5799 -0.1995  11.00000  0.05    0.41
Q4    1   0.3440  0.6684 -0.0389  11.00000  0.05    0.41
Q5    1   0.2270  0.6938 -0.1681  11.00000  0.05    0.38
Q6    1  -0.0449  0.4324  0.0907  11.00000  0.05    0.35
Q7    1   0.4157  0.5929 -0.1243  11.00000  0.05    0.33
Q8    1   0.2864  0.7688 -0.1516  11.00000  0.05    0.27
Q9    1   0.3985  0.1586  0.0319  11.00000  0.05    0.27
Q10   1   0.5044  0.0672  0.1287  11.00000  0.05    0.26
Q11   1   0.3213  0.3126  0.0768  11.00000  0.05    0.26
Q12   1   0.3220  0.5750  0.2108  11.00000  0.05    0.26
Q13   1   0.4948  0.1777  0.2493  11.00000  0.05    0.25
Q14   1   0.4624  0.1662  0.2111  11.00000  0.05    0.24
Q15   1   0.3159  0.7467 -0.1799  11.00000  0.05    0.23
Q16   1   0.4757  0.1409  0.1570  11.00000  0.05    0.22
Q17   1   0.0607  0.2962  0.1472  11.00000  0.05    0.22
Q18   1   0.3992  0.5628  0.2325  11.00000  0.05    0.22
Q19   1   0.3180  0.3306  0.0445  11.00000  0.05    0.21
Q20   1   0.0635  0.3422  0.1723  11.00000  0.05    0.21
;
_shelx_res_checksum              93592
_shelx_hkl_file
;
   0   0   1 67.8161 34.5256  15
   0   0  -2 12700.8 264.784  15
   0   0  -3 170.942 91.0489  15
   0   0  -4 999999. 3277.38  15
   0   0  -5-15.8071 96.6516  15
   0   0  -5 59.2337 83.4437  18
   0   0   6 1980.47 112.871  22
   0   0  -6 1821.32 191.781  18
   0   0   7 194.988 79.3494  22
   0   0   8 618.210 95.9069  22
   0   0   9 22.6227 85.9385  22
   0   0  10 63513.5 731.955  22
   0   0  11-61.2917 108.722  22
   0   0  12 874.317 136.625  22
   0   0  13-91.2039 115.785  22
   0   0  14 23232.2 577.859  22
   0   0  15-100.066 159.576  10
   0   0  15-159.406 141.517  11
   0   0  15-229.881 154.808  13
   0   0  16 48.7560 131.977  11
   0   0  16-90.4153 157.168  10
   0   0  16 177.375 144.867  13
   0   0  17-208.983 163.637  13
   0   0  17-118.960 156.072  10
   0   0  17-75.4716 134.178  11
   0   0  18-21.2617 134.690  13
   0   0  19 48.4237 119.204  13
   0   0  20 390.131 130.766  13
   0   0  21-253.203 113.304   4
   0  -1   0 86.6705 42.8270  17
   0  -1  -1 39.4614 48.5096  17
   0   1   1 14.8874 48.6033  17
   0   1   2 46.4908 68.8862  18
   0  -1   3 241.423 93.2670  15
   0   1   3 145.740 84.4900  18
   0  -1  -4 151.686 84.7774  18
   0  -1   4-32.7341 109.809  15
   0  -1   5 65.9312 67.2688  22
   0  -1  -5 118.143 97.1769  15
   0  -1   5-11.0061 105.129  15
   0   1   5 186.683 71.0428  22
   0  -1   6 103.994 71.0167  22
   0   1   6 72.9274 72.6588  22
   0  -1  -6 178.015 94.3995  18
   0   1   7 152.697 82.3162  22
   0  -1   7 303.281 89.9623  22
   0   1   8 108.366 89.1989  22
   0  -1   8 249.324 93.2880  22
   0  -1   9 16.3020 86.6893  22
   0   1   9 30.4974 89.7031  22
   0  -1  10 166.674 107.482  22
   0   1  10 123.308 106.556  22
   0  -1  11-189.873 110.568  22
   0   1  11 65.8391 96.4854  22
   0   1  12 151.138 100.004  22
   0  -1  12-140.761 123.508  22
   0  -1  13-48.1589 110.929  22
   0  -1  14 358.370 141.402  22
   0   1  15 166.908 155.045  10
   0  -1  15-144.771 146.518  13
   0  -1  15-127.294 160.701  10
   0   1  15-17.0976 133.344  11
   0   1  15-126.599 163.423  13
   0  -1  16 23.8391 140.876  13
   0   1  16-20.2766 148.499  13
   0   1  16-43.3582 134.542  11
   0   1  16-30.9462 154.007  10
   0  -1  16 28.4559 147.514  10
   0  -1  17-23.5589 131.405  13
   0   1  17 202.200 147.509  11
   0  -1  17 189.464 169.103  10
   0   1  17-28.9378 152.996  13
   0  -1  18 296.885 152.256  13
   0   1  18 258.999 143.885  13
   0   1  19 172.133 125.113  13
   0  -1  19 6.13959 114.266  13
   0  -1  20 179.956 114.889  13
   0   1  20-355.882 133.846   4
   0  -1  21-308.954 110.363   4
   0  -2   0 258658. 1337.58  17
   0  -2  -1 14380.9 332.441  17
   0   2   1 14013.6 327.409  17
   0  -2  -2 25950.4 461.884  17
   0  -2  -3 627189. 2467.95  17
   0  -2   4 217822. 1646.69  15
   0   2   4 218338. 1594.31  18
   0  -2   5 15569.7 257.927  22
   0  -2   5 15648.9 504.443  15
   0   2   5 15178.2 469.568  18
   0  -2   6 11305.8 217.514  16
   0  -2   6 10958.8 235.037  22
   0   2   6 10865.6 235.481  22
   0   2   7 409821. 1494.46  22
   0  -2   7 405827. 1512.20  22
   0   2   8 421.624 98.0842  22
   0  -2   8 455.870 98.8388  22
   0  -2   9 129.665 89.6648  22
   0  -2  10 16391.8 385.588  22
   0  -2  11 2946.43 188.836  22
   0  -2  12 90.0127 105.967  22
   0  -2  13 614.596 137.841  22
   0  -2  14 909.017 157.979  22
   0  -2  15 9501.67 401.959  13
   0   2  15 9174.97 394.990  13
   0   2  15 9055.41 378.087  11
   0  -2  15 8269.66 367.237  10
   0  -2  16-125.584 135.007  13
   0   2  16 190.843 143.868  13
   0   2  16-288.913 151.671  11
   0  -2  16-70.4769 164.205  10
   0   2  17 6070.41 319.899  11
   0  -2  17 6509.74 353.930  13
   0  -2  17 6360.96 335.026  10
   0   2  17 5942.25 338.765  13
   0  -2  18 207.666 151.918  10
   0  -2  18 27.6140 135.071  13
   0   2  18-220.459 135.292  13
   0   2  19 546.288 137.166   4
   0  -2  19 1134.47 168.681  13
   0   2  20-631.894 127.178   4
   0  -2  20 21.9290 101.896  13
   0  -2  21 291.379 100.011   4
   0  -2  21 641.650 116.239  13
   0  -3   0 190.583 107.334  17
   0   3   1 271.828 114.145  17
   0  -3  -1 89.2426 94.5248  17
   0   3   2 121.812 108.328  17
   0  -3  -2 225.914 108.007  17
   0  -3  -3 197.233 108.319  17
   0  -3  -4 164.816 112.534  17
   0   3   5 116.345 109.108  18
   0  -3  -5-81.1806 113.242  17
   0  -3   5 117.926 72.7170  22
   0  -3   6 52.0796 78.7624  22
   0  -3   6 3.95034 56.2651  16
   0  -3   7 26.7526 87.8983  22
   0  -3   8 36.6793 87.8795  22
   0  -3   9 48.7323 91.8490  22
   0  -3  10 98.6704 97.6104  22
   0  -3  11 246.747 126.813  22
   0  -3  12-39.3340 102.083  22
   0  -3  13 110.852 124.097  22
   0  -3  14 32.6170 121.242  22
   0  -3  15 73.9075 150.527  13
   0   3  15 246.710 152.996  13
   0  -3  15 290.209 173.147  10
   0   3  15-111.696 142.672  11
   0   3  16 96.4974 149.099  13
   0  -3  16 180.707 152.107  13
   0  -3  16-12.4614 158.418  10
   0  -3  17 200.364 152.436  13
   0  -3  17-153.745 160.105  10
   0  -3  18-7.85355 125.324  13
   0  -3  18 237.556 157.215  10
   0  -3  19 91.3792 119.653  13
   0  -3  20 22.3287 105.463  13
   0  -4  -1 10473.3 408.647  17
   0   4   1 10340.6 409.253  17
   0   4   2 115650. 1331.64  17
   0   4  -2 113914. 1346.61  17
   0   4   3 72204.0 1088.90  17
   0  -4  -3 71661.0 1093.52  17
   0   4  -3 71457.1 510.589   1
   0   4  -4 79213.9 553.927   1
   0  -4  -4 76458.1 1156.15  17
   0   4  -5 339.626 73.1458   1
   0  -4   6 39048.9 481.524  22
   0  -4   7 156285. 1009.89  22
   0  -4   8 5921.83 231.441  22
   0  -4   9 377.475 106.930  22
   0  -4  10 123153. 1103.60  22
   0  -4  11 3098.44 210.178  22
   0  -4  12 10150.0 366.487  22
   0  -4  13 73.1922 116.822  22
   0  -4  14 31407.8 685.126  13
   0   4  14 29521.0 648.528  11
   0   4  14 30868.9 675.680  13
   0   4  14 29135.4 578.041   6
   0  -4  14 32088.3 637.467  10
   0   4  15 2179.68 210.543   6
   0  -4  15 2522.78 242.012  13
   0   4  15 2575.93 244.228  13
   0  -4  15 2464.95 237.584  10
   0  -4  16 39.2410 146.060  13
   0  -4  16 16.1658 151.346  10
   0  -4  17 295.392 156.774  10
   0  -4  17 85.4717 134.203  13
   0  -4  18 787.665 171.837  13
   0  -4  18 792.095 169.574  10
   0  -4  19 563.907 149.944  10
   0  -4  19 676.584 142.697  13
   0  -4  20 210.179 103.862  13
   0   5   0-9.77052 71.3596   1
   0   5   1 88.9714 72.7389   1
   0   5  -1 60.9041 70.1777   1
   0   5   2 58.7173 65.9670   1
   0   5  -2 74.1266 68.4030   1
   0   5   3-0.60457 59.4538   1
   0   5  -3 0.10614 68.4752   1
   0   5  -4-117.562 73.9160   1
   0   5  -5 40.2866 67.7449   1
   0   5  -6 43.3408 69.6055   1
   0  -5   7-0.39693 91.9333  22
   0  -5   8 147.317 104.202  22
   0  -5   9 10.6615 93.9185  22
   0  -5  10 129.672 103.157  22
   0  -5  11 118.951 109.468  22
   0  -5  12-132.039 112.626  22
   0  -5  13-121.588 121.260  22
   0  -5  14 398.437 185.334  10
   0   5  14 488.885 157.696   6
   0  -5  14 46.4797 155.335  13
   0   5  15-68.8490 127.072   6
   0  -5  15 58.3234 152.665  10
   0  -5  15-137.091 137.674  13
   0  -5  16-44.7465 145.609  10
   0   5  16-118.933 129.523   6
   0  -5  16-15.5190 131.145  13
   0  -5  17-236.537 155.267  10
   0  -5  17 124.816 136.807  13
   0  -5  18-53.2676 122.789  13
   0  -5  18 333.835 147.929  10
   0  -5  19-51.3194 119.763  10
   0  -5  19 34.2270 104.215  13
   0  -5  20 23.6778 90.5301  13
   0   6   0 400951. 1417.18   1
   0   6   1 2888.36 137.323   1
   0   6  -1 2674.71 136.893   1
   0   6   2 392.145 75.3367   1
   0   6  -2 350.368 86.7550   1
   0   6  -3 19906.1 339.373   1
   0   6   3 19652.9 313.897   1
   0   6  -4 35589.1 460.064   1
   0   6  -5 11769.2 275.538   1
   0   6  -6 3359.66 165.639   1
   0  -6   7 90615.6 863.772  22
   0  -6   8 9678.65 307.267  22
   0  -6   9 17574.5 426.441  22
   0  -6  10 33605.4 616.947  22
   0  -6  11 7035.97 310.552  22
   0  -6  12 3981.40 255.542  22
   0  -6  13 5293.43 287.312  10
   0   6  13 5522.44 272.334   6
   0  -6  13 5379.75 313.119  13
   0  -6  13 4740.09 285.242  22
   0  -6  14 23398.0 620.422  13
   0   6  14 22739.6 545.637   6
   0  -6  14 22231.3 556.057  10
   0  -6  15 136.583 147.361  10
   0   6  15 140.313 137.718   6
   0  -6  15-60.7011 145.734  13
   0   6  16-98.9674 126.234   6
   0  -6  16-177.268 156.546  10
   0  -6  16-88.9496 134.275  13
   0  -6  17 732.347 160.357  13
   0   6  17 441.401 144.354   6
   0  -6  17 486.900 154.521  10
   0  -6  18 256.381 135.614  10
   0  -6  18 326.729 134.334  13
   0  -6  19 108.805 105.388  13
   0  -6  19 76.3103 111.675  10
   0  -6  20-66.6204 90.8709  13
   0   7   0 92.8116 80.9036   1
   0   7  -1 15.3515 81.5605   1
   0   7   1 71.4884 81.8472   1
   0   7   2-29.4927 76.6265   1
   0   7  -2-57.9795 83.4056   1
   0   7   3-39.4725 76.4683   1
   0   7  -3 28.6350 78.4987   1
   0   7  -4-58.8071 79.6436   1
   0   7  -5-43.6444 90.2725   1
   0   7  -6-41.0686 83.4534   1
   0  -7   8-195.867 122.467  22
   0  -7   9-128.600 120.029  22
   0  -7  10 51.9102 114.225  22
   0  -7  11 114.478 115.406  22
   0  -7  12-53.1693 133.134  22
   0  -7  13-124.705 155.000  13
   0  -7  13-36.0486 145.074  10
   0   7  13 156.575 127.423   6
   0   7  14-55.0419 131.507   6
   0  -7  14-144.498 145.976  10
   0  -7  14 329.387 156.656  13
   0   7  15 84.6322 134.265   6
   0  -7  15 6.56345 145.300  13
   0  -7  15-35.0583 143.068  10
   0  -7  16 68.4838 145.725  10
   0  -7  16-75.0922 146.215  13
   0   7  16-133.367 134.049   6
   0  -7  17 25.9763 128.495  13
   0  -7  17-42.0506 130.746  10
   0   7  17-5.27171 111.430   6
   0  -7  18-53.2613 121.605  10
   0  -7  18 97.1672 113.730  13
   0  -7  19-87.5752 92.7184  13
   0   8   0 23517.7 418.568   1
   0   8   1 10429.5 281.020   1
   0   8  -1 10438.1 289.125   1
   0   8   2 30901.6 470.140   1
   0   8  -2 31793.0 496.001   1
   0   8  -3 63893.3 706.018   1
   0   8   3 62667.6 656.380   1
   0   8  -4 48621.7 627.445   1
   0   8  -5 21418.5 425.947   1
   0   8  -6 5652.72 237.594   1
   0   8  -7 88547.4 888.543   1
   0  -8   8 18988.8 468.174  22
   0  -8   9 477.312 128.003  22
   0  -8  10 1239.66 163.370  22
   0  -8  11 1729.02 187.591  22
   0  -8  12-147.398 148.860  13
   0   8  12 123.091 129.059   6
   0   8  13 220.941 143.404   6
   0  -8  13-15.0626 140.654  13
   0   8  14 831.996 159.360   6
   0  -8  14 809.613 188.375  13
   0  -8  14 656.631 170.657  10
   0   8  15 2013.64 202.116   6
   0  -8  15 2104.70 218.519  10
   0  -8  15 2496.95 245.067  13
   0   8  16 1477.84 179.741   6
   0  -8  16 1296.69 190.070  13
   0  -8  16 1458.62 187.732  10
   0  -8  17 2052.25 205.237  13
   0  -8  17 2043.14 194.082  10
   0   8  17 2585.63 196.840   6
   0  -8  18 5.70377 104.171  13
   0  -8  18-95.3228 114.954  10
   0  -8  19-87.5305 92.1968  13
   0   9   0 9.38971 100.575   1
   0   9   1-77.4192 86.9893   1
   0   9  -1-22.0408 94.4879   1
   0   9   2 197.070 91.0364   1
   0   9  -2 177.301 103.428   1
   0   9  -3-146.928 103.315   1
   0   9   3-97.2843 94.0931   1
   0   9  -4 75.0068 92.4123   1
   0   9  -5-48.2059 96.8338   1
   0   9  -6 30.9749 88.9015   1
   0   9  -7 0.32347 91.9041   1
   0  -9   8-207.335 119.942  22
   0  -9   9 20.2057 116.170  22
   0  -9  10-66.7868 123.106  22
   0  -9  11 113.931 138.188  13
   0   9  11 136.221 130.346   6
   0  -9  12-29.2938 144.327  13
   0   9  12-150.344 138.399   6
   0  -9  13-143.208 145.539  13
   0   9  13 1.83864 127.130   6
   0   9  14 47.6339 122.003   6
   0  -9  14 30.6729 137.143  13
   0   9  15 89.2259 126.113   6
   0  -9  15-58.6107 139.074  13
   0   9  16 2.14535 111.304   6
   0  -9  16-59.2585 128.688  13
   0  -9  17 44.5748 106.966  13
   0   9  17-29.3363 104.081   6
   0  -9  18 29.2167 95.8097  13
   0  10   0 228545. 1495.77   1
   0  10   1 73377.4 844.912   1
   0  10  -1 75266.2 866.992   1
   0  10   2 429.096 111.918   1
   0  10  -2 161.524 104.048   1
   0  10  -3 230.939 110.426   1
   0  10  -4 35969.7 627.475   1
   0  10  -5 4514.25 244.394   1
   0  10  -6 218.179 106.316   1
   0  10  -7 5423.67 267.118   1
   0 -10   8 1282.15 172.240  22
   0 -10   9 6662.05 328.031  22
   0  10  10 5213.34 269.970   6
   0 -10  11 226.104 152.305  13
   0  10  11 649.351 156.691   6
   0  10  12 1196.94 180.603   6
   0 -10  12 1297.51 212.141  13
   0 -10  13 1019.52 194.891  13
   0  10  13 976.080 168.020   6
   0  10  14 3928.06 246.347   6
   0 -10  14 3543.04 269.677  13
   0  10  15 475.589 129.686   6
   0 -10  15 425.712 138.786  13
   0  10  16 0.63440 111.595   6
   0 -10  16 215.749 128.966  13
   0 -10  17 148.356 96.4722  13
   0  11   0 31.4690 97.8401   1
   0  11  -1 58.2212 111.810   1
   0  11   1 180.893 105.584   1
   0  11  -2-137.102 121.797   1
   0  11   2-152.103 113.265   1
   0  11  -3-200.305 123.927   1
   0  11  -4-23.5168 119.372   1
   0  11  -5 5.13181 117.599   1
   0  11  -6-118.884 118.659   1
   0  11  -7 49.4415 111.567   1
   0  11   8 6.96868 99.3561  19
   0  11   8 117.623 107.365   6
   0  11   8 51.2859 111.546   7
   0  11   9 78.3273 124.092   6
   0  11  10 15.6159 123.782   6
   0 -11  11-81.7854 143.581  13
   0  11  11-76.7496 119.433   6
   0  11  12-98.1529 130.354   6
   0 -11  12-133.450 150.338  13
   0 -11  13-13.5833 140.719  13
   0  11  13-173.141 129.027   6
   0 -11  14-78.7784 142.775  13
   0  11  14 19.2071 117.858   6
   0 -11  15-96.1945 120.548  13
   0  11  15 95.9064 111.261   6
   0 -11  16-94.4097 100.249  13
   0  11  16 62.2425 92.4164   6
   0 -11  17 88.6030 89.7103  13
   0  12   0 12557.4 420.025   1
   0  12  -1 4641.67 268.092   1
   0  12  -2 11354.0 405.959   1
   0  12  -3 15633.6 472.541   1
   0  12  -4 2334.33 213.745   1
   0  12  -5 585.919 151.882   1
   0  12   6 11338.1 392.201   7
   0 -12   6 11386.5 389.113   3
   0  12   6 11930.6 377.780  19
   0  12   7 17739.2 470.311   7
   0  12   7 17966.8 470.673  19
   0  12   8 5868.84 293.691  19
   0  12   8 6527.92 302.535   7
   0  12   9 273.906 126.854   6
   0  12  10 14.9661 130.937   6
   0 -12  11 87.1970 144.919  13
   0  12  11 115.710 125.434   6
   0  12  12 174.641 121.525   6
   0 -12  12 260.135 151.349  13
   0  12  13-80.3583 109.069   6
   0 -12  13 226.765 143.021  13
   0 -12  14 188.189 118.835  13
   0  12  14 226.467 109.747   6
   0  12  15 492.995 113.503   6
   0 -12  15 465.692 125.488  13
   0 -12  16 997.315 129.348  13
   0 -13   0 39.3934 143.214   3
   0 -13  -1 10.8120 149.837   3
   0 -13   1 116.753 159.624   3
   0 -13   2-200.478 166.639   3
   0 -13  -2-19.1628 136.422   3
   0 -13   3-52.9107 170.886   3
   0 -13   4-63.9899 165.973   3
   0  13   4-253.777 142.247   7
   0  13   5-261.919 126.099  19
   0 -13   5-158.439 174.334   3
   0  13   5-112.590 148.192   7
   0  13   6 89.6449 114.423  19
   0 -13   6-154.990 159.448   3
   0  13   6-143.747 147.869   7
   0 -13   7-157.446 161.944   3
   0  13   7 49.8787 141.090   7
   0  13   7-45.1440 110.735  19
   0  13   8-138.262 117.458  19
   0  13   8-123.692 134.559   7
   0  13   9-60.7004 142.365   7
   0 -13  11 181.740 147.276  13
   0  13  11 9.97878 117.976   6
   0 -13  12 12.0634 125.795  13
   0  13  12-36.0888 112.173   6
   0  13  13 105.819 103.513   6
   0 -13  13 201.158 119.258  13
   0  13  14-38.0635 92.8466   6
   0 -13  14-19.0822 108.192  21
   0 -13  14-23.5782 99.9144  13
   0 -13  15-269.978 100.744  13
   0  13  15 129.875 87.0104   6
   0 -14   0 594.963 183.382   3
   0  14   0 1156.43 167.223   7
   0  14  -1 381.724 146.257   7
   0 -14   1 414.569 178.812   3
   0  14   1 147.130 131.426   7
   0 -14   2 1403.92 204.257   3
   0  14   2 1618.82 189.174   7
   0  14   3 89.4940 137.471   7
   0 -14   3 252.896 167.746   3
   0 -14   4 1427.67 218.947   3
   0  14   4 1613.80 200.449   7
   0  14   5 591.875 145.777  19
   0  14   5 710.201 156.724   7
   0  14   6 3305.91 246.629   7
   0  14   6 3430.66 229.065  19
   0  14   7 4827.82 258.815  19
   0  14   7 4904.11 277.386   7
   0  14   8 37.9106 124.623   7
   0  14   8-79.3717 102.064  19
   0  14   9 1817.88 190.449   7
   0 -14  10 2019.16 218.647  13
   0 -14  11-41.4392 118.295  13
   0 -14  12 139.714 112.095  13
   0  14  12 13.0245 101.140   6
   0  14  13 353.959 100.472   6
   0 -14  13 451.953 118.896  13
   0  15   0-186.446 133.537   7
   0  15   1-45.9380 127.335   7
   0  15   2 11.0892 133.090   7
   0  15   3 23.0049 133.427   7
   0  15   4-211.770 120.632  19
   0  15   4 100.768 132.921   7
   0  15   5 199.955 137.641   7
   0  15   5 24.1648 111.232  19
   0  15   6-26.7220 134.837   7
   0  15   6 2.95381 97.8532  19
   0  15   7 114.440 130.402   7
   0  15   7 22.3447 107.762  19
   0  15   8-147.781 138.948   7
   0  15   9-189.576 121.219   7
   0 -15  10-100.041 111.978  13
   0 -15  11-159.958 113.083  13
   0 -15  12-17.3768 91.9155  13
   0  16   0 649.176 144.870   7
   0  16   1 243.876 126.093   7
   0  16   2 26.3146 127.370   7
   0  16   3-37.8071 120.794   7
   0  16   3 212.419 123.003  19
   0  16   4-199.321 123.369   7
   0  16   4-83.0763 104.556  19
   0  16   5 370.241 116.429  19
   0  16   5 444.947 133.260   7
   0  16   6 395.929 121.843  19
   0  16   6 157.137 126.932   7
   0  16   7-40.3037 120.104   7
   0  16   8 638.567 133.244   7
   0  16   9 2173.12 169.762   7
   0 -16   9 1796.88 176.207  13
   0 -16  10 172.576 101.350  13
   0  17   0 144.389 110.552   7
   0  17   1 30.5306 106.535   7
   0  17   2-41.9779 107.416   7
   0  17   2 63.9000 98.3370  19
   0  17   3-4.09530 92.4867  19
   0  17   3 11.6537 117.300   7
   0  17   4-252.500 124.748   7
   0  17   4 28.6520 90.2374  19
   0  17   5-107.326 106.602   7
   0  17   5-13.5795 87.8768  19
   0  17   6 26.9001 100.733   7
   0  17   7 145.932 102.065   7
   0 -17   8-5.33434 95.2644  13
   0  17   8 185.832 101.478   7
   0  18   0 73.3465 82.8779  19
   0  18   1-182.707 106.735   7
   0  18   1-1.38356 81.3478  19
   0  18   2 291.621 109.656   7
   0  18   2 490.135 106.045  19
   0  18   3 118.862 93.5683   7
   0  18   3 112.075 82.0726  19
   0  18   4 319.018 86.1134  19
   0  18   4 113.908 88.6347   7
   0  18   5 132.971 92.0224   7
  -1   0   0 59.5407 34.8682  18
  -1   0   1-2.50780 49.5492  15
  -1   0  -2 346003. 1193.05  15
  -1   0   2 345253. 1474.04  15
  -1   0  -3-4.67483 74.7912  15
  -1   0   3 54.8574 89.9142  15
  -1   0  -4 72867.9 836.287  15
  -1   0  -4 70367.4 929.271  18
   1   0   5 3.67996 62.4608  16
  -1   0  -5 25.6918 126.036  18
   1   0  -5 101.087 98.2879  15
  -1   0  -5 174.354 109.964  15
  -1   0   5 8.26551 68.3094  22
   1   0  -5 39.3911 66.2492  18
   1   0   6 126079. 732.630  22
  -1   0   6 124564. 745.016  22
   1   0   6 129038. 747.827  16
  -1   0  -6 125341. 1420.02  15
  -1   0   7-36.9140 77.8953  22
   1   0   7-88.0768 75.4280  22
   1   0   7 19.5446 67.2187  16
  -1   0   8 61178.4 619.876  22
   1   0   8 61221.4 619.025  22
   1   0   9-30.3318 82.7819  22
  -1   0   9-22.5620 91.9407  22
   1   0  10 1230.29 138.490  22
  -1   0  10 1383.17 143.775  22
   1   0  11-52.6758 102.877  22
  -1   0  11-107.660 113.006  22
   1   0  12 3424.20 217.537  22
  -1   0  12 3242.91 217.488  22
   1   0  13 81.6372 104.386  22
  -1   0  13-225.421 131.966  22
  -1   0  14 4048.07 263.004  22
  -1   0  15-175.411 162.444  10
   1   0  15 46.1369 134.997  13
  -1   0  15-153.887 147.650  13
  -1   0  15 45.6290 131.950   9
   1   0  15-137.855 152.354  11
   1   0  15-381.060 165.671  10
   1   0  16 178.870 163.682  10
   1   0  16-14.8644 133.481  11
  -1   0  16-46.5574 142.562  13
  -1   0  16 30.4171 152.008  10
  -1   0  16 58.6432 148.721   9
   1   0  16 9.10994 149.307  13
   1   0  17-118.857 140.923  13
  -1   0  17 281.105 166.216  10
   1   0  17-136.706 138.069  11
  -1   0  17 69.7199 134.736  13
   1   0  18 1984.32 206.198  11
   1   0  18 1773.58 216.837  13
  -1   0  18 1480.64 199.502  13
  -1   0  19-184.275 145.057  13
   1   0  19-140.210 123.947  13
   1   0  19-259.795 135.782  11
  -1   0  20 188.477 112.512  13
   1   0  20 104.901 102.929  13
   1   0  21-254.901 109.757   4
   1   1   0 16.2932 53.2717  17
  -1  -1   0-4.68041 52.0510  17
  -1   1   1 55534.3 396.835  17
   1  -1  -1 54286.1 379.870  17
   1   1  -1 56283.1 486.347  17
  -1  -1   1 54710.9 470.303  17
   1  -1  -2 81013.4 537.121  17
   1  -1   2 81792.0 607.077  15
  -1  -1  -3 160150. 1291.64  18
  -1   1   3 160320. 914.576  18
   1  -1   3 163285. 1053.67  15
   1   1   3 163666. 1285.52  18
  -1  -1   3 163061. 1262.55  15
   1  -1   4 37898.7 606.664  15
  -1  -1  -4 37970.0 709.307  18
  -1  -1   4 38044.2 703.308  15
  -1   1   5 35551.1 367.477  22
   1   1   5 35490.0 361.813  22
   1   1   5 37097.4 372.324  16
  -1  -1   5 35613.0 369.997  22
  -1  -1  -5 35163.4 750.247  18
  -1  -1  -5 35191.8 698.941  15
  -1  -1   5 35808.2 755.253  15
   1  -1  -5 35398.4 749.948  15
   1  -1   6 2439.55 126.243  22
  -1   1   6 2381.74 130.058  22
   1  -1   6 2588.39 128.304  16
   1   1   6 2499.88 130.559  22
  -1  -1   6 2588.32 131.073  22
  -1   1   7 965.641 105.154  22
  -1  -1   7 911.529 104.446  22
   1   1   7 985.140 105.342  22
   1  -1   7 1161.48 101.565  16
   1  -1   7 1123.48 104.914  22
   1  -1   8 36389.0 478.179  22
  -1   1   8 36214.7 485.437  22
   1   1   8 35888.8 478.109  22
  -1  -1   8 35005.1 481.235  22
  -1   1   9 273.754 88.4726  22
   1   1   9 342.992 97.4096  22
   1  -1   9 321.973 89.4680  22
  -1  -1   9 163.791 90.9013  22
   1  -1  10 19037.9 404.272  22
  -1  -1  10 18359.7 404.676  22
   1   1  10 18770.8 403.838  22
  -1   1  10 18574.4 407.350  22
  -1  -1  11 14872.2 395.263  22
  -1   1  11 14928.2 394.225  22
   1  -1  11 14586.5 382.832  22
   1   1  11 14682.9 388.701  22
  -1   1  12 13090.2 395.992  22
  -1  -1  12 13083.4 396.063  22
   1  -1  12 13142.2 389.932  22
   1  -1  13 2646.92 206.977  22
  -1  -1  13 2663.33 213.710  22
   1  -1  14 3800.02 255.006  22
  -1  -1  14 3414.77 243.864  22
   1  -1  15-61.3694 155.905  10
   1   1  15 227.740 138.568  11
   1   1  15 127.536 134.819  13
  -1  -1  15-24.7771 135.940   9
  -1   1  15 118.072 147.337   9
  -1   1  15 96.9857 138.289  13
   1  -1  15 37.4960 138.457  13
   1   1  15 98.2673 146.951  10
  -1   1  15 262.015 161.863  10
  -1  -1  15 30.8949 157.645  10
   1  -1  15 66.1422 134.617  11
  -1  -1  15 102.164 133.247  13
  -1   1  16 719.592 176.069  10
  -1  -1  16 737.601 164.577  13
   1  -1  16 896.731 181.773  10
   1  -1  16 698.684 172.322  13
   1   1  16 880.516 176.038  11
  -1  -1  16 745.172 178.538   9
  -1  -1  16 957.347 184.439  10
  -1   1  16 589.997 168.852  13
   1  -1  16 600.203 160.743  11
   1   1  16 559.886 163.580  13
   1  -1  17 208.872 165.030  10
   1  -1  17 43.8039 130.569  11
   1  -1  17 42.3990 142.156  13
   1   1  17 276.136 143.311  11
  -1  -1  17-41.5607 142.091  13
  -1   1  17-37.8874 132.804  13
  -1  -1  17 332.275 163.096  10
   1   1  17 120.823 139.722  13
  -1  -1  18 2618.12 230.529  10
   1   1  18 2454.33 226.036  11
   1   1  18 2112.23 225.381  13
   1  -1  18 2244.54 218.264  11
  -1   1  18 1915.19 222.834  13
   1  -1  18 2179.41 220.598  13
  -1  -1  18 1843.53 213.298  13
  -1  -1  19 120.704 124.935  13
   1  -1  19 235.631 124.853  11
   1   1  19 243.700 126.488  13
  -1   1  19 233.254 126.764  13
   1  -1  19 342.331 136.084  13
   1   1  19-228.920 136.958   4
  -1   1  20 62.7552 112.179   4
   1   1  20 134.964 110.065   4
  -1  -1  20 354.385 126.405  13
   1  -1  20 521.593 130.848  13
   1  -1  21-60.5401 91.1334   4
  -1  -1  21-135.008 97.6754   4
  -1  -2   0 17.8433 82.4357  17
  -1   2   1 236252. 1240.16  17
  -1  -2   1 234975. 1329.59  17
   1   2  -1 237671. 1346.63  17
  -1  -2  -1 234058. 1419.58  17
   1  -2  -2 27090.6 428.699  17
  -1   2   2 27538.4 440.995  17
  -1  -2  -2 27942.8 533.597  17
   1   2  -2 27088.8 476.583  17
   1  -2  -3 1990.57 136.019  17
   1   2   3 2107.02 189.703  18
  -1  -2   4 6638.01 327.259  15
   1  -2  -4 6073.99 250.427  17
   1   2   4 6469.90 323.571  18
  -1   2   4 6401.16 255.025  18
   1  -2   4 6109.05 278.386  15
   1  -2   5 187345. 839.117  22
  -1   2   5 185126. 856.126  22
   1   2   5 187887. 1750.73  18
   1  -2   5 186805. 1583.17  15
  -1  -2   5 183728. 868.789  22
   1  -2  -5 183054. 1436.99  17
  -1   2   6 19139.3 313.314  22
  -1  -2   6 19615.8 317.781  22
   1  -2   6 20308.6 302.499  16
   1  -2   6 20295.7 312.129  22
  -1  -2   7 118.476 82.6302  22
  -1   2   7 133.553 87.3748  22
   1  -2   7 86.6193 66.9331  16
   1  -2   7 145.482 80.6530  22
  -1   2   8 1669.43 134.122  22
   1  -2   8 1659.85 130.118  22
  -1  -2   8 1600.16 135.069  22
   1  -2   8 1664.22 123.362  16
   1  -2   9 45364.5 590.840  22
  -1  -2   9 44089.7 595.982  22
  -1   2   9 45871.8 597.323  22
  -1  -2  10 1472.40 150.861  22
   1  -2  10 1444.70 142.909  22
  -1  -2  11 12278.6 365.290  22
   1  -2  11 12150.0 356.496  22
  -1  -2  12 104.650 106.225  22
   1  -2  12 73.6904 102.536  22
   1  -2  13 204.486 115.807  22
  -1  -2  13 23.1917 120.512  22
  -1  -2  14 127.328 118.681  22
   1  -2  14-85.1194 133.227  22
  -1  -2  15 3625.75 269.622  13
   1  -2  15 3487.63 264.016  10
   1   2  15 3954.67 270.353  11
  -1  -2  15 3605.84 262.140  10
  -1  -2  15 4353.18 271.854   9
  -1   2  15 3890.48 260.666  11
   1  -2  15 3671.08 260.264  11
   1  -2  15 3803.42 274.431  13
   1   2  15 3670.11 282.719  13
  -1   2  15 3442.86 271.482  13
  -1   2  15 3334.26 256.000  10
  -1   2  15 3555.90 258.481   9
   1  -2  16-38.1706 158.273  10
  -1   2  16 146.516 142.488  13
   1  -2  16-110.171 140.053  13
   1   2  16 122.622 131.655  13
   1  -2  16-13.6549 136.582  11
  -1   2  16 219.839 143.496  11
  -1  -2  16 370.060 173.713  10
  -1  -2  16-201.217 146.884  13
   1   2  16-116.029 146.057  11
   1  -2  17 266.638 144.882  13
   1   2  17 327.809 152.120  13
  -1  -2  17 261.879 150.076  13
   1  -2  17 286.807 142.947  11
   1   2  17 412.952 151.186  11
  -1  -2  17 43.6929 155.325  10
   1  -2  17 114.333 153.078  10
  -1   2  17 378.809 150.500  13
  -1  -2  18-175.367 132.092  13
   1   2  18-17.3619 134.655  13
  -1  -2  18-73.6356 143.756  10
   1  -2  18-167.377 132.938  13
  -1   2  18-20.6754 137.081  13
  -1  -2  19 485.768 142.133  13
   1   2  19 72.4206 125.328   4
   1  -2  19 369.862 137.643  13
  -1  -2  20 8.86677 101.870  13
   1  -2  20-58.6854 100.333  13
   1   2  20-31.3635 111.216   4
   1  -2  21-48.2969 93.0183   4
  -1  -2  21 188.241 96.4027  13
  -1  -3   0 173.687 108.199  17
  -1   3   0 280.222 118.249  17
  -1  -3  -1 84961.3 1029.39  17
   1   3  -1 85632.8 988.697  17
  -1   3   1 84204.9 934.668  17
  -1   3   2 22360.0 486.896  17
  -1  -3  -2 22364.5 543.038  17
   1   3  -2 22287.7 533.746  17
   1  -3  -2 21705.0 475.888  17
  -1  -3  -3 699.385 149.895  17
   1  -3  -3 614.079 119.551  17
   1   3  -3 677.743 138.463  17
  -1  -3  -4 1217.81 178.857  17
   1  -3  -4 1178.31 145.494  17
   1   3   4 1110.00 183.985  18
  -1   3   5 64467.5 949.289  18
   1  -3   5 64642.6 1008.93  15
   1  -3  -5 63844.8 926.945  17
   1  -3   5 66210.0 535.015  22
   1  -3   5 64974.1 483.064  16
  -1  -3   5 64148.9 546.397  22
   1  -3   6 22150.6 341.368  22
  -1  -3   6 22116.6 348.046  22
   1  -3   6 22347.2 314.421  16
  -1  -3   7 10660.4 267.607  22
   1  -3   7 10995.3 263.440  22
   1  -3   7 10662.5 242.441  16
   1  -3   8 8914.97 236.600  16
  -1  -3   8 8626.89 260.080  22
   1  -3   8 8779.95 257.634  22
  -1  -3   9 22192.9 430.855  22
   1  -3   9 22754.8 430.261  22
   1  -3  10 317.404 105.714  22
  -1  -3  10 398.450 116.709  22
   1  -3  11 46441.5 694.943  22
  -1  -3  11 47934.1 709.728  22
   1  -3  12 633.308 129.407  22
  -1  -3  12 737.337 135.621  22
   1  -3  13 12502.1 414.707  22
  -1  -3  13 12642.3 418.208  22
  -1  -3  14 1371.92 185.471  22
   1  -3  14 1377.37 180.873  22
   1   3  15 781.739 171.900  13
  -1   3  15 234.887 141.739  13
   1  -3  15 413.701 152.506  13
  -1  -3  15 467.353 164.678  13
  -1  -3  15 710.821 167.496   9
   1   3  15 513.392 154.114  11
  -1  -3  15 626.464 176.913  10
  -1   3  15 596.691 168.070   9
   1  -3  15 448.835 173.006  10
  -1   3  15 491.544 141.459   6
  -1  -3  16-73.8624 158.636  10
   1  -3  16 143.973 137.310  13
   1  -3  16 53.9039 149.416  10
  -1   3  16-72.3176 135.271  13
   1   3  16 204.235 141.432  13
  -1  -3  16-69.9970 135.656  13
   1   3  16-109.647 151.784  11
  -1  -3  17 1305.10 205.564  10
   1   3  17 1063.94 177.039   4
   1  -3  17 1643.17 215.229  10
  -1  -3  17 1101.18 186.719  13
   1  -3  17 1411.32 197.768  13
   1  -3  18-44.2942 121.842  13
   1  -3  18 226.045 150.876  10
  -1  -3  18 193.696 132.284  13
  -1  -3  18 72.4785 143.065  10
   1   3  18-310.743 149.977   4
  -1  -3  19 946.911 166.915  10
   1   3  19 433.537 134.658   4
  -1  -3  19 819.538 159.737  13
   1  -3  19 623.351 147.139  13
  -1  -3  20 29.2908 104.521  13
   1   3  20-88.0320 108.248   4
   1  -3  20 145.309 109.973  13
  -1   4   0 94.4268 115.768  17
  -1  -4   0 257.730 142.400  17
  -1   4  -1 13774.5 471.057  17
  -1   4   1 13780.7 467.986  17
  -1  -4  -1 12807.6 471.498  17
   1   4  -1 13638.7 480.672  17
   1   4   2 121.030 118.571  17
   1  -4  -2 204.728 126.563  17
   1   4  -2 188.889 131.757  17
  -1  -4  -2 171.074 131.652  17
  -1   4   2 217.241 113.405  17
   1   4  -3-29.1573 127.747  17
  -1   4   3 36.0225 111.280  17
   1  -4  -3-7.10581 104.471  17
  -1   4  -3 4.25268 67.6880   1
   1   4  -3 85.4906 69.5585   1
   1   4  -4 45176.0 432.109   1
   1  -4  -4 43160.6 825.695  17
  -1   4  -4 44943.9 416.214   1
  -1   4  -5 15031.1 253.279   1
  -1   4   5 15104.8 524.570  18
   1   4  -5 15788.2 269.702   1
   1  -4   5 15278.4 248.795  16
   1   4  -6 12689.0 246.718   1
   1  -4   6 12653.5 272.057  22
  -1  -4   6 12543.8 280.937  22
   1  -4   6 12303.5 238.623  16
   1  -4   7 929.058 112.553  22
   1  -4   7 717.963 86.7491  16
  -1  -4   7 977.047 118.004  22
   1  -4   8 58386.0 652.748  22
  -1  -4   8 58953.7 669.056  22
   1  -4   9 6738.40 253.111  22
  -1  -4   9 6536.85 254.491  22
  -1  -4  10 6403.30 270.950  22
   1  -4  10 6371.49 265.447  22
   1  -4  11 2527.43 194.332  22
  -1  -4  11 2505.85 203.054  22
   1  -4  12 22443.9 522.943  22
  -1  -4  12 22392.3 529.014  22
  -1  -4  13 395.689 125.566  22
   1  -4  13 73.4583 117.065  22
  -1   4  14 3064.20 251.219  13
  -1   4  14 3124.12 217.516   5
   1   4  14 3232.39 260.275  13
   1   4  14 3206.23 252.626  11
  -1   4  14 3088.07 224.061   9
   1  -4  14 3221.54 258.472  13
  -1   4  14 2863.10 212.064   6
  -1  -4  14 3310.61 268.100  13
  -1  -4  14 2871.99 243.883  10
   1   4  14 3220.41 213.846   6
   1  -4  14 3287.29 248.158  10
   1  -4  15 135.590 146.213  13
   1   4  15 59.4209 140.697  11
   1  -4  15 58.6589 154.126  10
  -1  -4  15 95.5909 141.748  13
  -1   4  15 122.036 131.947   6
  -1   4  15 328.434 140.266   5
  -1  -4  15-80.6060 131.767   9
  -1  -4  15 219.253 161.613  10
   1  -4  16 1882.36 219.669  13
   1   4  16 1125.48 182.722   4
   1  -4  16 1809.57 222.635  10
  -1  -4  16 1707.64 214.162  13
  -1  -4  16 2017.72 216.545  10
   1  -4  17 178.529 152.847  10
  -1  -4  17 56.6505 146.675  10
   1  -4  17 296.891 143.696  13
  -1  -4  17-184.938 141.538  13
  -1  -4  18 592.341 156.778  13
   1  -4  18 820.196 168.458  13
  -1  -4  18 748.793 175.312  10
   1  -4  18 821.724 166.716  10
  -1  -4  19 114.725 113.196  13
   1  -4  19 3.78184 112.873  13
  -1  -4  19-51.1602 121.983  10
   1  -4  20 29.5285 95.1060  13
  -1  -4  20-114.278 97.0110  13
  -1   5   0 101.673 68.8189   1
   1   5   0 55.9449 71.4695   1
  -1   5  -1 2729.72 127.191   1
  -1   5   1 2749.60 124.222   1
   1   5   1 2457.08 119.833   1
   1   5  -1 2550.54 126.125   1
   1   5   2 29453.3 337.831   1
   1   5  -2 30192.6 373.828   1
  -1   5   2 29075.8 348.710   1
  -1   5  -2 29407.9 363.757   1
   1   5  -3 20666.8 318.873   1
  -1   5  -3 21382.3 317.563   1
   1   5   3 20709.8 280.082   1
   1   5  -4 82183.6 639.873   1
  -1   5  -4 83068.2 625.296   1
   1   5  -5 12523.0 264.786   1
  -1   5  -5 12243.2 253.586   1
   1   5  -6 14216.2 288.942   1
  -1   5  -6 14443.2 279.871   1
   1  -5   7 686.359 103.069  22
  -1  -5   7 599.600 106.197  22
   1  -5   8 5358.27 220.225  22
  -1  -5   8 5651.04 230.000  22
   1  -5   9 14854.4 372.929  22
  -1  -5   9 14792.7 382.974  22
  -1  -5  10 7041.91 292.238  22
   1  -5  10 6825.13 280.555  22
   1  -5  11 3538.82 219.791  22
  -1  -5  11 3850.25 235.225  22
   1  -5  12 9527.26 362.300  22
  -1  -5  12 9565.50 367.987  22
  -1  -5  13-15.6349 124.679  22
   1  -5  13 79.5471 112.138  22
  -1  -5  14 2298.40 243.998  13
  -1   5  14 1972.07 194.190   5
   1   5  14 2215.99 205.793   6
   1  -5  14 1764.00 223.829  13
  -1  -5  14 1892.40 223.657  10
  -1   5  14 1780.68 205.825   6
   1  -5  14 2196.68 228.780  10
   1  -5  15-19.2013 148.933  10
  -1   5  15-204.840 130.503   5
  -1   5  15 46.4159 125.015   6
   1  -5  15 43.7637 132.725  13
  -1  -5  15 66.8003 152.565  10
   1   5  15 0.36388 119.552   6
  -1  -5  15 13.6067 139.552  13
  -1  -5  16 477.390 163.552  13
   1   5  16 517.176 153.040   6
  -1   5  16 359.173 138.025   6
  -1  -5  16 415.400 172.184  10
   1  -5  16 648.422 178.642  10
   1  -5  16 171.454 153.167  13
  -1  -5  17-222.914 136.275  13
  -1  -5  17 75.0513 151.390  10
   1  -5  17-28.9773 125.075  13
   1  -5  17-51.7500 148.817  10
   1  -5  18 1691.61 198.368  10
  -1  -5  18 1530.56 190.997  10
   1  -5  18 1690.27 197.598  13
  -1  -5  18 1314.46 191.498  13
  -1  -5  19 395.979 128.198  13
   1  -5  19 176.413 114.664  13
  -1  -5  19 550.584 139.831  10
   1  -5  20-102.542 93.8742  13
  -1  -5  20 50.3250 91.8679  13
   1   6   0-0.70371 80.9076   1
  -1   6   0 67.2908 69.9563   1
   1   6   1 59327.6 543.411   1
  -1   6  -1 58847.0 555.631   1
  -1   6   1 58268.3 547.899   1
   1   6  -1 57643.8 552.426   1
   1   6  -2 26102.9 383.523   1
   1   6   2 26260.8 357.340   1
  -1   6   2 25868.9 366.906   1
  -1   6  -2 26451.9 383.734   1
   1   6   3 354.146 72.6513   1
   1   6  -3 549.261 94.6415   1
  -1   6  -3 299.604 82.6079   1
  -1   6  -4 21275.0 357.663   1
   1   6  -4 21693.0 366.502   1
  -1   6  -5 40773.3 495.120   1
   1   6  -5 41037.4 504.884   1
  -1   6  -6 7422.59 227.340   1
   1   6  -6 7501.20 235.395   1
  -1  -6   7 3149.73 184.247  22
   1   6  -7 2959.77 160.384   1
   1  -6   7 2988.77 174.794  22
   1  -6   8 29637.3 518.596  22
  -1  -6   8 29440.2 527.249  22
  -1  -6   9 26107.0 520.656  22
   1  -6   9 26098.7 509.994  22
  -1  -6  10 248.232 118.486  22
   1  -6  10 171.028 106.334  22
   1  -6  11 9479.16 354.282  22
  -1  -6  11 10197.2 375.296  22
  -1  -6  12 3310.77 239.850  22
   1  -6  12 3395.90 238.169  22
   1  -6  13 667.279 162.604  13
  -1   6  13 747.285 129.489   5
  -1  -6  13 534.674 141.639  10
   1   6  13 586.855 133.428   6
   1  -6  13 489.814 131.625  22
  -1   6  13 903.413 155.849   6
   1  -6  13 650.082 149.636  10
  -1  -6  13 454.256 151.008  13
   1  -6  14 933.306 183.557  13
   1  -6  14 696.339 174.921  10
  -1  -6  14 766.768 190.020  10
   1   6  14 905.523 175.649   6
  -1   6  14 850.138 159.154   5
  -1   6  14 854.839 170.560   6
  -1  -6  14 1025.95 189.958  13
  -1  -6  15 1174.57 194.153  13
   1  -6  15 1048.45 191.250  13
   1  -6  15 1061.10 189.934  10
   1   6  15 1423.51 181.965   6
  -1   6  15 1403.41 177.972   6
  -1  -6  15 1279.34 205.954  10
   1  -6  16 532.247 165.500  10
  -1  -6  16 505.358 165.902  13
  -1   6  16 516.530 142.574   6
   1   6  16 688.207 151.191   6
   1  -6  16 586.625 160.978  13
  -1  -6  16 638.738 176.037  10
   1  -6  17 114.977 128.161  13
   1   6  17 105.630 117.880   6
  -1  -6  17-16.2080 117.707  13
  -1  -6  17 76.9996 135.219  10
   1  -6  17 49.7291 138.168  10
   1  -6  18-23.6312 111.421  13
   1  -6  18 99.5847 128.362  10
  -1  -6  18 31.4970 111.599  13
  -1  -6  18-97.5780 134.198  10
  -1  -6  19 156.708 120.807  10
  -1  -6  19-16.6992 96.1364  13
   1  -6  19-11.5713 97.0767  13
  -1   7   0-53.7286 83.4313   1
   1   7   0 64.9218 80.8036   1
  -1   7  -1 30834.7 446.697   1
   1   7   1 30247.0 429.113   1
   1   7  -1 31102.1 446.848   1
  -1   7   1 29526.3 431.765   1
   1   7  -2 20998.8 382.278   1
  -1   7   2 20914.9 363.759   1
   1   7   2 20767.1 353.970   1
  -1   7  -2 21235.2 376.411   1
  -1   7  -3 8249.32 243.768   1
   1   7  -3 8667.00 257.144   1
   1   7   3 8530.92 227.852   1
  -1   7  -4 19773.0 372.048   1
   1   7  -4 19392.2 376.625   1
   1   7  -5 363.159 100.171   1
  -1   7  -5 296.544 92.2733   1
  -1   7  -6 20040.1 390.884   1
   1   7  -6 19866.9 396.345   1
   1  -7   7 140.039 91.9791  22
   1   7  -7 493.695 105.533   1
   1  -7   8 3436.65 202.050  22
  -1  -7   8 3118.37 200.674  22
  -1  -7   9 165.954 107.472  22
   1  -7   9 203.708 109.201  22
   1  -7  10 10037.3 356.504  22
  -1  -7  10 10327.6 368.311  22
   1  -7  11 4423.50 262.048  22
  -1  -7  11 4357.83 268.606  22
   1  -7  12 9110.95 373.893  22
  -1  -7  12 8886.85 379.708  22
   1  -7  13 745.213 178.605  13
   1   7  13 700.317 149.400   6
  -1   7  13 700.370 154.012   6
  -1   7  13 627.414 142.698   5
  -1  -7  13 449.724 161.236  10
  -1  -7  13 509.712 179.942  13
  -1   7  14 2174.86 210.894   6
   1  -7  14 2199.68 245.659  13
  -1  -7  14 1846.64 214.035  10
   1  -7  14 2305.05 223.701  10
   1   7  14 2172.06 206.125   6
  -1  -7  14 2081.83 237.221  13
  -1   7  14 2394.25 213.817   5
  -1  -7  15 698.991 171.308  13
  -1  -7  15 305.137 162.082  10
   1   7  15 360.807 139.794   6
   1  -7  15 455.955 158.545  13
   1  -7  15 297.591 155.925  10
  -1   7  15 449.412 146.888   6
  -1  -7  16 294.004 150.558  13
   1  -7  16 276.637 145.452  10
  -1  -7  16 374.869 156.517  10
   1   7  16 401.700 139.954   6
   1  -7  16 448.061 150.137  13
  -1   7  16 455.174 150.188   6
   1   7  17 103.833 125.721   6
  -1  -7  17 235.545 132.957  13
  -1  -7  17 239.588 137.210  10
   1  -7  17 146.548 132.850  10
   1  -7  17 95.4169 128.434  13
  -1  -7  18 315.398 139.686  10
   1  -7  18 446.646 134.798  10
   1  -7  18 489.969 134.563  13
  -1  -7  18 434.621 130.363  13
   1  -7  19-42.9620 91.1418  13
  -1  -7  19 34.4646 107.938  10
  -1  -7  19 32.7932 91.4818  13
   1   8   0-73.3757 95.5320   1
  -1   8   0-17.1472 95.7446   1
  -1   8  -1 26974.5 452.253   1
  -1   8   1 26097.0 444.404   1
   1   8  -1 26275.1 446.587   1
   1   8   1 26460.9 437.639   1
   1   8   2 20891.0 384.881   1
   1   8  -2 21983.4 416.997   1
  -1   8   2 20590.4 392.145   1
  -1   8  -2 20497.0 403.487   1
  -1   8  -3 1024.84 123.385   1
   1   8  -3 1108.13 122.833   1
   1   8   3 1096.97 110.648   1
  -1   8  -4 1315.50 130.627   1
   1   8  -4 1116.47 128.700   1
   1   8  -5 20345.1 423.665   1
  -1   8  -5 20705.9 419.448   1
  -1   8  -6 7088.37 258.669   1
   1   8  -6 7340.22 270.302   1
   1   8  -7 4481.83 219.930   1
   1  -8   8 2395.13 188.063  22
  -1  -8   8 2672.68 202.301  22
   1  -8   9 6124.68 284.524  22
  -1  -8   9 6355.01 299.163  22
  -1  -8  10-31.4809 120.747  22
   1  -8  10-137.029 116.927  22
   1  -8  11 3359.70 243.423  22
  -1  -8  11 3373.00 244.948  22
   1   8  12 247.770 133.490   6
  -1   8  12 293.204 123.358   5
  -1   8  12 533.038 143.985   6
  -1  -8  12 290.290 155.556  10
  -1  -8  12 481.415 157.970  13
   1  -8  12 454.763 160.323  13
  -1  -8  13 199.726 144.031  13
  -1  -8  13 60.0007 154.075  10
  -1   8  13 250.261 123.115   5
   1  -8  13 48.7104 136.647  13
   1   8  13 22.9853 127.674   6
  -1   8  13 204.746 137.238   6
  -1  -8  14 322.117 155.765  10
  -1  -8  14 320.975 149.581  13
   1  -8  14 257.061 142.816  13
  -1   8  14 461.780 154.489   6
   1   8  14 345.560 139.138   6
   1   8  15 2390.07 219.307   6
  -1  -8  15 2429.48 226.634  10
   1  -8  15 2634.71 251.291  13
  -1   8  15 2382.59 221.160   6
  -1  -8  15 2512.86 247.571  13
  -1   8  16 43.9181 129.142   6
   1  -8  16 183.773 131.278  13
   1   8  16-63.5531 120.082   6
  -1  -8  16 74.0062 136.812  10
  -1  -8  16 91.7108 134.464  13
   1   8  17-132.580 121.297   6
  -1  -8  17 58.6469 116.516  13
  -1  -8  17 64.9581 131.123  10
   1  -8  17 112.232 129.572  13
  -1  -8  18 272.304 111.492  13
  -1  -8  18 349.594 128.231  10
   1  -8  18 396.217 120.577  13
   1  -8  19 3.57431 86.6441  13
  -1  -8  19 118.374 89.7683  13
   1   9   0 131.658 94.9362   1
  -1   9   0 271.644 101.405   1
  -1   9   1 3414.72 194.489   1
  -1   9  -1 3619.14 197.729   1
   1   9  -1 3590.34 200.132   1
   1   9   1 3229.22 181.104   1
   1   9   2 1157.06 126.503   1
   1   9  -2 1220.23 143.924   1
  -1   9  -2 1059.02 134.336   1
   1   9  -3 34776.9 567.252   1
   1   9   3 34640.2 529.196   1
  -1   9  -3 34478.6 564.362   1
   1   9  -4 727.757 122.185   1
  -1   9  -4 626.668 116.683   1
  -1   9  -5 25453.8 503.098   1
   1   9  -5 25516.0 512.224   1
   1   9  -6 442.007 111.061   1
  -1   9  -6 332.762 102.173   1
  -1   9  -7 1959.62 170.362   1
   1   9  -7 1869.59 169.154   1
  -1  -9   8 1125.30 157.325  22
   1  -9   8 1108.78 154.816  22
  -1  -9   9 12470.1 421.123  22
   1  -9   9 11996.0 404.567  22
   1  -9  10 1404.35 173.326  22
  -1  -9  10 1536.66 183.909  22
   1  -9  11 10693.5 446.006  13
  -1   9  11 11587.0 381.033   6
  -1  -9  11 10656.7 444.106  13
   1   9  11 11982.1 388.561   6
   1  -9  12 536.439 165.913  13
  -1   9  12 187.196 133.989   6
  -1  -9  12-51.3670 156.582  13
  -1   9  12 282.802 126.960   5
   1   9  12 229.072 134.915   6
  -1  -9  13 1549.78 213.796  13
   1   9  13 1292.75 185.234   6
  -1   9  13 1613.57 177.081   5
   1  -9  13 1529.51 203.646  13
  -1   9  13 1313.18 182.126   6
  -1  -9  14-41.2643 139.370  10
  -1   9  14 324.859 146.545   6
   1   9  14 104.460 132.653   6
  -1  -9  14 220.478 144.647  13
   1  -9  14 343.612 150.773  13
  -1  -9  15 343.423 146.364  10
  -1   9  15 249.955 133.153   6
  -1  -9  15 95.5231 128.466  13
   1  -9  15 124.902 130.005  13
   1   9  15 461.089 139.064   6
  -1  -9  16 24.6163 114.869  13
  -1   9  16 42.0097 109.969   6
  -1  -9  16 91.6539 125.336  10
   1   9  16-255.709 128.796   6
   1  -9  16-6.75611 112.294  13
  -1  -9  17 313.778 119.517  13
  -1  -9  17 63.8915 118.006  10
   1   9  17 328.126 114.481   6
   1  -9  17 354.013 123.339  13
  -1  -9  18 177.845 100.480  13
  -1  -9  18 126.099 104.762  10
   1  -9  18 78.0449 90.4185  13
  -1  10   0 144.984 119.612   1
   1  10   0 98.8522 127.676   1
   1  10   1 13055.1 372.181   1
  -1  10  -1 12963.5 375.424   1
  -1  10   1 13230.0 377.362   1
   1  10  -1 12759.5 371.919   1
  -1  10  -2 36882.4 623.113   1
   1  10  -2 37153.9 623.233   1
   1  10   2 36835.1 598.736   1
  -1  10  -3 4435.50 239.929   1
   1  10  -3 4590.60 240.324   1
   1  10  -4 1235.26 148.016   1
  -1  10  -4 1140.35 146.987   1
   1  10  -5 409.988 116.803   1
  -1  10  -5 532.273 119.200   1
   1  10  -6 7550.23 306.919   1
  -1  10  -6 7451.87 301.684   1
   1  10  -7-185.967 117.794   1
  -1  10  -7-237.306 110.922   1
  -1 -10   8 4523.44 277.522  22
   1 -10   8 4397.49 262.405  22
   1 -10   9 2518.66 218.129  22
  -1 -10   9 2360.25 223.207  22
  -1  10  10 333.384 121.709  19
  -1  10  10 441.195 144.702   6
   1  10  10 252.147 132.477   6
  -1  10  11 350.249 142.170   6
   1  10  11 533.150 155.091   6
  -1 -10  11 324.969 159.215  13
   1 -10  11 354.988 156.987  13
  -1 -10  12 611.955 166.519  13
  -1  10  12 778.017 154.011   5
   1 -10  12 557.442 166.516  13
  -1  10  12 624.601 163.324   6
   1  10  12 782.949 160.292   6
  -1 -10  13-340.855 158.731  13
   1 -10  13-149.925 144.538  13
   1  10  13-23.3864 123.691   6
  -1  10  13 17.5320 116.135   5
  -1  10  13-130.050 134.296   6
  -1  10  14 525.627 162.060   6
   1  10  14 422.843 139.449   6
  -1 -10  14 306.286 154.172  13
   1 -10  14 385.019 153.971  13
   1  10  15 214.536 123.589   6
   1 -10  15-108.595 121.515  13
  -1  10  15-1.13518 113.152   6
  -1 -10  15-5.73347 125.321  13
  -1  10  16 64.1729 112.435   6
  -1 -10  16-71.9765 111.138  13
   1 -10  16 79.0755 110.017  13
   1  10  16-198.250 119.575   6
   1  10  17-43.1320 93.7913   6
  -1 -10  17-47.9042 95.2511  13
   1 -10  17 224.600 109.688  13
   1  11   0 63.9925 106.223   1
   1  11  -1 878.014 152.352   1
  -1  11  -1 837.377 147.900   1
   1  11   1 871.077 141.963   1
   1  11  -2 10714.8 378.160   1
   1  11   2 11309.8 361.439   1
  -1  11  -2 11237.1 384.191   1
  -1  11  -3 467.067 126.730   1
   1  11  -3 616.367 128.917   1
  -1  11  -4 25483.7 566.143   1
   1  11  -4 25615.4 571.529   1
  -1  11  -5 4572.32 260.179   1
   1  11  -5 4761.12 264.342   1
   1  11  -6 4836.20 269.864   1
  -1  11  -6 5262.39 281.794   1
   1  11  -7 151.436 109.998   1
  -1  11  -7 541.462 138.104   1
  -1  11   8 758.226 151.052   7
  -1  11   8 766.385 149.313  19
   1  11   8 925.425 149.057   6
  -1  11   9 6532.47 298.686   6
  -1  11   9 6186.10 301.675  19
   1  11   9 6512.80 297.998   6
   1  11  10 2448.56 209.667   6
  -1  11  10 2674.26 208.318  19
  -1  11  10 2887.55 223.805   6
  -1  11  11 98.0265 124.802   6
   1  11  11 128.558 134.448   6
   1 -11  11 13.5862 138.901  13
  -1 -11  11-118.161 142.310  13
   1 -11  12 1569.25 209.185  13
   1  11  12 1704.71 184.740   6
  -1 -11  12 1388.47 202.691  13
  -1  11  12 1508.44 186.738   6
  -1  11  12 1502.64 177.859   5
   1  11  13-15.8051 125.076   6
  -1 -11  13 31.4193 127.217  13
  -1  11  13 7.32019 124.739   6
   1 -11  13 7.51360 129.346  13
  -1  11  14 545.255 134.067   6
   1  11  14 598.367 141.839   6
  -1 -11  14 583.040 152.860  13
   1 -11  14 380.963 143.064  13
  -1 -11  15 220.500 121.559  13
   1 -11  15 61.6058 106.100  13
  -1  11  15 91.1359 106.697   6
   1  11  15 388.049 120.825   6
   1 -11  16 425.194 118.549  13
   1  11  16 486.045 123.661   6
  -1 -11  16 331.906 120.150  13
   1 -11  17 56.0219 88.3067  13
  -1 -11  17 140.263 90.7805  13
   1  12   0 110.974 110.137   1
   1  12  -1 14556.3 453.423   1
   1  12   1 15445.6 449.367   1
   1  12   2 167.422 117.143   1
   1  12  -2 104.404 123.451   1
  -1  12  -3 1927.83 195.686   1
   1  12  -3 1888.24 193.833   1
  -1  12  -4 74.3074 119.170   1
   1  12  -4 307.882 136.657   1
   1  12  -5 11954.5 426.385   1
  -1 -12   6 247.579 155.073   3
   1 -12   6-82.9319 158.925   3
  -1  12   6 109.444 120.149  19
  -1  12   6 155.006 137.223   7
  -1 -12   7-41.6882 147.724   3
  -1  12   7-92.1577 144.058   7
   1  12   7-125.554 134.358   7
  -1  12   7 117.745 128.617  19
   1  12   8 15.4589 124.374   6
   1  12   8 314.263 147.252   7
  -1  12   8 85.8017 128.173  19
  -1  12   8-32.4853 141.294   7
  -1  12   9 1861.14 191.630  19
   1  12   9 2225.32 199.856   6
  -1  12  10 119.045 133.639   6
   1  12  10 226.997 128.737   6
  -1  12  10 312.017 125.507  19
   1  12  11 635.863 146.046   6
  -1 -12  11 19.1212 140.471  13
  -1  12  11 367.157 130.428   6
   1 -12  11 291.017 152.195  13
  -1 -12  12-3.67492 135.584  13
   1  12  12 164.777 129.715   6
  -1  12  12-192.351 118.063   5
  -1  12  12 177.125 130.766   6
   1 -12  12-86.4148 144.913  13
   1 -12  13 194.719 135.763  13
  -1  12  13 87.6419 115.594   6
  -1 -12  13-159.424 137.758  13
   1  12  13 89.2678 109.708   6
  -1 -12  14 163.278 127.778  13
   1 -12  14-91.8916 127.259  13
   1 -12  14 122.189 113.427  21
   1  12  14-2.52521 98.6019   6
  -1  12  14-66.3943 104.686   6
  -1  12  15 178.776 100.036   6
  -1 -12  15 485.656 125.119  13
   1  12  15 192.839 97.6129   6
   1 -12  15 134.324 103.378  13
  -1 -12  16 116.745 94.3962  13
   1 -12  16 54.7502 86.9674  13
   1  12  16 267.894 90.0997   6
  -1 -13   0 53.6708 142.717   3
  -1  13   0 118.909 112.332   7
   1  13   0-70.8424 111.133   1
   1 -13   1 3919.75 265.796   3
  -1 -13   1 3325.38 263.103   3
  -1  13   1 3805.17 243.411   7
   1  13   1 3320.75 240.225   1
  -1 -13  -1 3432.27 243.079   3
   1 -13   2 6615.60 320.137   3
  -1 -13   2 7148.55 336.381   3
  -1 -13  -2 6617.16 312.641   3
  -1  13   2 6965.17 316.081   7
  -1 -13   3 5698.99 307.479   3
  -1  13   3 4810.92 272.566   7
   1 -13   3 4919.81 293.936   3
  -1 -13   4 2948.70 250.119   3
  -1  13   4 2737.07 226.984   7
  -1  13   5 2140.45 211.313   7
  -1  13   5 2451.69 219.854  19
  -1 -13   5 1978.15 236.262   3
  -1 -13   6 179.781 166.917   3
  -1  13   6 12.6553 116.582  19
   1  13   6-115.255 142.078   7
  -1  13   6 121.095 138.841   7
  -1 -13   7 2572.71 237.522   3
  -1  13   7 2556.81 207.198  19
  -1  13   7 2630.20 219.503   7
   1  13   7 2559.00 218.367   7
  -1  13   8 207.679 138.437   7
   1  13   8 464.760 149.580   7
  -1  13   8 247.303 121.727  19
  -1  13   9 144.496 130.239   7
  -1  13   9 46.4639 108.801  19
   1  13   9 131.791 127.644   6
   1 -13  10 1120.97 189.391  13
  -1  13  10 976.876 149.385  19
  -1 -13  10 1020.60 181.999  13
   1  13  10 1121.98 160.735   6
   1 -13  11 937.341 174.428  13
   1  13  11 1210.63 160.672   6
  -1  13  12 906.291 140.817   6
   1 -13  12 697.318 167.812  13
   1  13  12 958.822 147.371   6
  -1 -13  12 645.331 157.138  13
   1 -13  13 571.425 142.556  13
   1  13  13 689.869 129.210   6
  -1 -13  13 458.409 137.421  13
  -1  13  13 430.619 118.530   6
  -1  13  14 96.3566 103.587   6
   1 -13  14-265.495 110.897  21
   1 -13  14-100.174 96.4189  13
  -1 -13  14 64.1033 97.1325  13
   1  13  14-135.783 91.0693   6
   1  13  15 20.1792 83.1287   6
  -1 -13  15-19.5984 87.7898  13
   1 -13  15 26.2125 85.3695  13
  -1  14   0-10.0066 137.800   7
  -1 -14   0-137.904 167.406   3
  -1 -14  -1-178.276 166.164   3
  -1  14   1 81.9511 137.397   7
  -1 -14   1-15.9489 166.853   3
  -1  14   2 1795.10 206.956   7
  -1 -14  -2 1756.32 208.613   3
  -1 -14   2 1442.58 207.429   3
  -1 -14   3 313.575 168.944   3
  -1  14   3 220.303 146.326   7
  -1 -14   4 1121.61 210.294   3
   1  14   4 1056.93 182.621   7
  -1  14   4 1049.21 180.775   7
  -1  14   5-51.4179 118.407  19
  -1  14   5 57.3216 135.556   7
   1  14   5 162.712 136.361   7
  -1 -14   5-19.7381 176.756   3
  -1  14   6 288.991 134.438  19
  -1  14   6-126.215 142.228   7
   1  14   6 271.566 141.586   7
  -1 -14   6 194.808 162.188   3
  -1 -14   7 7.70971 155.714   3
  -1  14   7 64.2780 106.747  19
  -1  14   7-177.454 141.142   7
   1  14   7-59.7018 146.076   7
  -1  14   8 2103.55 205.711   7
   1  14   8 1814.57 200.468   7
  -1  14   8 2148.10 189.030  19
  -1  14   9-33.2243 126.906   7
   1  14   9 26.1914 119.284   7
  -1  14   9 148.582 107.736  19
   1 -14  10 196.408 132.059  13
  -1 -14  10 137.146 129.343  13
  -1  14  10 102.803 100.699  19
  -1 -14  11 172.599 129.884  13
   1  14  11 264.938 118.947   6
   1 -14  11 160.290 119.709  13
   1 -14  12 581.920 135.212  13
   1  14  12 765.464 122.042   6
  -1 -14  12 773.570 153.746  13
   1 -14  13 51.1860 107.325  21
  -1 -14  13 126.759 96.6353  13
   1  14  13-119.459 98.6400   6
   1 -14  13 15.6489 94.6035  13
   1  15   0-159.641 134.355   7
  -1  15   0-26.7345 136.240   7
   1  15  -1-42.2623 132.336   7
  -1 -15   1-15.3764 175.438   3
  -1  15   1-50.2255 127.598   7
   1  15   1-147.655 138.549   7
   1  15   2 65.2521 141.840   7
  -1 -15   2-85.2622 168.759   3
  -1  15   2 129.053 133.702   7
  -1  15   3 2443.56 211.292   7
   1  15   3 2301.84 215.930   7
  -1 -15   3 2450.38 246.401   3
  -1  15   4 899.919 156.475  19
  -1 -15   4 795.887 200.171   3
  -1  15   4 1051.72 175.867   7
   1  15   4 1102.56 149.786  19
   1  15   4 820.251 168.024   7
   1  15   5 4445.64 262.253   7
  -1  15   5 4539.54 262.522  19
  -1  15   5 4615.26 267.772   7
  -1  15   6 511.334 145.865   7
   1  15   6 478.908 147.242   7
  -1  15   6 435.059 127.489  19
  -1  15   7 298.309 119.907  19
  -1  15   7 398.223 146.173   7
   1  15   7 281.755 141.270   7
   1  15   8 137.417 122.836   7
  -1  15   8 220.517 111.414  19
  -1  15   8 290.679 128.098   7
   1  15   9 1403.04 161.445   7
  -1  15   9 1421.38 165.006   7
  -1  15   9 1634.06 163.535  19
   1 -15  10 112.042 112.271  13
  -1 -15  10 50.9793 108.758  13
  -1 -15  11 457.016 119.227  13
   1 -15  11 348.422 113.392  13
  -1 -15  12 162.945 95.4220  13
   1 -15  12-45.2602 91.9725  13
   1  16   0 0.94866 128.568   7
  -1  16   0 38.3004 130.141   7
   1  16   1 466.315 146.641   7
  -1  16   1 388.519 136.154   7
  -1  16   2-12.8472 124.313   7
   1  16   2-59.3791 121.275   7
  -1  16   3 119.963 124.974   7
   1  16   3 230.625 116.626  19
  -1  16   3 133.862 105.173  19
   1  16   3 150.172 133.558   7
   1  16   4 17.1688 99.0274  19
  -1  16   4 111.735 103.217  19
  -1  16   4 163.767 131.776   7
   1  16   4 94.9071 126.618   7
  -1  16   5 1059.12 143.191  19
   1  16   5 1022.82 157.868   7
  -1  16   5 1490.62 171.917   7
  -1  16   6-65.1200 105.463  19
   1  16   6-62.0896 119.183   7
  -1  16   6-191.704 133.418   7
  -1  16   7 558.444 115.981  19
  -1  16   7 409.711 124.796   7
   1  16   7 402.702 129.588   7
  -1  16   8 87.5632 93.8071  19
   1  16   8-66.8011 109.978   7
  -1  16   8 15.8025 111.162   7
   1 -16   9 464.108 126.633  13
  -1  16   9 563.174 116.061   7
  -1 -16   9 561.137 129.259  13
   1  16   9 536.172 117.421   7
  -1 -16  10 10.2026 93.1489  13
   1 -16  10 170.185 101.368  13
   1  17   0-132.337 115.556   7
  -1  17   0 123.430 107.558   7
  -1  17   1-61.7392 116.135   7
   1  17   1 171.933 119.475   7
  -1  17   2 798.991 134.952  19
   1  17   2 964.301 135.228  19
   1  17   2 1061.49 150.836   7
  -1  17   2 763.384 136.932   7
   1  17   3 73.6194 114.226   7
  -1  17   3-20.2281 108.376   7
   1  17   3 84.3414 93.9219  19
  -1  17   3 27.3359 97.4911  19
   1  17   4 757.402 142.342   7
  -1  17   4 1098.63 135.111  19
  -1  17   4 1014.46 145.593   7
  -1  17   5 734.979 118.567  19
   1  17   5 821.935 130.209   7
  -1  17   5 741.433 139.215   7
   1  17   6 502.730 119.218   7
  -1  17   6 330.605 103.946  19
  -1  17   6 339.057 110.440   7
  -1  17   7 181.873 105.498   7
  -1  17   7-37.9594 77.7896  19
   1  17   7 2.57302 95.2805   7
  -1 -17   8 130.823 96.0973  13
   1 -17   8 81.8601 97.0984  13
  -1  17   8-23.3806 95.7981   7
   1  17   8 67.1807 93.9898   7
  -1  18   0-37.7778 82.7146  19
   1  18   0-148.936 83.8281  19
  -1  18   1-95.1167 98.8369   7
  -1  18   1 54.3654 85.8528  19
   1  18   1-69.0157 100.562   7
   1  18   1-58.3619 81.5994  19
   1  18   2 527.229 115.964   7
   1  18   2 520.413 99.9291  19
  -1  18   2 230.937 92.1130  19
  -1  18   2 439.710 109.704   7
  -1  18   3 64.4090 81.9452  19
   1  18   3 114.327 95.7011   7
  -1  18   3-165.380 100.358   7
  -1  18   4-111.709 91.0896   7
   1  18   4 94.5853 91.9926   7
  -1  18   4 179.894 81.8123  19
   1  18   5 8.51243 87.9136   7
  -1  18   5 126.403 87.7638   7
  -2   0   0 46102.8 463.648  18
  -2   0   0 46480.9 354.309  15
  -2   0   1 29.1572 63.1853  15
  -2   0  -1 15.3404 80.3314  18
   2   0  -2 294672. 1512.22  15
  -2   0   2 294738. 1499.77  15
  -2   0  -2 294098. 1660.76  18
  -2   0  -3 12.9017 107.708  18
  -2   0   3 38.6438 95.8255  15
  -2   0  -3 66.9839 65.7030  15
   2   0  -3 39.5369 94.4705  15
   2   0  -4 22884.9 563.031  15
  -2   0  -4 22636.3 443.483  15
   2   0  -4 20888.3 324.718  18
  -2   0  -4 22548.9 587.724  18
   2   0   5 214.823 66.0200  16
  -2   0   5 57.1327 65.2585  22
   2   0  -5 2.14606 73.8125  18
  -2   0  -5 39.0962 93.3517  15
  -2   0  -6 233723. 1860.90  15
   2   0   6 237640. 1068.07  16
   2   0   6 238838. 1004.90  22
  -2   0   6 238364. 1039.36  22
   2   0   7-19.7869 74.2115  22
   2   0   7 50.5491 71.3380  16
  -2   0   7-28.3017 73.9881  22
  -2   0   8 110912. 838.355  22
   2   0   8 111174. 821.265  22
   2   0   8 110311. 841.769  16
  -2   0   9-38.6187 92.0614  22
   2   0   9-88.6451 92.5345  22
   2   0  10 1217.20 129.008  22
  -2   0  10 1333.56 137.977  22
  -2   0  11 9.96848 102.076  22
   2   0  11 21.1845 91.5600  22
  -2   0  12 401.687 127.834  22
   2   0  12 767.384 141.034  22
   2   0  13-133.114 119.104  22
  -2   0  13-214.473 131.657  22
  -2   0  14 3422.95 245.310  22
   2   0  15-105.899 162.882  10
  -2   0  15 19.3348 134.410   9
   2   0  15-109.011 132.239  11
  -2   0  15-126.539 153.959  10
   2   0  15-47.6243 130.921  13
  -2   0  15-17.9679 132.320  13
   2   0  16 7587.34 350.506  11
  -2   0  16 6677.64 355.749  13
  -2   0  16 6630.93 334.417   9
   2   0  16 7094.98 359.588  13
  -2   0  16 6606.63 336.565  10
   2   0  17 68.4997 142.254  11
   2   0  17 138.499 136.704  13
  -2   0  17 112.182 134.262  13
  -2   0  17-6.77582 135.769   9
  -2   0  17-123.409 155.599  10
  -2   0  18 279.461 153.664  13
   2   0  18 107.756 137.229  11
  -2   0  18-77.5051 150.947  10
   2   0  18 235.657 138.059  13
   2   0  19-101.552 127.669  11
  -2   0  19-32.2999 122.027  13
   2   0  19 135.962 131.952  13
   2   0  20 286.651 117.473   4
   2   0  21-378.830 101.594   4
  -2  -1   0 114444. 853.661  17
   2   1   1 26834.2 471.913  18
  -2  -1   1 25774.5 373.462  17
   2   1  -1 25456.5 364.953  17
  -2  -1   2 13807.7 357.681  15
   2  -1  -2 13575.2 336.667  15
   2   1  -2 13865.4 266.400  17
   2  -1   2 13813.4 201.025  15
   2   1  -3 67365.8 612.076  17
  -2  -1  -3 66876.8 930.151  18
   2  -1  -3 66885.4 854.421  15
  -2  -1   3 67027.9 875.400  15
   2  -1  -4 887.263 82.8051  17
  -2  -1  -4 689.799 161.407  18
  -2  -1   4 617.180 142.855  15
   2  -1  -4 467.019 128.618  15
   2   1   5 388.421 73.8317  16
  -2   1   5 312.080 71.7936  22
  -2  -1   5 319.653 75.0926  22
   2  -1   5 303.127 68.6172  16
  -2  -1   6 12091.3 249.488  22
   2   1   6 12270.8 242.897  22
  -2   1   6 11873.2 245.756  22
   2  -1   6 12919.7 255.279  16
   2  -1   6 12145.0 239.962  22
  -2  -1  -6 11869.1 447.072  15
   2   1   6 13045.5 261.156  16
   2   1   7 3086.17 144.816  22
   2  -1   7 2965.92 143.860  16
  -2   1   7 2960.35 146.902  22
   2   1   7 3068.41 148.488  16
  -2  -1   7 2957.66 148.297  22
   2  -1   7 3113.22 140.384  22
   2   1   8 4139.18 178.899  22
   2  -1   8 4197.91 184.604  16
   2  -1   8 4558.88 183.817  22
  -2   1   8 4374.54 190.768  22
  -2  -1   8 4069.22 182.259  22
  -2  -1   9 3568.56 187.070  22
   2  -1   9 3474.61 177.926  22
  -2   1   9 3805.87 189.518  22
   2   1   9 3734.27 184.593  22
   2  -1   9 3647.21 179.826  16
  -2   1  10 11094.6 321.245  22
  -2  -1  10 11175.9 324.492  22
   2   1  10 10922.9 315.413  22
   2  -1  10 10953.7 313.940  22
  -2   1  11 2270.70 177.101  22
   2  -1  11 2177.90 169.589  22
  -2  -1  11 2252.92 182.005  22
   2  -1  12 31.2472 100.518  22
  -2   1  12 117.259 111.661  22
  -2  -1  12 149.518 119.319  22
  -2  -1  13 1221.98 164.570  22
   2  -1  13 826.842 149.283  22
   2  -1  14 316.996 128.289  22
  -2  -1  14 369.242 126.180  22
   2   1  15 433.205 150.473  12
  -2  -1  15 215.501 144.311   9
  -2   1  15 157.178 148.646  13
   2   1  15 371.219 156.244  13
  -2   1  15 30.5321 150.983  10
   2  -1  15 198.734 140.258  13
  -2  -1  15 96.5239 133.072  13
   2  -1  15 199.359 162.915  10
  -2  -1  15 275.113 162.068  10
  -2   1  15 404.026 152.457   9
   2   1  15 272.284 143.590  11
   2  -1  15 220.282 141.851  11
  -2   1  16 1050.38 190.216  10
   2  -1  16 1160.72 177.583  11
  -2  -1  16 1188.02 196.232  10
   2  -1  16 1237.13 200.477  13
  -2   1  16 1231.27 201.865   9
   2   1  16 1339.52 196.286  11
   2  -1  16 1271.33 206.329  10
  -2  -1  16 1382.49 196.230   9
  -2  -1  16 1410.93 205.431  13
  -2   1  16 1003.11 188.089  13
   2   1  16 930.258 185.511  13
  -2  -1  17-311.225 151.452  10
  -2   1  17-31.9584 145.859  10
   2  -1  17-19.2101 131.272  11
   2   1  17-29.3415 132.336  11
   2   1  17 155.813 139.620  13
  -2  -1  17-211.058 159.378   9
  -2   1  17 64.3497 136.548  13
   2  -1  17 46.4564 131.944  13
  -2  -1  17-213.941 141.481  13
  -2  -1  18 73.1800 141.856  10
   2  -1  18 238.172 131.147  13
   2   1  18 234.893 132.968  13
  -2  -1  18 35.9785 119.369  13
   2  -1  18 235.199 134.400  11
   2   1  18 407.567 149.857  11
  -2   1  18 167.419 126.580  13
  -2  -1  19 317.127 131.689  13
   2  -1  19 356.856 136.065  11
   2   1  19 193.295 125.431   4
   2   1  19 268.217 130.371  11
   2   1  19 324.326 126.246  13
   2  -1  19 369.641 129.668  13
  -2   1  19 521.244 142.383  13
   2  -1  20 290.701 116.292  11
   2   1  20-179.352 121.896   4
   2  -1  20-360.429 129.642   4
   2  -1  20 8.21541 102.466  13
  -2  -1  20-13.7082 103.021  13
   2  -1  21-47.9999 93.9543   4
  -2  -2   0 42163.6 627.611  17
   2   2   0 41661.3 629.120  17
  -2  -2   1 549880. 2152.94  17
  -2  -2  -1 547685. 2423.20  17
  -2   2   1 547727. 1841.84  17
   2   2  -2 126422. 1035.75  17
  -2   2   2 122009. 826.803  17
  -2  -2  -2 123937. 1225.74  17
   2  -2  -3 22433.8 358.298  17
   2  -2   3 21870.6 389.992  15
   2   2  -3 22539.0 458.293  17
  -2   2   4 12964.7 300.577  18
   2   2  -4 12643.9 364.676  17
   2  -2  -4 13392.6 303.955  17
  -2  -2   4 13278.6 469.989  15
   2  -2   4 13462.9 358.292  15
   2   2   4 13551.2 489.133  18
   2  -2   5 37120.0 375.964  22
  -2  -2   5 37212.2 398.039  22
   2   2   5 37004.6 399.225  16
  -2   2   5 36833.5 391.171  22
   2  -2   5 36864.7 660.328  15
   2  -2   6 20806.8 313.130  22
   2   2   6 20672.7 325.173  16
  -2  -2   6 19997.3 322.124  22
   2  -2   6 19886.5 321.578  16
   2   2  -6 19186.6 273.435   1
  -2   2   6 19775.4 320.869  22
  -2  -2   7 6506.79 207.673  22
   2  -2   7 6655.41 205.713  16
   2  -2   7 6723.84 204.229  22
  -2   2   7 6778.89 206.992  22
  -2   2   8 8392.94 254.064  22
  -2  -2   8 8570.61 256.943  22
   2  -2   8 9013.21 247.162  16
   2  -2   8 8698.83 242.697  22
  -2   2   9 59355.2 685.353  22
   2  -2   9 60916.9 669.216  22
  -2  -2   9 61060.6 696.766  22
   2  -2   9 59241.8 662.554  16
  -2  -2  10 194.158 107.187  22
   2  -2  10 63.7678 88.1313  22
   2  -2  11 6700.10 270.338  22
  -2  -2  11 6690.40 279.548  22
  -2  -2  12 27.3791 102.478  22
   2  -2  12 114.062 98.5503  22
  -2  -2  13 25625.7 584.446  22
   2  -2  13 26451.1 576.224  22
  -2  -2  14 155.983 121.743  22
   2  -2  14 404.987 124.119  22
   2  -2  15 4684.48 296.773  13
  -2  -2  15 4584.77 287.293  10
  -2  -2  15 4253.22 287.611  13
   2   2  15 4398.22 289.913  13
  -2   2  15 4489.54 296.490  13
   2  -2  15 3961.11 276.053  10
   2   2  15 4589.49 281.469  12
   2   2  15 4496.62 283.722  11
  -2  -2  15 4437.32 272.506   9
   2  -2  15 4544.20 276.277  11
  -2   2  15 3780.07 261.013   9
  -2   2  16 29.1752 136.418  13
   2  -2  16 603.427 176.027  10
   2  -2  16 705.463 170.251  13
   2   2  16 436.585 154.878  11
   2  -2  16 500.864 157.492  11
  -2   2  16 404.414 160.925   9
  -2  -2  16 309.701 156.743  10
  -2  -2  16 433.305 152.997   9
   2   2  16 72.8454 134.714  13
  -2  -2  16 482.389 160.069  13
   2  -2  17 449.084 153.440  11
  -2   2  17-85.6828 132.460  13
   2   2  17 57.3167 126.273  13
  -2  -2  17 41.0266 153.293  10
   2  -2  17 133.743 132.711  13
   2   2  17 139.386 137.571  11
  -2  -2  17 77.2791 138.599  13
  -2  -2  18 50.2832 130.101  13
   2  -2  18-139.934 128.320  11
   2   2  18-52.6599 130.668  11
   2   2  18-294.889 152.288   4
   2  -2  18-137.742 129.760  13
  -2  -2  18-96.9300 148.859  10
   2  -2  19-78.8313 116.120  11
  -2  -2  19-19.4823 131.014  10
  -2  -2  19 286.590 129.695  13
   2  -2  19 154.461 124.904  13
  -2  -2  20 117.015 103.736  13
   2   2  20-4.31126 102.671   4
   2  -2  20 86.7310 97.4025  13
   2   3   0 30459.0 631.479  17
  -2  -3   0 29604.6 625.544  17
  -2  -3   1 179413. 1480.15  17
   2   3  -1 182375. 1488.90  17
  -2   3   1 179891. 1350.81  17
   2   3  -2 79396.1 996.239  17
  -2   3   2 77174.9 864.692  17
  -2  -3  -2 76499.6 1075.50  17
  -2  -3  -3 1301.83 186.515  17
   2  -3  -3 1497.21 137.818  17
   2   3  -3 1325.31 159.890  17
  -2   3   3 1333.76 132.050  17
   2   3  -4 41631.1 399.797   1
   2  -3  -4 41583.4 640.788  17
   2   3  -4 41080.1 762.766  17
   2  -3   5 7137.44 182.436  22
   2  -3   5 6468.60 314.051  15
  -2  -3   5 6896.38 193.393  22
   2   3  -5 6407.36 327.139  17
   2   3  -5 7026.55 182.905   1
  -2  -3   6 667.495 97.5597  22
   2  -3   6 438.739 77.0068  16
   2   3  -6 571.306 82.4271   1
   2  -3   6 581.052 86.6658  22
  -2  -3   7 1514.39 124.235  22
   2  -3   7 1700.82 119.718  22
   2  -3   7 1725.72 115.294  16
   2  -3   8 6220.90 208.200  16
   2  -3   8 6426.22 222.456  22
  -2  -3   8 6046.54 226.978  22
   2  -3   9 32030.1 494.873  16
   2  -3   9 33353.5 510.484  22
  -2  -3   9 33322.1 533.138  22
   2  -3  10 36.7062 92.5181  22
  -2  -3  10 80.9727 105.550  22
   2  -3  10-7.78124 72.8877  16
   2  -3  11 46.1777 99.3391  22
  -2  -3  11 149.156 103.538  22
  -2  -3  12 1902.65 179.171  22
   2  -3  12 1833.09 170.834  22
  -2  -3  13 2779.10 225.788  22
   2  -3  13 2712.54 211.332  22
   2   3  14 115.897 119.427  12
  -2  -3  14 22.6258 120.913  10
   2  -3  14 194.767 113.569  22
  -2   3  14 167.872 118.382  13
  -2  -3  14 108.796 120.491  22
  -2  -3  14-29.7700 109.799  13
   2   3  14 369.094 129.538  11
  -2   3  15 515.139 160.633   9
   2  -3  15 88.1091 159.200  10
   2   3  15 70.3237 135.622  13
  -2   3  15 37.2222 138.587  13
   2  -3  15 65.8998 135.751  11
  -2   3  15 204.558 136.141   5
  -2  -3  15 283.318 151.350   9
   2   3  15 205.653 150.301  11
   2  -3  15 15.2557 139.756  13
  -2  -3  15 336.398 154.733  13
  -2  -3  15 290.352 165.833  10
  -2  -3  16 422.625 154.665  13
   2  -3  16 494.573 153.983  11
   2  -3  16 592.504 180.382  10
  -2   3  16 781.715 183.359   9
  -2  -3  16 530.819 152.683   9
  -2  -3  16 299.658 163.969  10
   2   3  16 500.912 158.630  13
  -2   3  16 142.915 139.563  13
   2  -3  16 573.379 165.802  13
   2   3  16 353.775 154.622  11
   2   3  16-19.8883 136.027   4
   2   3  17-21.9846 132.569  11
   2   3  17-71.8407 136.076   4
   2  -3  17 223.026 159.930  10
  -2  -3  17 50.1320 155.747  10
   2  -3  17 23.7401 135.780  13
   2  -3  17 107.065 133.989  11
  -2  -3  17 132.941 137.915  13
   2  -3  18 197.065 122.854  11
   2  -3  18 184.449 127.722  13
  -2  -3  18 143.921 137.839  10
   2   3  18-206.211 139.560   4
  -2  -3  18 386.102 141.526  13
  -2  -3  19 199.962 142.392  10
   2   3  19 91.2385 123.330   4
  -2  -3  19 426.062 139.818  13
   2  -3  19 218.025 127.199  13
  -2  -3  20-7.02220 107.306  13
   2  -3  20 19.6483 104.222  13
   2   3  20-84.3285 101.832   4
   2   4   0 8706.16 393.225  17
  -2   4   0 8370.12 364.081  17
  -2  -4   0 7680.46 377.007  17
  -2   4  -1 170020. 785.598   1
  -2  -4  -1 169237. 1714.33  17
  -2   4   1 169485. 1520.49  17
   2   4   1 172576. 1735.04  17
  -2  -4   1 165568. 1654.78  17
   2   4  -1 172308. 1669.51  17
   2   4  -1 167365. 798.704   1
   2   4  -2 115131. 681.367   1
  -2   4   2 115859. 1254.48  17
   2   4  -2 115720. 1394.69  17
  -2   4  -2 115504. 655.985   1
  -2   4  -3 8698.87 190.499   1
   2  -4  -3 7888.49 323.747  17
  -2   4   3 8286.88 348.465  17
   2   4  -3 8285.64 393.345  17
   2   4  -3 8235.08 201.993   1
   2   4  -4 10424.8 229.029   1
  -2   4  -4 10395.3 211.732   1
  -2   4  -5 878.124 84.0185   1
   2   4  -5 659.123 85.5770   1
  -2  -4   6 83220.7 710.061  22
   2  -4   6 84390.1 679.175  22
   2  -4   6 83980.4 647.826  16
   2   4  -6 83952.8 657.104   1
  -2  -4   7 13497.1 315.663  22
   2  -4   7 13523.0 300.563  22
   2  -4   7 13425.3 285.598  16
  -2  -4   8 24024.8 436.726  22
   2  -4   8 24459.0 422.431  22
   2  -4   8 24129.4 400.599  16
   2  -4   9 26089.4 451.764  16
   2  -4   9 27779.4 483.633  22
  -2  -4   9 27271.9 501.296  22
  -2  -4  10 4317.04 227.431  22
   2  -4  10 4032.23 213.843  22
  -2  -4  11 942.467 143.696  22
   2  -4  11 1175.06 148.739  22
  -2  -4  12 123.747 116.434  22
   2  -4  12 188.006 109.886  22
   2  -4  13 7454.99 327.776  22
  -2  -4  13 7178.83 335.484  22
  -2  -4  14 852.037 174.444  13
  -2   4  14 719.848 142.836   9
  -2  -4  14 837.891 151.708   9
  -2  -4  14 788.838 175.391  10
  -2   4  14 777.510 146.099   5
  -2   4  14 666.511 143.415   6
   2   4  14 964.655 175.170  13
   2   4  14 358.157 131.381   4
   2  -4  14 907.116 173.332  10
   2   4  14 628.176 166.190  11
   2  -4  14 1225.28 190.136  13
  -2   4  14 706.383 168.073  13
   2   4  15 3157.45 251.133  11
  -2   4  15 3214.24 244.379   9
   2   4  15 2689.27 242.862   4
  -2  -4  15 3958.38 280.402  10
   2  -4  15 3640.06 262.638  10
  -2  -4  15 3382.64 243.612   9
   2  -4  15 3624.53 274.319  13
   2  -4  15 3690.78 256.061  11
  -2  -4  15 3128.74 257.610  13
  -2   4  15 3339.75 241.381   5
   2  -4  16 2039.52 224.967  13
   2   4  16 2058.49 232.462  11
  -2  -4  16 2356.75 241.761  10
  -2  -4  16 1897.70 210.464   9
   2   4  16 1859.25 212.409   4
   2  -4  16 2403.45 241.502  10
   2  -4  16 2179.67 213.777  11
  -2  -4  16 2010.69 226.817  13
   2  -4  17-162.100 136.842  13
  -2  -4  17-51.9979 144.274  10
   2   4  17-315.531 155.404   4
  -2  -4  17-239.956 137.427  13
   2  -4  17-114.043 144.840  10
   2  -4  18 124.568 123.894  13
   2   4  18-130.631 129.963   4
  -2  -4  18 170.901 149.757  10
  -2  -4  18 65.6380 124.188  13
   2  -4  19 127.383 116.372  13
   2   4  19 200.283 116.522   4
  -2  -4  19 4.76323 119.762  10
  -2  -4  19 51.4704 108.624  13
  -2  -4  20 316.358 114.730  13
   2  -4  20 382.816 114.376  13
  -2   5   0 157473. 835.238   1
   2   5   0 158643. 823.250   1
   2   5   1 744.329 84.7665   1
  -2   5  -1 808.350 88.1355   1
   2   5  -1 725.465 90.2350   1
  -2   5   1 754.437 165.334  17
  -2   5   2 11415.7 469.067  17
  -2   5  -2 11800.4 243.309   1
   2   5   2 11603.0 223.360   1
   2   5  -2 11090.0 241.239   1
   2   5  -3 23.4018 77.6162   1
  -2   5  -3 31.2329 65.6463   1
  -2   5   3-5.11882 108.758  17
   2   5   3 49.3607 59.0152   1
  -2   5  -4 9894.18 227.542   1
   2   5  -4 9464.91 237.721   1
   2   5  -5 710.561 97.7398   1
  -2   5  -5 869.071 93.3696   1
   2  -5   6 11868.3 282.194  22
   2   5  -6 12157.8 276.727   1
  -2  -5   7 619.526 105.882  22
   2  -5   7 651.948 96.2358  22
   2   5  -7 684.002 92.2669   1
  -2  -5   8 4716.58 219.217  22
   2  -5   8 4329.93 206.435  22
   2  -5   9 1035.81 126.789  22
  -2  -5   9 1188.42 144.979  22
  -2  -5  10 4302.13 236.498  22
   2  -5  10 4387.65 226.018  22
  -2  -5  11 952.555 147.975  22
   2  -5  11 984.127 141.227  22
   2  -5  12 967.909 149.725  22
  -2  -5  12 887.293 157.433  22
  -2  -5  13 290.957 124.652  22
   2  -5  13 280.176 124.742  22
  -2   5  14 1485.46 182.269   6
   2  -5  14 1570.88 197.437  10
   2  -5  14 1466.39 196.957  13
  -2   5  14 1175.82 165.225   5
  -2  -5  14 1435.74 198.511  10
  -2  -5  14 1469.68 199.747  13
   2   5  14 1258.16 170.877   6
   2   5  14 1595.25 216.064  11
   2  -5  15-37.5582 153.855  10
   2  -5  15-19.1923 132.642  13
  -2   5  15-13.5114 119.012   5
  -2   5  15 15.6687 142.834   6
  -2  -5  15 140.317 138.716  13
   2   5  15 222.107 129.857   6
  -2  -5  15 5.27392 147.928  10
  -2   5  16 360.971 147.060   5
  -2  -5  16 441.114 172.418  10
   2  -5  16 533.288 178.106  10
  -2  -5  16 525.085 163.785  13
   2  -5  16 665.282 160.157  13
   2  -5  17 339.452 148.861  13
  -2  -5  17 427.400 159.589  13
   2  -5  17 641.610 170.911  10
  -2  -5  17 135.673 149.598  10
  -2  -5  18 34.0051 132.577  10
  -2  -5  18-214.409 130.811  13
   2  -5  18-90.3649 127.721  13
   2  -5  19-50.3120 116.202  13
  -2  -5  19-77.3124 108.438  13
  -2  -5  19-42.1582 120.766  10
   2  -5  20 221.564 95.1086  13
  -2  -5  20 181.124 95.2104  13
   2   6   0 28522.3 392.600   1
  -2   6   0 28517.3 399.072   1
   2   6   1 4707.32 167.365   1
   2   6  -1 4556.20 175.464   1
  -2   6  -1 4882.69 178.004   1
  -2   6  -2 47309.9 520.909   1
   2   6  -2 47720.1 519.611   1
   2   6   2 47735.9 486.189   1
   2   6   3 42115.7 448.097   1
   2   6  -3 43145.7 513.509   1
  -2   6  -3 42889.6 504.198   1
   2   6  -4 3561.55 168.634   1
  -2   6  -4 3523.92 158.537   1
  -2   6  -5 71.3298 76.9960   1
   2   6  -5 140.374 81.1496   1
  -2   6  -6 66821.3 644.638   1
   2   6  -6 66338.7 676.638   1
  -2  -6   7 3363.66 187.991  22
   2   6  -7 3415.17 175.486   1
   2  -6   7 3638.59 185.654  22
  -2  -6   8 31004.9 544.928  22
   2  -6   8 30888.6 521.964  22
   2  -6   9 3904.80 218.496  22
  -2  -6   9 3945.20 228.893  22
  -2  -6  10 814.962 138.912  22
   2  -6  10 730.809 126.976  22
  -2  -6  11 912.647 151.116  22
   2  -6  11 1146.52 156.396  22
   2  -6  12 258.314 112.731  22
  -2  -6  12 310.027 131.288  22
  -2   6  13 2925.89 224.505   6
  -2   6  13 2638.89 207.576   5
  -2  -6  13 2643.77 229.634  10
   2   6  13 3132.96 217.611   6
   2  -6  13 2977.04 249.931  13
  -2  -6  13 3049.76 249.637  13
   2  -6  14 2798.14 238.804  10
  -2   6  14 2804.47 218.277   5
   2   6  14 3079.34 229.966   6
  -2  -6  14 2581.91 245.327  13
   2  -6  14 2769.16 247.859  13
  -2   6  14 2931.10 227.117   6
  -2  -6  14 2924.21 258.530  10
  -2  -6  15 135.304 145.329  13
  -2   6  15 307.869 131.277   5
   2  -6  15 201.345 152.820  13
  -2   6  15 302.827 141.550   6
  -2  -6  15 506.962 180.949  10
   2   6  15 447.310 144.971   6
   2  -6  15 184.476 146.604  10
   2   6  16 3150.97 225.280   6
  -2   6  16 3497.93 236.455   5
   2  -6  16 3235.88 247.357  10
  -2  -6  16 3073.17 252.882  10
   2  -6  16 3097.86 254.563  13
  -2  -6  16 3292.75 263.637  13
  -2  -6  17 125.848 128.702  13
   2  -6  17 439.872 149.264  10
  -2  -6  17 461.498 160.036  10
   2  -6  17 410.425 139.481  13
   2  -6  18-127.900 125.860  13
  -2  -6  18-49.5214 130.865  10
  -2  -6  18 43.4640 114.105  13
  -2  -6  19 165.728 101.041  13
  -2  -6  19 13.3459 109.900  10
   2  -6  19-78.4503 98.5614  13
  -2   7   0 753.045 102.748   1
   2   7   0 1042.58 115.967   1
  -2   7  -1 18.5706 84.1937   1
   2   7   1 27.7416 77.2331   1
   2   7  -1 20.1224 82.5960   1
   2   7   2 186.629 78.1365   1
   2   7  -2 45.5778 87.1965   1
  -2   7  -2 152.201 81.4335   1
  -2   7  -3 17512.5 356.483   1
   2   7   3 16703.8 315.862   1
   2   7  -3 17411.3 355.092   1
  -2   7  -4 1401.51 125.583   1
   2   7  -4 1215.25 127.162   1
  -2   7  -5 169.959 86.1128   1
   2   7  -5 203.194 90.8683   1
  -2   7  -6 228.418 94.3424   1
   2   7  -6 186.120 91.8582   1
   2   7  -7 20705.8 421.355   1
   2  -7   7 20970.7 436.475  22
  -2  -7   8-3.01775 100.847  22
   2  -7   8 25.1244 98.7513  22
  -2  -7   9 2611.79 205.819  22
   2  -7   9 2367.97 182.721  22
   2  -7  10 1350.91 155.199  22
  -2  -7  10 1311.40 170.933  22
  -2  -7  11 18.7993 126.232  22
   2  -7  11-37.5183 117.582  22
  -2   7  12-79.4714 104.969   6
   2  -7  12 103.157 115.103  22
  -2  -7  12-7.73718 114.275  13
   2   7  12-184.142 119.021   6
  -2  -7  12-172.537 120.485  22
  -2   7  13 835.329 152.889   5
   2  -7  13 739.423 174.530  13
  -2   7  13 665.722 154.267   6
  -2  -7  13 746.268 178.012  13
  -2  -7  13 682.907 169.049  10
   2   7  13 614.673 148.614   6
  -2  -7  14 154.489 135.820  13
   2  -7  14-9.73851 131.349  13
   2   7  14-0.56290 125.312   6
  -2  -7  14-221.614 156.134  10
  -2   7  14-18.8418 131.922   6
  -2   7  14-18.6606 117.187   5
  -2   7  15 341.341 132.551   6
  -2   7  15 110.805 114.117   5
  -2  -7  15 492.165 173.011  10
   2  -7  15 373.126 153.632  13
   2   7  15 399.358 146.921   6
  -2  -7  15 400.825 158.541  13
   2   7  16 504.024 141.879   6
  -2  -7  16 244.771 147.785  10
  -2  -7  16 561.821 152.833  13
  -2   7  16 573.279 142.021   5
   2  -7  16 532.967 160.246  13
  -2  -7  17 336.492 140.279  13
   2   7  17 279.563 126.806   6
   2  -7  17 419.659 140.196  10
   2  -7  17 463.509 143.736  13
  -2  -7  17 500.620 153.901  10
   2  -7  18-73.1395 109.355  13
  -2  -7  18-104.792 117.798  13
  -2  -7  18 98.7812 121.286  10
  -2  -7  19 225.317 105.575  13
   2  -7  19 94.7702 99.0844  13
  -2  -7  19 263.431 117.858  10
  -2   8   0 45522.9 589.223   1
   2   8   0 44742.7 582.778   1
  -2   8  -1 115777. 937.778   1
   2   8   1 115686. 905.977   1
   2   8  -1 114471. 934.610   1
   2   8   2 1230.22 120.346   1
   2   8  -2 1087.01 129.024   1
  -2   8  -2 1255.25 129.527   1
   2   8  -3 4573.18 211.099   1
  -2   8  -3 4826.71 213.104   1
   2   8   3 4545.16 190.793   1
  -2   8  -4 89.0199 88.3871   1
   2   8  -4-24.6959 88.3867   1
   2   8  -5 13196.0 352.154   1
  -2   8  -5 12857.3 337.172   1
   2   8  -6 216.131 102.598   1
  -2   8  -6 388.122 94.5968   1
   2   8  -7 4323.26 221.192   1
   2  -8   7 4435.53 228.940  22
   2  -8   8 1598.10 155.809  22
  -2  -8   8 1692.36 175.342  22
  -2  -8   9 18582.9 492.101  22
   2  -8   9 18375.5 467.405  22
   2  -8  10 7657.56 325.027  22
  -2  -8  10 7469.05 333.797  22
  -2  -8  11 308.696 134.899  22
   2  -8  11 455.580 124.575  22
  -2   8  12 502.430 149.892   6
  -2  -8  12 61.5232 150.078  10
  -2   8  12 725.306 151.101   5
   2  -8  12 209.340 143.046  13
   2   8  12 404.856 136.822   6
  -2  -8  12 343.464 154.902  13
  -2   8  13 7187.23 325.231   6
  -2   8  13 7064.00 330.038   5
   2  -8  13 7139.62 364.616  13
   2   8  13 6965.23 312.645   6
  -2  -8  13 7009.23 363.463  13
  -2  -8  13 6739.60 333.708  10
  -2  -8  14 1061.02 189.474  13
  -2   8  14 1111.05 163.806   5
   2   8  14 911.078 172.113   6
  -2  -8  14 1015.15 191.346  10
   2  -8  14 724.468 178.114  13
  -2   8  14 1040.64 185.394   6
   2   8  15 1653.78 190.666   6
  -2   8  15 1612.11 188.421   6
   2  -8  15 1441.83 207.262  13
  -2  -8  15 1370.66 195.215  10
  -2   8  15 1568.71 180.998   5
  -2  -8  15 1915.79 222.313  13
   2  -8  16-158.946 129.706  13
  -2  -8  16 152.039 139.523  13
  -2   8  16 179.682 110.972   5
   2   8  16 104.720 126.530   6
  -2  -8  16-33.4916 140.808  10
  -2  -8  17-52.4798 121.398  13
   2   8  17-51.7278 113.973   6
   2  -8  17 18.1333 115.288  13
  -2  -8  18-0.14520 107.560  10
  -2  -8  18 6.39867 97.9613  13
   2  -8  18-52.1641 98.7249  13
   2   9   0 43834.6 616.547   1
  -2   9  -1 781.860 133.438   1
   2   9  -1 661.904 121.833   1
   2   9   1 729.916 120.072   1
   2   9   2 2570.54 165.472   1
  -2   9  -2 2885.43 185.835   1
   2   9  -2 2628.29 183.249   1
   2   9  -3 711.463 126.534   1
  -2   9  -3 677.706 116.232   1
  -2   9  -4 4299.70 223.590   1
   2   9  -4 4150.13 225.360   1
   2   9  -5-81.1941 98.3004   1
  -2   9  -5 62.7864 98.0104   1
   2   9  -6 1247.77 149.208   1
  -2   9  -6 1398.89 151.418   1
   2   9  -7 2.74379 104.294   1
   2  -9   8 279.201 115.379  22
  -2  -9   8 203.999 120.499  22
   2  -9   9 1018.59 150.275  22
  -2  -9   9 1048.46 161.242  22
  -2  -9  10 6849.19 334.349  22
   2  -9  10 6410.27 308.009  22
   2  -9  11 669.702 162.482  13
   2   9  11 698.261 148.945   6
  -2   9  11 553.280 150.556   6
  -2  -9  11 983.821 186.898  13
   2  -9  12 116.950 136.781  13
  -2  -9  12 448.273 158.101  10
  -2   9  12 185.337 132.058   5
   2   9  12 420.570 150.527   6
  -2   9  12 303.269 145.414   6
  -2  -9  12 289.100 161.672  13
  -2  -9  13 737.923 175.834  13
  -2   9  13 820.452 158.250   5
  -2  -9  13 554.718 170.457  10
  -2   9  13 907.122 169.392   6
   2  -9  13 815.491 173.801  13
   2   9  13 785.280 162.946   6
  -2  -9  14 1506.61 204.695  13
  -2   9  14 1271.28 175.094   6
  -2  -9  14 1170.50 191.061  10
  -2   9  14 1480.29 178.403   5
   2   9  14 1313.89 172.034   6
   2  -9  14 934.647 178.966  13
  -2   9  15 139.060 114.157   5
  -2  -9  15 40.9850 125.183  13
   2  -9  15 184.061 133.967  13
  -2   9  15 130.000 130.010   6
   2   9  15-33.5274 130.594   6
  -2  -9  15 73.9897 135.674  10
   2   9  16 785.569 141.727   6
  -2   9  16 535.369 124.780   5
  -2  -9  16 492.143 150.519  10
  -2  -9  16 654.508 146.220  13
   2  -9  16 341.180 132.718  13
  -2  -9  17-8.74422 101.590  13
  -2  -9  17 83.0888 119.586  10
   2   9  17 55.8978 101.011   6
   2  -9  17 53.0021 104.220  13
   2  -9  18-218.854 98.6022  13
  -2  -9  18-83.1266 99.4519  13
   2  10   0 501.452 122.219   1
   2  10   1 11233.9 343.520   1
   2  10  -1 11642.6 357.406   1
   2  10   2 8664.01 300.675   1
   2  10  -2 8883.35 321.401   1
   2  10  -3 7760.93 307.060   1
  -2  10  -3 7839.20 307.904   1
   2  10  -4 2269.48 188.593   1
  -2  10  -4 2530.20 195.036   1
   2  10  -5 2089.45 188.540   1
  -2  10  -5 2124.09 178.923   1
   2  10  -6 24213.2 545.052   1
   2  10  -7 20082.6 505.710   1
   2  10  -8 9114.31 354.368   1
  -2 -10   8 9830.21 392.399  22
   2 -10   8 9430.42 363.034  22
   2 -10   9 2322.34 207.159  22
  -2 -10   9 2287.71 218.954  22
  -2  10   9 2371.56 189.917  19
  -2  10  10 603.291 142.802   6
   2  10  10 593.234 155.366   6
  -2  10  10 672.516 139.687  19
  -2  10  11-104.256 133.415   6
   2  10  11 68.3401 125.352   6
  -2 -10  11-23.8582 135.671  13
   2 -10  11-66.6675 144.991  13
   2 -10  12-28.9622 141.243  13
  -2  10  12-9.32700 114.692   5
   2  10  12-57.3490 128.921   6
  -2  10  12 89.3620 135.229   6
  -2 -10  12-72.9009 141.524  13
   2 -10  13 72.9917 143.829  13
  -2  10  13 276.726 131.305   5
  -2  10  13 173.688 139.737   6
   2  10  13 56.4910 124.178   6
  -2 -10  13 65.0939 141.112  13
  -2 -10  14 148.369 141.535  13
   2 -10  14 127.245 134.896  21
   2  10  14 363.367 131.814   6
  -2  10  14 256.368 131.668   6
  -2 -10  14 21.8876 133.207  10
  -2  10  14 96.4599 119.659   5
   2 -10  14-75.4539 135.304  13
  -2 -10  15 633.510 149.094  13
  -2 -10  15 514.919 143.792  10
   2  10  15 555.799 139.771   6
  -2  10  15 849.715 138.335   5
   2 -10  15 532.721 148.533  13
  -2  10  15 455.918 134.437   6
  -2 -10  16 1093.28 153.942  10
  -2 -10  16 1285.64 176.273  13
   2  10  16 1427.04 159.366   6
   2 -10  16 1524.51 175.513  13
  -2 -10  17 399.356 117.826  10
  -2 -10  17 583.130 124.000  13
   2  10  17 635.787 119.165   6
   2 -10  17 784.750 129.968  13
   2  11   0 45.6901 108.879   1
   2  11  -1 5977.87 285.145   1
   2  11   1 5775.74 273.653   1
   2  11  -2 2310.80 192.357   1
   2  11   2 2179.40 185.533   1
   2  11  -3 2326.37 207.856   1
   2  11  -4 1481.46 174.534   1
   2  11  -5 150.349 124.795   1
   2  11  -6 1729.74 192.009   1
   2 -11   7 6658.10 315.197  22
   2  11  -7 6162.39 310.197   1
  -2  11   8-27.0587 110.380  19
  -2  11   8-104.459 129.272   7
   2  11   9 651.235 146.803   6
  -2  11   9 530.268 139.362  19
   2  11  10 44.1688 141.559   6
  -2  11  10-137.398 127.519   6
  -2  11  10-28.9818 123.734  19
   2 -11  11 373.509 152.393  13
  -2 -11  11 269.926 148.042  13
  -2  11  11 659.462 154.302   6
   2  11  11 539.638 154.589   6
   2 -11  12-120.898 144.052  13
   2  11  12 103.562 128.632   6
  -2  11  12-13.9068 128.387   6
  -2 -11  12 3.17227 134.589  13
  -2  11  12 134.072 123.107   5
   2 -11  13 411.465 145.975  13
  -2  11  13 340.732 131.468   5
   2  11  13 602.943 148.225   6
  -2 -11  13 347.139 147.374  13
  -2  11  13 361.799 143.731   6
  -2  11  14-13.5043 108.053   6
   2  11  14 19.8416 107.807   6
  -2  11  14-19.2394 96.8303   5
   2 -11  14-41.4283 123.774  13
  -2 -11  14-36.0512 129.701  13
   2 -11  14-41.2603 128.940  21
   2 -11  15-96.3147 105.689  13
  -2 -11  15 7.10456 110.456  13
   2  11  15 68.0742 110.516   6
  -2  11  15 117.844 101.947   5
  -2 -11  16 267.792 105.790  13
   2  11  16 162.943 96.3009   6
   2 -11  16 74.4821 99.9575  13
   2  12   0 22871.8 546.714   1
   2  12  -1 2868.67 233.162   1
   2  12   1 2955.60 217.929   1
   2  12  -2 5265.66 292.250   1
   2  12  -3 7111.18 333.100   1
   2  12  -4 743.034 150.499   1
   2  12  -5 357.959 131.702   1
  -2  12   5 569.047 128.628  19
  -2  12   5 456.178 133.709   7
  -2 -12   5 316.370 156.787   3
  -2  12   6 7328.24 319.414   7
  -2  12   6 7430.40 322.727  19
  -2 -12   6 8021.20 339.200   3
  -2 -12   7 323.094 157.483   3
  -2  12   7 545.072 154.287   7
  -2  12   7 407.427 132.746  19
   2  12   8 3968.48 247.202   6
  -2  12   8 3708.69 250.234   7
  -2  12   8 3756.92 244.225  19
  -2  12   9 1663.23 183.709  19
  -2  12   9 1525.54 184.167   7
   2  12   9 1653.06 184.119   6
  -2  12  10 941.364 157.390  19
   2  12  10 883.909 160.630   6
  -2 -12  11 292.300 153.759  13
  -2  12  11 342.288 128.885   6
   2 -12  11 353.281 163.520  13
   2  12  11 366.573 144.456   6
   2 -12  12 160.073 140.331  13
   2  12  12 476.230 133.938   6
  -2 -12  12 113.137 137.789  13
  -2  12  12 274.149 128.774   6
  -2  12  12 510.395 125.497   5
  -2  12  13 1362.59 158.306   6
  -2 -12  13 1341.54 182.724  13
   2  12  13 1414.31 164.179   6
  -2  12  13 1395.14 161.114   5
   2 -12  13 1226.04 179.753  13
  -2  12  14 1447.98 158.498   6
   2 -12  14 1227.01 163.369  13
   2  12  14 952.783 141.721   6
   2 -12  14 1007.12 156.196  21
  -2 -12  14 1232.60 177.354  13
  -2  12  14 1095.31 140.793   5
  -2 -12  15 204.496 104.229  13
   2  12  15 132.132 96.6273   6
   2 -12  15 28.3056 93.0014  13
   2  12  16 173.809 87.7214   6
  -2 -13   0 6492.14 317.558   3
  -2  13   0 6414.54 292.965   7
  -2 -13  -1 1367.71 200.550   3
  -2 -13   1 1493.23 216.242   3
  -2  13   1 1016.17 167.633   7
  -2 -13   2 1284.75 194.951   3
  -2  13   2 1117.53 175.218   7
  -2 -13  -2 1102.33 183.542   3
  -2 -13   3 719.070 186.522   3
  -2  13   3 840.473 166.802   7
  -2 -13   4 5379.84 310.500   3
  -2  13   4 5756.73 296.647   7
  -2 -13   5 38.7133 171.406   3
  -2  13   5 193.065 131.217  19
  -2  13   5 180.090 141.145   7
  -2 -13   6 350.050 175.642   3
  -2  13   6 94.4794 121.262  19
  -2  13   6 358.589 148.688   7
  -2 -13   7 1270.61 194.224   3
  -2  13   7 1173.84 181.846   7
  -2  13   7 1069.19 165.695  19
  -2  13   8 717.432 155.631   7
   2  13   8 994.026 155.239   6
  -2  13   8 654.194 153.476  19
   2  13   8 601.071 154.210   7
  -2  13   9 2353.27 205.095   7
  -2  13   9 2259.83 205.271  19
   2  13   9 2686.40 203.507   6
   2  13  10 560.395 139.488   6
   2 -13  10 703.147 160.168  13
  -2  13  10 564.943 135.058  19
  -2 -13  10 686.665 172.281  13
   2 -13  11 547.445 164.509  13
  -2 -13  11 315.060 142.136  13
   2  13  11 464.873 135.038   6
  -2 -13  12-51.7455 125.544  13
  -2  13  12 95.4115 103.542   5
   2 -13  12 13.8218 120.804  13
   2  13  12-6.55349 111.038   6
  -2 -13  13 2.58391 107.803  13
  -2  13  13 150.876 96.6877   5
  -2  13  13 111.298 102.307   6
   2  13  13 45.3409 99.1417   6
   2 -13  13 96.4180 111.260  13
   2 -13  14-25.7810 93.4519  13
   2 -13  14 197.900 110.221  21
   2  13  14 208.976 99.4476   6
  -2 -13  14 110.849 95.1798  13
  -2 -14   0 3970.17 285.426   3
  -2  14   0 3842.99 248.475   7
  -2 -14  -1 2939.42 250.281   3
  -2 -14   1 3408.41 270.103   3
  -2  14   1 3539.18 243.473   7
  -2 -14   2-158.319 183.721   3
  -2 -14  -2-116.541 172.498   3
  -2  14   2-50.5573 137.863   7
  -2 -14   3 244.999 182.292   3
  -2  14   3 32.2423 137.318   7
  -2 -14   4 1124.02 198.502   3
  -2  14   4 1197.63 185.777   7
  -2  14   4 1067.23 172.476  19
  -2  14   5 860.117 165.565   7
  -2 -14   5 384.311 168.283   3
  -2  14   5 668.421 146.232  19
   2  14   6 747.315 162.837   7
  -2  14   6 1116.23 164.827  19
  -2  14   6 913.468 169.957   7
  -2 -14   6 610.515 176.236   3
  -2  14   7 2945.72 221.818   7
  -2 -14   7 3163.38 247.864   3
   2  14   7 2707.89 226.158   7
  -2  14   7 2814.32 225.674  19
  -2  14   8 68.3447 131.700   7
  -2  14   8 111.766 114.039  19
   2  14   8 97.6362 139.698   7
  -2  14   9 1127.09 165.432   7
  -2  14   9 1176.75 156.745  19
   2  14   9 1005.60 158.792   7
  -2 -14  10 1409.94 191.930  13
   2  14  10 1423.02 156.564   6
  -2  14  10 1656.03 167.883  19
   2 -14  10 1462.28 186.577  13
  -2 -14  11 19.1603 121.236  13
   2 -14  11 45.4041 121.277  13
  -2  14  11 56.1297 93.6921   5
   2  14  11 107.754 108.316   6
   2 -14  12 55.0342 110.793  13
   2  14  12 62.2051 95.7215   6
  -2  14  12-121.901 102.603   5
  -2 -14  12 136.497 118.820  13
  -2 -14  13 262.399 112.480  13
   2 -14  13 243.045 103.187  13
  -2  14  13 372.107 99.8069   5
   2 -14  13 411.708 128.358  21
   2  14  13 592.370 111.678   6
  -2 -15   0 693.140 175.027   3
  -2  15   0 721.630 154.054   7
  -2 -15  -1 381.717 169.823   3
  -2 -15   1 28.8123 165.433   3
  -2  15   1 213.927 138.446   7
  -2 -15   2 349.940 174.211   3
  -2  15   2 228.886 147.173   7
  -2 -15  -2 249.463 166.966   3
  -2 -15   3 1398.84 209.460   3
  -2  15   3 1610.91 187.917   7
  -2  15   4 424.869 151.227   7
  -2 -15   4 262.233 178.557   3
  -2  15   4 320.100 137.150  19
   2  15   4 407.703 145.037   7
   2  15   5-207.367 147.497   7
  -2  15   5 34.4799 133.045   7
  -2  15   5 119.543 127.328  19
  -2 -15   5-114.721 169.272   3
   2  15   6 1029.32 168.721   7
  -2  15   6 1590.57 183.761   7
  -2 -15   6 1248.89 193.016   3
  -2  15   6 1486.12 172.852  19
  -2  15   7 515.926 130.716  19
  -2  15   7 810.903 153.966   7
   2  15   7 896.285 159.265   7
  -2  15   8 59.1157 128.144   7
  -2  15   8 209.307 113.660  19
   2  15   8-153.704 129.434   7
   2 -15   9 27.4955 120.543  13
   2  15   9-21.1766 111.573   7
  -2 -15   9 43.1030 123.713  13
  -2  15   9 51.5455 111.169   7
  -2  15   9-90.2732 103.924  19
   2 -15  10 420.332 123.497  13
  -2 -15  10 210.243 116.790  13
  -2 -15  11 30.5745 93.5834  13
  -2  15  11 91.0994 88.6899   5
   2 -15  11-114.525 103.788  13
   2 -15  12 154.725 101.700  21
   2 -15  12 144.310 93.8327  13
  -2 -15  12 175.755 95.0645  13
   2  16   0 200.257 130.101   7
  -2  16   0 141.917 122.868   7
   2  16   1 133.642 126.077   7
  -2  16   1 26.5927 122.270   7
   2  16  -1 113.673 122.608   7
   2  16   2 142.374 133.803   7
  -2  16   2 411.054 138.549   7
  -2  16   3 1094.19 167.128   7
   2  16   3 999.758 166.812   7
  -2  16   3 1399.04 165.017  19
   2  16   4 57.7047 129.332   7
  -2  16   4 113.675 128.983   7
  -2  16   4 173.781 114.439  19
   2  16   5 51.9608 119.981   7
  -2  16   5-44.6487 100.245  19
  -2  16   5 117.540 121.825   7
  -2  16   6 1143.79 158.257   7
   2  16   6 1046.89 155.051   7
  -2  16   6 1018.09 142.138  19
  -2  16   7 2378.76 191.199   7
  -2  16   7 2378.35 185.440  19
   2  16   7 2263.91 186.875   7
  -2  16   8 328.700 106.813  19
   2  16   8 340.500 116.892   7
  -2  16   8 419.737 127.137   7
  -2 -16   9 170.723 107.102  13
   2 -16   9 74.0275 103.941  13
   2  16   9-73.8492 109.603   7
  -2  16   9 155.823 110.908   7
   2 -16  10 180.549 103.553  13
  -2 -16  10-73.9537 94.3592  13
  -2  16  10-75.2121 76.1504   5
   2  17   0 409.707 127.704   7
  -2  17   1 270.703 114.693   7
   2  17   1 91.2962 115.463   7
  -2  17   1 158.029 107.648  19
  -2  17   2-196.960 119.763   7
  -2  17   2-55.7111 102.883  19
   2  17   2-158.580 117.737   7
   2  17   3 784.033 144.302   7
  -2  17   3 798.163 125.660  19
  -2  17   3 1088.28 144.408   7
  -2  17   4 126.759 110.777   7
  -2  17   4 89.0634 93.2512  19
   2  17   4 42.8221 113.860   7
   2  17   5-1.08741 102.702   7
  -2  17   5-139.898 93.3511  19
  -2  17   6 341.939 97.4143  19
   2  17   6 303.242 110.827   7
  -2  17   6 415.878 114.107   7
  -2  17   7 882.327 119.618  19
  -2  17   7 836.435 123.462   7
   2  17   7 682.915 117.614   7
   2 -17   8 130.933 95.7394  13
   2  17   8 6.86051 86.4986   7
  -2 -17   8 152.654 95.9454  13
  -2  17   8 9.90924 90.0702   7
   2  18   0 1551.41 147.277   7
  -2  18   0 1742.44 152.564  19
  -2  18  -1 448.233 101.686  19
  -2  18   1 174.204 97.9947   7
  -2  18   1 228.627 97.6426  19
   2  18   1 556.350 116.994   7
  -2  18   2 114.356 84.4713  19
  -2  18   2-103.041 103.071   7
   2  18   2 169.354 104.369   7
  -2  18   3 6.82218 73.7933  19
  -2  18   3 66.9466 92.4099   7
   2  18   3 253.980 96.7154   7
  -2  18   4 307.932 87.2886  19
  -2  18   4 313.550 96.5884   7
   2  18   4 140.094 93.1314   7
  -2  18   5 103.449 89.3318   7
   2  18   5-3.69736 85.7909   7
  -3   0   0 229.364 84.0362  18
  -3   0   0 267.693 60.9593  15
  -3   0   1 61.4490 73.2465  15
  -3   0  -1 31.9696 92.3914  18
  -3   0   2 101380. 970.631  15
  -3   0  -2 103469. 1119.78  18
   3   0  -3 68.1115 100.081  15
  -3   0   3 29.0792 98.8330  15
  -3   0  -3 27.5398 118.813  18
  -3   0  -3 81.7124 52.7077  15
   3   0  -4 226309. 1842.00  15
  -3   0  -4 225520. 1273.45  15
  -3   0  -4 227507. 2002.55  18
  -3   0  -5 9.61498 74.5507  15
   3   0   5 29.3083 64.9738  16
  -3   0   5-35.5294 69.3277  22
   3   0   6 5664.96 165.119  22
  -3   0   6 5285.98 171.696  22
   3   0   6 5769.02 184.827  16
   3   0   7 24.5124 67.6050  22
  -3   0   7 51.8938 76.9700  22
   3   0   7-25.2185 73.6116  16
   3   0   8 20386.9 388.423  16
  -3   0   8 20777.0 373.473  22
   3   0   8 20883.1 362.796  22
   3   0   9-136.064 95.0450  22
  -3   0   9-30.2163 89.9614  22
   3   0   9 167.320 85.9861  16
  -3   0  10 9.30716 100.786  22
   3   0  10-1.35744 90.4531  22
  -3   0  11-11.9216 99.0971  22
   3   0  11 2.96586 85.6530  22
   3   0  12 10298.8 346.197  22
  -3   0  12 9153.31 341.562  22
  -3   0  13-155.190 119.446  22
  -3   0  14 1367.44 174.638  22
   3   0  15 82.7219 134.479  13
  -3   0  15-20.2043 143.641  13
  -3   0  15 16.7241 151.953   9
   3   0  15 253.398 141.911  11
   3   0  15 10.0206 136.258  12
  -3   0  15 31.2299 143.522  10
  -3   0  16 2410.12 243.881   9
  -3   0  16 2526.43 236.798  10
   3   0  16 2040.04 225.838  13
   3   0  16 2682.41 239.592  11
  -3   0  16 2162.35 230.766  13
  -3   0  17 219.754 155.547  10
   3   0  17 20.7828 130.132  11
   3   0  17-140.577 142.604  13
  -3   0  17 312.660 160.853   9
  -3   0  17-199.376 143.548  13
  -3   0  18 55.9609 139.142  10
   3   0  18 87.0369 124.958  11
  -3   0  18 427.062 146.133  13
   3   0  18 150.173 120.196  13
   3   0  19-247.645 131.842   4
  -3   0  19-197.435 124.117  13
   3   0  19 54.7881 123.658  11
   3   0  19 20.6211 107.623  13
   3   0  20-207.388 110.295   4
   3  -1   0 48.5431 49.4040  15
  -3  -1   0 71.6078 83.3250  17
   3   1   0 164.904 91.3682  18
  -3  -1   1 183830. 1098.75  17
   3  -1  -1 185523. 1075.56  15
   3   1   1 188834. 1413.34  18
   3  -1  -2 364912. 1816.30  15
  -3  -1   2 365504. 1422.40  17
   3   1   2 369838. 2159.22  18
  -3  -1   2 363538. 1943.06  15
  -3  -1   3 2498.55 213.622  15
   3   1  -3 2596.92 127.120  17
  -3  -1  -3 2403.53 229.758  18
   3  -1  -3 2200.21 187.247  15
   3   1   4 27842.7 324.609  16
  -3  -1   4 26159.5 660.297  15
   3   1  -4 26939.7 393.865  17
   3  -1  -4 27591.7 656.235  15
  -3  -1   5 46079.2 434.593  22
  -3   1   5 46054.5 428.351  22
   3   1  -5 46360.9 425.561   1
   3   1   5 47039.4 458.824  16
  -3  -1   6 220.956 73.7556  22
   3  -1   6 232.096 66.1827  22
   3   1   6 375.568 75.3161  22
  -3   1   6 193.686 70.0009  22
   3   1   6 307.075 79.8752  16
   3   1  -6 234.672 70.6727   1
   3  -1   6 327.093 77.8322  16
  -3   1   7 1829.00 128.047  22
   3   1   7 1827.95 121.779  22
   3   1   7 1762.39 124.988  16
  -3  -1   7 1742.29 123.943  22
   3  -1   7 1693.10 121.011  16
   3  -1   7 1890.39 116.784  22
   3  -1   8 8509.69 240.309  22
   3   1   8 8033.55 254.077  16
   3   1   8 8471.43 240.152  22
  -3  -1   8 7994.06 247.541  22
  -3   1   8 8302.72 247.847  22
   3  -1   8 8600.90 254.283  16
  -3  -1   9 31167.5 496.444  22
   3  -1   9 31645.1 480.694  22
   3  -1   9 32366.1 510.724  16
   3   1   9 30487.3 507.518  16
   3   1   9 31745.0 477.999  22
  -3   1   9 31564.8 498.501  22
  -3  -1  10 37490.5 579.376  22
   3  -1  10 37863.2 567.009  22
  -3   1  10 37032.9 580.855  22
   3  -1  10 37272.7 585.628  16
  -3  -1  11 1370.05 153.989  22
   3  -1  11 1761.65 153.374  22
  -3   1  11 1290.16 147.953  22
  -3  -1  12 37989.6 678.264  22
  -3   1  12 37015.6 656.051  22
   3  -1  12 38555.7 644.104  22
   3  -1  13 4145.08 241.932  22
  -3  -1  13 4389.37 261.388  22
  -3  -1  14 191.988 121.562  22
   3   1  15 1163.72 183.884  11
  -3  -1  15 1471.92 197.952  13
   3  -1  15 1231.59 187.216  11
  -3  -1  15 1338.05 201.507  10
  -3   1  15 1433.40 197.355   9
  -3  -1  15 1713.67 211.227   9
   3   1  15 1303.49 194.792  12
   3   1  15 1501.62 194.032  13
  -3   1  15 1507.13 202.553  13
   3  -1  15 1350.45 197.362  13
   3  -1  16 2108.50 215.330  11
  -3  -1  16 1814.32 216.342  13
   3  -1  16 2073.89 219.664  13
  -3   1  16 2610.22 233.462   9
  -3  -1  16 2341.67 234.475  10
  -3  -1  16 2328.50 225.623   9
  -3   1  16 1853.00 212.959  13
   3   1  16 2282.00 224.461  12
   3   1  16 2007.59 225.093  11
   3   1  16 2232.09 222.241  13
   3  -1  17 1236.04 181.337  11
  -3  -1  17 807.146 178.744  10
  -3   1  17 1082.64 185.561   9
  -3  -1  17 1057.88 190.403   9
   3   1  17 1152.89 180.755  13
   3   1  17 886.710 175.165  11
  -3   1  17 941.410 174.099  13
   3  -1  17 1076.35 184.726  13
  -3  -1  17 833.755 178.237  13
  -3   1  18 71.4382 138.107  13
   3   1  18 31.7817 125.412  11
   3  -1  18-48.6121 139.226  11
  -3  -1  18-182.683 155.257  10
   3   1  18-257.740 136.514   4
   3   1  18 35.7206 119.976  13
   3  -1  18-139.754 134.909  13
  -3  -1  18 47.5495 133.466  13
  -3  -1  19 900.361 158.826  10
   3   1  19 946.286 161.685  11
   3  -1  19 342.123 124.952   4
  -3  -1  19 824.103 155.631  13
   3  -1  19 829.719 148.168  11
   3   1  19 448.594 134.633   4
   3  -1  19 987.001 159.678  13
   3  -1  20 514.845 129.523  11
   3   1  20 428.427 121.947   4
  -3  -1  20 848.700 139.827  13
   3  -1  20 676.357 135.193  13
  -3  -2   0 123.432 104.965  17
   3   2  -1 6378.05 265.149  17
  -3  -2   1 6427.83 270.583  17
  -3  -2  -1 6359.27 302.280  17
   3   2   2 24109.9 604.546  18
   3   2  -2 23717.1 470.184  17
  -3  -2   2 23017.2 472.885  17
  -3   2   2 22797.3 351.200  17
   3  -2  -3 48914.2 796.447  15
   3  -2   3 48646.9 483.687  15
   3   2   3 49805.3 925.649  18
   3   2  -3 48940.9 667.921  17
   3   2  -4 29792.7 348.396   1
   3   2  -4 29236.2 534.029  17
  -3  -2   4 29488.1 328.726  22
   3  -2  -4 30175.5 695.088  15
   3   2   4 29693.0 334.526  16
   3   2  -5 294.288 74.3984   1
  -3  -2   5 475.278 79.8023  22
   3  -2   5 214.384 64.8226  22
   3   2   5 376.990 72.4751  16
  -3   2   6 16.0789 70.3159  22
   3   2  -6 24.8989 65.9720   1
   3  -2   6 96.7431 69.0770  22
  -3  -2   6-43.1388 72.5936  22
   3   2   6 25.9402 68.1762  16
   3  -2   7 11211.6 270.881  16
  -3   2   7 11114.1 262.080  22
  -3  -2   7 11536.2 272.724  22
   3   2   7 11036.5 271.009  16
   3  -2   7 11469.7 255.866  22
  -3  -2   8 38.1589 90.7313  22
   3  -2   8 303.737 86.5904  16
   3  -2   8 201.349 81.0477  22
   3   2   8 47.7860 73.9881  16
  -3   2   8 147.938 84.1414  22
   3  -2   9 603.232 100.075  22
  -3  -2   9 748.661 118.893  22
   3  -2   9 800.341 116.585  16
   3  -2  10 3326.40 191.093  16
  -3  -2  10 3302.66 197.213  22
   3  -2  10 3132.20 180.090  22
  -3  -2  11 6410.98 274.997  22
   3  -2  11 6534.38 263.032  22
  -3  -2  12 1624.93 175.411  22
   3  -2  12 1777.41 166.428  22
   3  -2  13 33.5511 102.547  22
  -3  -2  13-87.2285 121.959  22
   3   2  14-246.347 128.678  11
  -3   2  14 98.5901 116.913   5
  -3  -2  14-54.7915 116.663  10
   3   2  14-24.9326 113.121  12
  -3   2  14 44.6569 122.376   9
  -3  -2  14-162.710 129.024  22
   3   2  15 90.0333 149.193  12
   3   2  15 226.659 144.407  11
   3  -2  15 1.10876 153.131  10
  -3  -2  15 157.247 152.633  10
  -3   2  15 214.731 152.826   9
  -3  -2  15 242.055 157.544   9
   3  -2  15 143.921 141.038  11
   3   2  15 198.409 136.783  13
  -3   2  15 254.360 147.329  13
   3  -2  15 219.004 152.320  13
  -3  -2  15 157.756 144.632  13
   3   2  16 193.861 148.630  12
  -3   2  16 435.758 163.944   9
  -3  -2  16 126.528 157.586  10
  -3   2  16 91.1869 140.066  13
  -3  -2  16 177.620 144.518   9
   3  -2  16 128.700 148.310  11
  -3  -2  16 83.6717 139.996  13
   3   2  16 89.7056 136.479  11
   3   2  16-20.6745 147.516  13
   3  -2  16 135.232 145.652  13
   3  -2  17 104.874 147.087  11
   3  -2  17 104.968 137.168  13
  -3  -2  17 22.1034 152.018  10
  -3  -2  17-90.4634 139.357  13
  -3  -2  17 61.0952 143.299   9
  -3   2  17-25.8275 144.847   9
   3   2  17-228.459 145.937   4
   3   2  17-125.246 137.216  11
   3   2  17-23.3132 140.173  13
  -3   2  17 167.285 141.643  13
   3  -2  18-85.3275 123.998  13
  -3  -2  18-71.1904 141.763  10
   3   2  18-367.727 152.238   4
   3  -2  18-206.729 127.989  11
   3   2  18-234.015 147.683  11
  -3  -2  18 37.0041 125.457  13
   3  -2  19-195.118 122.229  11
   3   2  19-185.929 140.534   4
  -3  -2  19 5.65082 126.760  10
   3  -2  19 199.092 122.053  13
  -3  -2  19 67.3752 123.509  13
   3  -2  20-68.4007 103.629  11
   3  -2  20 96.3930 105.110  13
   3  -2  20-92.0527 112.788   4
   3   2  20 62.1617 101.936   4
  -3  -2  20-75.4932 106.826  13
  -3  -3   0-24.2077 112.997  17
   3   3   0 68.7153 111.821  17
  -3  -3   1 12777.4 424.008  17
  -3   3   1 11764.6 354.686  17
   3   3  -1 13237.5 434.940  17
  -3  -3  -1 12063.2 445.715  17
   3   3  -2 5550.38 167.230   1
  -3  -3  -2 5698.99 344.826  17
   3   3  -2 5563.16 284.602  17
  -3  -3   2 5866.33 293.383  17
  -3   3   2 5660.81 238.055  17
  -3   3   3 126563. 1023.62  17
   3   3  -3 129498. 1298.40  17
   3   3  -3 126246. 732.987   1
   3   3   4 1203.80 90.7733  16
   3   3  -4 1221.99 103.763   1
   3   3  -4 1223.49 159.719  17
   3   3  -5 215836. 1009.85   1
   3  -3   5 215038. 940.369  22
   3   3   5 214045. 989.166  16
  -3  -3   5 214536. 1030.03  22
   3   3  -6 1367.30 105.371   1
  -3  -3   6 1367.36 113.639  22
   3  -3   6 1507.69 106.006  22
   3   3   6 1370.25 107.444  16
  -3  -3   7 1687.69 130.263  22
   3  -3   7 1832.67 120.258  22
   3  -3   7 1623.53 122.043  16
  -3  -3   8 7289.33 249.051  22
   3  -3   8 7557.74 234.606  22
   3  -3   8 6895.34 238.030  16
   3  -3   9 72589.7 763.039  16
   3  -3   9 73838.2 745.735  22
  -3  -3   9 71650.8 780.308  22
  -3  -3  10 760.907 129.436  22
   3  -3  10 760.324 114.316  22
   3  -3  10 603.707 103.620  16
   3  -3  11 326.602 101.532  16
   3  -3  11 449.584 103.242  22
  -3  -3  11 328.090 109.906  22
   3  -3  12 1444.35 156.140  22
  -3  -3  12 1542.11 166.390  22
  -3  -3  13 4086.79 258.938  22
   3   3  14 665.260 163.679  12
   3   3  14 621.381 154.671  11
   3  -3  14 824.800 162.124  10
  -3   3  14 775.947 143.864   5
  -3   3  14 696.447 150.452   9
  -3  -3  14 425.253 139.470   9
  -3  -3  14 935.397 186.409  10
  -3   3  14 595.620 147.107  13
  -3  -3  14 749.182 163.418  13
   3  -3  14 635.804 150.100  13
   3   3  14 793.495 163.514  13
   3  -3  15 1686.38 203.018  13
   3   3  15 1148.72 184.445  11
   3  -3  15 1281.53 197.099  11
   3  -3  15 1391.52 200.181  10
  -3  -3  15 1212.86 188.039  13
   3   3  15 1153.20 190.392   4
  -3   3  15 1213.53 188.492   9
  -3  -3  15 1383.03 191.443   9
   3   3  15 1360.80 197.501  12
  -3   3  15 1240.30 195.350  13
  -3   3  15 1662.39 185.962   5
  -3  -3  15 1540.53 211.369  10
   3   3  15 1490.77 196.375  13
   3   3  16 413.484 155.261  11
   3  -3  16 494.007 159.482  11
   3  -3  16 322.352 171.757  10
  -3  -3  16-32.7933 147.952  10
  -3   3  16 198.963 134.154  13
  -3   3  16 323.161 151.359   9
   3   3  16-33.5648 138.256   4
  -3  -3  16 247.333 145.370   9
   3   3  16 86.3302 129.419  13
   3  -3  16 1.88396 131.992  13
  -3  -3  16 188.637 141.774  13
   3   3  17 2722.80 240.845  11
  -3  -3  17 3031.70 251.525  10
  -3  -3  17 3286.08 241.615   9
   3   3  17 2600.69 237.807   4
   3  -3  17 3463.44 255.221  13
   3  -3  17 2985.19 244.968  11
  -3  -3  17 3076.95 249.213  13
   3  -3  18 399.995 137.474  11
  -3  -3  18 424.759 146.899  10
   3   3  18-89.0654 139.641   4
   3  -3  18 328.097 142.905  13
  -3  -3  18 294.872 150.173  13
  -3  -3  19 1924.13 191.799  10
   3   3  19 1576.11 180.483   4
   3  -3  19 2001.29 189.162  13
   3  -3  19 2211.26 191.276  11
  -3  -3  19 1730.26 184.228  13
   3  -3  20 2.03557 94.1842  11
   3   3  20 151.108 109.663   4
   3  -3  20-55.0555 104.531   4
  -3  -3  20-155.468 103.252  13
   3  -3  20-139.965 101.597  13
   3   4   0 14.1188 67.1522   1
   3   4   0 122.353 126.117  17
   3   4   1 2162.20 110.937   1
   3   4  -1 2090.91 115.201   1
  -3  -4   1 1891.09 209.485  17
  -3   4   1 2259.79 202.995  17
   3   4  -1 2293.48 228.337  17
   3   4  -2 96045.1 663.645   1
   3   4  -2 93663.4 1259.80  17
   3   4  -3 168.688 77.5126   1
   3   4  -3 174.343 120.286  17
   3   4  -4 1140.77 104.062   1
   3   4  -5 9711.18 242.176   1
   3  -4   5 9537.23 217.553  22
   3  -4   6 28741.7 395.991  22
   3   4  -6 29079.9 412.231   1
  -3  -4   6 28999.7 429.650  22
  -3  -4   7 1228.51 120.013  22
   3  -4   7 1296.70 111.549  22
   3  -4   7 1331.13 110.248  16
   3   4  -7 1277.55 113.597   1
  -3  -4   8 1386.83 137.246  22
   3  -4   8 1477.25 127.125  22
   3  -4   8 1105.20 112.229  16
   3  -4   9 5583.88 226.196  22
  -3  -4   9 5143.50 236.646  22
   3  -4   9 5197.00 216.313  16
  -3  -4  10 7990.49 299.717  22
   3  -4  10 7829.04 280.482  22
   3  -4  10 7629.00 282.545  16
  -3  -4  11 757.892 133.149  22
   3  -4  11 860.589 127.535  22
   3  -4  11 600.591 109.324  16
  -3  -4  12 348.496 122.103  22
  -3  -4  13 237.974 131.840  22
  -3  -4  14 46.5418 135.771  13
   3   4  14 128.927 148.170  12
  -3  -4  14-188.282 147.387   9
  -3   4  14-187.988 135.952   9
   3   4  14-365.524 160.396   4
   3  -4  14-178.916 158.801  10
  -3   4  14-37.8801 122.205   5
  -3  -4  14-101.577 165.037  10
   3  -4  14 176.121 131.438  13
   3   4  14-264.126 153.811  11
   3  -4  15 643.009 163.378  13
   3   4  15 845.774 180.548  11
   3  -4  15 547.421 177.838  10
  -3   4  15 730.809 155.249   5
  -3   4  15 526.136 151.873   9
  -3  -4  15 468.993 153.866   9
  -3  -4  15 574.353 160.297  13
   3   4  15 477.863 150.748   4
  -3  -4  15 522.991 174.671  10
  -3  -4  16-120.348 133.489  13
   3  -4  16 92.5888 132.183  13
  -3   4  16 120.481 148.668   9
   3   4  16 183.770 148.778  11
  -3  -4  16 179.902 163.393  10
  -3  -4  16 204.261 145.982   9
   3  -4  16 50.3489 154.105  10
   3  -4  16-40.8927 130.588  11
   3   4  16-47.7208 133.393   4
   3  -4  17 92.1636 132.615  11
  -3  -4  17 57.3702 142.361  10
  -3  -4  17 181.261 138.431   9
   3   4  17-94.2575 136.538   4
  -3  -4  17 215.915 132.667  13
   3  -4  17-21.5165 133.220  13
   3   4  18 801.306 156.590   4
   3  -4  18 297.131 133.580  11
  -3  -4  18 561.320 166.345  10
   3  -4  18 587.188 142.394  13
  -3  -4  18 782.113 153.785  13
  -3  -4  19-43.6780 120.314  10
   3  -4  19-92.8214 103.557  11
   3  -4  19 64.5225 105.600  13
   3   4  19 108.845 110.170   4
  -3  -4  19-83.4868 108.018  13
  -3  -4  20 132.870 108.672  10
  -3  -4  20 172.356 98.7281  13
   3  -4  20 39.8822 95.1418  13
   3   5   0 272.516 76.7921   1
   3   5   1 24512.1 339.409   1
   3   5  -1 23663.4 356.589   1
  -3   5   2 167210. 1732.46  17
   3   5   2 169149. 848.542   1
   3   5  -2 170978. 951.086   1
   3   5   3 5520.64 159.589   1
   3   5  -3 5444.60 191.682   1
   3   5  -4 1553.39 124.936   1
   3   5  -5 101.281 88.1886   1
   3   5  -6 415.397 94.0887   1
   3  -5   6 561.901 95.1952  22
   3  -5   7 1057.86 106.040  16
   3  -5   7 1345.16 117.322  22
   3   5  -7 1204.30 116.541   1
  -3  -5   7 1066.57 120.036  22
   3  -5   8 25015.3 447.911  22
  -3  -5   8 24674.2 472.798  22
   3  -5   8 24139.0 426.339  16
  -3  -5   9 103.675 103.870  22
   3  -5   9 308.372 100.501  22
  -3  -5  10 22224.1 501.488  22
   3  -5  10 22029.2 473.968  22
  -3  -5  11 9592.99 356.328  22
  -3  -5  12 37162.2 715.542  22
  -3   5  13 1847.52 175.689   6
   3   5  13 2262.07 206.799  12
   3   5  13 2392.28 209.535  11
  -3   5  13 2174.41 191.400   5
  -3  -5  13 1980.97 194.030  10
  -3  -5  13 1839.70 198.146  22
   3  -5  14 5.12306 148.919  10
   3   5  14 156.495 148.298  11
  -3   5  14-211.263 144.201   6
  -3  -5  14 177.861 136.127  13
  -3  -5  14-209.317 163.715  10
   3   5  14-284.667 149.004   4
  -3   5  14-55.0720 116.504   5
   3  -5  14-46.0589 129.782  13
   3  -5  15 70.0107 138.204  13
   3  -5  15-206.263 155.982  10
   3   5  15-388.466 161.631   4
  -3  -5  15 174.681 134.264  13
  -3  -5  15-13.6184 156.305  10
   3  -5  16 2591.20 237.838  10
  -3  -5  16 2356.96 232.159  10
   3   5  16 2467.63 228.197   4
   3  -5  16 2277.32 228.657  13
  -3   5  16 2234.21 212.056   5
   3  -5  16 2998.74 237.516  11
  -3  -5  16 2280.28 232.266  13
  -3  -5  17 691.155 169.306  10
   3  -5  17 682.876 149.473  11
   3  -5  17 479.883 146.174  13
   3   5  17 439.132 146.268   4
  -3  -5  17 485.342 144.316  13
  -3  -5  18-131.694 133.052  10
   3  -5  18-32.9437 118.897  11
   3   5  18 246.104 126.333   4
   3  -5  18-55.9074 110.823  13
  -3  -5  18-6.28294 118.395  13
  -3  -5  19-10.5136 116.513  10
  -3  -5  19 22.0180 100.635  13
   3  -5  19-32.7195 100.929  13
  -3  -5  20 526.477 119.526  10
   3   6   0-131.186 77.5512   1
   3   6  -1 376.440 91.3507   1
   3   6   1 426.353 85.0311   1
   3   6   2 22413.7 345.076   1
   3   6  -2 22432.8 381.509   1
   3   6  -3 4079.99 182.849   1
   3   6  -4 102.619 86.7988   1
   3   6  -5 2546.53 157.183   1
   3   6  -6 33.7668 82.5526   1
   3  -6   6 87.8462 81.4079  22
   3   6  -7 287.174 93.4975   1
   3  -6   7 193.630 81.6848  22
  -3  -6   7 59.2382 99.0459  22
  -3  -6   8 463.812 115.146  22
   3  -6   8 304.517 94.4131  22
   3  -6   9 518.410 110.864  22
  -3  -6   9 399.578 118.322  22
  -3  -6  10-129.943 123.895  22
  -3  -6  11 977.553 157.398  22
  -3  -6  12 201.967 133.267  22
  -3   6  13 90.6414 126.546   6
  -3   6  13 178.183 118.672   5
  -3  -6  13 99.3003 153.537  10
   3  -6  13-50.7917 131.864  13
   3   6  13 102.182 126.489   6
  -3  -6  13 304.250 145.794  13
   3  -6  14-214.142 161.720  13
  -3  -6  14-83.2270 141.041  13
  -3   6  14-157.871 132.989   6
   3   6  14 220.585 130.443   6
  -3   6  14-113.248 133.662   5
  -3  -6  14-8.54616 155.039  10
   3  -6  15 175.958 138.072  13
  -3  -6  15 126.076 134.528  13
   3   6  15-43.7940 119.562   6
  -3   6  15 64.4853 125.875   5
  -3  -6  15 197.758 160.211  10
   3  -6  16-35.5865 132.583  13
  -3  -6  16 199.103 150.473  13
   3  -6  16-54.6329 122.732  11
   3  -6  16 224.750 150.098  10
  -3   6  16 293.620 131.543   5
  -3  -6  16 227.448 157.078  10
   3  -6  17 90.1067 123.565  13
  -3  -6  17-271.730 132.136  13
  -3  -6  17 36.5145 142.953  10
  -3  -6  18 133.046 125.371  10
   3  -6  18 71.4846 112.838  13
  -3  -6  18-24.4084 117.204  13
  -3  -6  19 40.7683 108.833  10
   3  -6  19-23.4511 97.6069  13
  -3  -6  19 75.0920 105.583  13
   3   7   0-15.1166 82.1509   1
   3   7  -1 20209.8 378.035   1
   3   7   1 19928.0 363.331   1
   3   7  -2 41547.5 547.112   1
   3   7   2 41593.0 508.747   1
   3   7  -3 12905.2 321.345   1
   3   7  -4 38834.4 551.810   1
   3   7  -5 75959.9 782.800   1
   3   7  -6 4523.39 214.863   1
   3   7  -7 240.548 99.4341   1
  -3  -7   7 87.3965 98.1354  22
   3  -7   7 290.154 91.0884  22
  -3  -7   8 2907.69 200.281  22
  -3  -7   9 25329.9 544.140  22
  -3  -7  10 11985.8 401.298  22
  -3  -7  11 484.265 144.657  22
  -3   7  12 4043.87 250.662   6
   3  -7  12 3940.96 265.626  13
  -3   7  12 4294.61 256.567   5
   3   7  12 3455.55 227.673   6
  -3  -7  12 3664.16 267.236  13
   3  -7  13 417.353 161.380  13
  -3  -7  13 346.694 160.054  13
  -3   7  13 550.018 167.586   6
   3   7  13 217.017 132.784   6
  -3  -7  13 268.578 151.511  10
  -3   7  13 295.060 135.916   5
   3  -7  14-92.6032 140.490  13
  -3   7  14-6.61790 138.909   6
  -3  -7  14-12.2618 156.933  10
   3   7  14 114.331 128.970   6
  -3  -7  14-194.498 157.884  13
  -3   7  15 1622.38 186.858   5
   3   7  15 1320.31 182.911   6
  -3  -7  15 1378.53 202.763  10
   3  -7  15 1324.91 187.331  13
  -3  -7  15 1273.51 189.596  13
  -3  -7  16 38.6568 117.860  13
   3  -7  16 353.709 137.198  13
  -3   7  16 117.695 109.898   5
  -3  -7  16 247.099 155.284  10
   3   7  16 49.1097 119.742   6
  -3  -7  17 1031.48 164.112  13
   3  -7  17 1059.80 162.321  13
   3   7  17 919.817 144.058   6
  -3  -7  17 1227.34 176.315  10
  -3  -7  18 577.198 141.246  10
   3  -7  18 237.838 113.027  13
  -3  -7  18 433.603 124.662  13
  -3  -7  19 754.875 127.208  10
   3  -7  19 633.636 119.115  13
  -3  -7  19 531.572 119.016  13
   3   8   0-45.7651 88.0297   1
   3   8  -1 5214.86 222.342   1
   3   8   1 5282.77 215.601   1
   3   8   2 444.588 95.5528   1
   3   8  -2 433.714 106.362   1
   3   8  -3 12676.2 338.724   1
   3   8  -4 1432.71 140.458   1
   3   8  -5 2434.90 176.867   1
   3   8  -6 1118.42 139.328   1
   3   8  -7 178.223 99.6323   1
  -3  -8   8 10074.7 359.614  22
   3   8  -8 9777.23 334.095   1
  -3  -8   9 742.193 148.748  22
  -3  -8  10-72.6491 123.217  22
   3  -8  11 631.307 149.121  13
   3   8  11 918.434 148.147   6
  -3   8  11 597.286 126.726   6
  -3  -8  11 308.066 130.251  13
  -3  -8  11 621.065 153.681  22
   3   8  12 3121.49 226.806   6
  -3  -8  12 3565.46 276.490  13
  -3   8  12 3191.91 232.727   5
  -3   8  12 3317.93 245.588   6
   3  -8  12 3337.92 262.595  13
   3  -8  13 283.493 159.746  13
  -3  -8  13 262.717 148.396  13
  -3   8  13 314.841 160.002   6
   3  -8  13 551.686 169.642  21
   3   8  13 270.057 138.159   6
  -3  -8  13 291.399 166.026  10
  -3   8  13 592.782 152.534   5
  -3  -8  14-169.523 142.554  13
   3   8  14-106.310 124.786   6
  -3  -8  14 111.945 151.361  10
  -3   8  14 94.6991 120.000   5
   3  -8  14-327.215 157.881  13
  -3   8  14-47.1991 137.751   6
  -3  -8  15-90.4442 127.284  13
   3   8  15 125.545 133.852   6
  -3   8  15 49.2176 119.193   5
   3  -8  15 218.523 130.669  13
  -3  -8  15-61.8256 152.128  10
  -3   8  16 1040.10 153.990   5
  -3  -8  16 612.003 150.180  10
   3   8  16 788.279 146.841   6
   3  -8  16 894.491 155.809  13
  -3  -8  16 547.551 150.118  13
   3   8  17 227.996 114.264   6
  -3  -8  17 191.689 119.238  10
  -3  -8  17 361.234 126.722  13
  -3   8  17 423.041 127.818   5
   3  -8  17 199.692 112.403  13
  -3  -8  18-88.5595 113.649  10
   3   8  18 103.978 94.4991   6
   3  -8  18 50.6067 100.774  13
  -3  -8  18-61.4997 105.636  13
   3   9   0-4.77737 86.2192   1
   3   9   1 2474.83 173.309   1
   3   9  -1 2678.07 187.951   1
   3   9   2 39135.7 582.854   1
   3   9  -2 39768.7 623.379   1
   3   9  -3 24093.0 494.364   1
   3   9  -4 312.770 111.677   1
   3   9  -5 28494.5 557.623   1
   3   9  -6 1894.69 172.245   1
   3   9  -7 20.1686 105.365   1
   3   9  -8 11951.6 389.144   1
  -3  -9   8 13036.2 423.263  22
  -3  -9   9 3626.74 248.384  22
  -3  -9  10 30.5381 112.087  13
   3  -9  10 107.307 114.502  13
  -3   9  10-50.3730 112.433   6
  -3   9  10 308.970 112.757  19
   3   9  11 4382.10 261.869   6
  -3  -9  11 4090.76 287.387  13
  -3   9  11 4355.79 264.031   6
   3  -9  11 4380.29 292.182  13
  -3   9  12 2622.13 218.911   5
  -3   9  12 2555.77 218.461   6
   3   9  12 2651.41 215.258   6
   3  -9  12 2578.78 248.524  13
  -3  -9  12 2521.43 248.167  13
  -3   9  13 2823.87 222.630   6
   3  -9  13 2273.50 244.492  21
  -3   9  13 2975.91 230.402   5
   3  -9  13 2679.96 245.773  13
   3   9  13 2742.97 227.806   6
  -3  -9  13 2883.46 243.210  10
  -3  -9  13 2416.91 240.810  13
  -3   9  14 1074.57 167.198   6
   3   9  14 825.310 159.206   6
  -3  -9  14 763.578 166.337  10
  -3  -9  14 747.568 165.908  13
  -3   9  14 900.562 151.902   5
   3  -9  14 953.669 181.422  21
   3  -9  14 885.657 167.705  13
  -3  -9  15 136.480 127.048  13
  -3   9  15 121.090 112.166   5
   3   9  15 193.225 129.556   6
   3  -9  15 195.097 134.400  13
  -3  -9  15 304.985 146.643  10
  -3   9  16 418.874 128.583   5
   3   9  16 495.785 135.123   6
  -3  -9  16 531.553 144.893  10
  -3  -9  16 470.590 140.487  13
   3  -9  16 543.302 143.576  13
   3  -9  17 967.937 152.244  13
   3   9  17 1005.69 141.116   6
  -3  -9  17 1182.34 157.576  10
  -3   9  17 1153.53 145.495   5
  -3  -9  17 1126.24 154.460  13
  -3  -9  18 231.260 113.410  10
  -3  -9  18 253.285 102.717  13
   3  10   0-41.0641 96.3247   1
   3  10   1 1054.09 133.954   1
   3  10  -1 948.215 141.654   1
   3  10   2 1205.69 139.306   1
   3  10  -2 1029.30 147.007   1
   3  10  -3 2223.74 185.596   1
   3  10  -4 11067.8 373.149   1
   3  10  -5 2034.39 189.499   1
   3  10  -6 467.770 124.441   1
   3  10  -7 53.2763 112.308   1
   3  10  -8 3181.41 229.859   1
  -3 -10   8 3973.58 262.438  22
  -3  10   9 87.8674 107.316  19
  -3 -10  10 295.419 146.238  13
   3 -10  10 239.524 141.219  13
  -3  10  10 227.763 124.774   6
  -3  10  10 434.771 135.226  19
   3 -10  11-33.5336 139.433  13
  -3  10  11-144.159 129.258   6
  -3 -10  11-271.528 159.208  13
   3  10  11 72.1145 135.568   6
  -3 -10  12 326.117 151.076  13
  -3  10  12 740.188 156.587   6
  -3 -10  12 771.912 181.170  10
   3  10  12 520.678 152.051   6
  -3  10  12 668.231 155.751   5
   3 -10  12 339.091 145.809  13
  -3 -10  13 111.275 129.558  13
  -3  10  13 33.0271 125.832   6
   3 -10  13 82.9165 158.394  21
   3 -10  13-53.1424 131.500  13
  -3  10  13-98.3317 121.355   5
   3  10  13 113.344 130.297   6
  -3 -10  13-135.082 143.529  10
  -3  10  14 221.241 125.353   6
  -3 -10  14 64.7286 126.904  13
   3  10  14 192.341 119.808   6
  -3  10  14 317.972 129.742   5
   3 -10  14 32.6681 127.062  21
   3 -10  14 217.410 128.980  13
  -3 -10  14 11.0808 136.429  10
   3  10  15-15.7579 115.365   6
  -3  10  15 151.511 104.298   5
  -3 -10  15 376.169 137.195  10
   3 -10  15 101.822 113.403  13
  -3 -10  15-223.091 126.188  13
   3 -10  16 131.549 113.264  13
  -3 -10  16 279.176 120.598  13
   3  10  16 528.269 131.413   6
  -3  10  16 564.004 123.925   5
  -3 -10  16 414.155 138.011  10
   3 -10  17 257.130 103.744  13
  -3 -10  17 96.0068 94.3536  13
   3  10  17-49.5777 90.3478   6
  -3  10  17 228.370 97.4003   5
  -3 -10  17 100.183 105.817  10
   3  11   0 198.368 124.786   1
   3  11  -1 21680.1 517.677   1
   3  11   1 21810.5 510.084   1
   3  11  -2 21149.5 521.503   1
   3  11  -3 7004.93 321.012   1
   3  11  -4 6171.59 310.788   1
   3  11  -5 4318.93 265.390   1
   3  11  -6 977.957 165.432   1
   3  11  -7 18.2247 113.384   1
  -3 -11   7-188.633 133.113   3
  -3  11   7-62.0299 109.427  19
  -3  11   7-71.6640 109.967   7
  -3  11   8 185.570 123.770  19
  -3  11   8-69.5605 140.115   7
  -3  11   9 1148.21 167.027  19
   3  11  10 5942.10 306.807   6
  -3  11  10 7083.19 322.772  19
  -3 -11  10 6325.62 350.046  13
   3 -11  10 6731.06 360.624  13
  -3  11  11 4856.71 274.553   6
   3  11  11 4405.08 273.355   6
  -3 -11  11 4792.10 306.880  13
   3 -11  11 4871.13 306.635  13
   3  11  12 3605.79 248.007   6
  -3  11  12 3640.86 249.567   5
  -3  11  12 3979.61 242.855   6
  -3 -11  12 3613.04 274.784  13
   3 -11  12 3405.09 260.633  13
   3 -11  13 337.146 142.103  13
  -3 -11  13 308.710 142.009  13
   3  11  13 181.524 136.348   6
   3 -11  13 254.238 141.235  21
  -3  11  13 144.420 121.619   5
  -3  11  13 311.949 128.659   6
   3 -11  14 183.502 119.724  13
  -3 -11  14-43.7796 118.165  13
   3  11  14 29.4313 111.896   6
  -3  11  14 41.6066 97.8093   5
   3 -11  14-168.950 143.149  21
   3 -11  15 627.185 148.746  13
  -3 -11  15 761.470 149.497  13
   3  11  15 555.629 134.014   6
  -3  11  15 797.574 130.859   5
   3 -11  15 1008.69 155.677  21
  -3 -11  16 36.8823 94.5883  13
   3  11  16 60.1617 90.5065   6
  -3  11  16 92.6668 94.4084   5
   3 -11  16-59.4941 97.8903  13
   3  12   0-50.4399 111.584   1
   3  12   1-78.9015 114.464   1
   3  12  -1-98.4118 129.176   1
   3  12  -2 2850.57 230.745   1
   3  12  -3 204.328 120.224   1
   3  12  -4 239.997 118.473   1
  -3 -12   4 515.552 139.509   3
  -3  12   4 163.371 116.022   7
  -3  12   5 356.884 139.877   7
  -3 -12   5 513.871 171.632   3
  -3  12   5 483.997 129.175  19
  -3  12   6 803.060 156.830  19
  -3 -12   6 868.592 197.139   3
  -3  12   6 584.577 166.482   7
  -3 -12   7 647.453 177.404   3
  -3  12   7 752.585 165.744   7
  -3  12   7 719.337 155.139  19
  -3  12   8-59.0173 118.542  19
  -3  12   8 60.9046 145.175   7
   3  12   9 360.535 137.648   6
  -3  12   9 169.694 151.304   7
  -3  12   9-113.963 131.822  19
   3 -12  10 188.456 142.000  13
  -3  12  10-22.7631 118.900  19
  -3 -12  10 145.462 146.645  13
   3  12  10 234.656 135.463   6
  -3 -12  11 2175.31 223.225  13
   3  12  11 2683.44 210.359   6
   3 -12  11 2559.56 237.642  13
   3 -12  12 51.3539 120.163  13
  -3 -12  12 275.155 142.120  13
  -3  12  12 28.9363 114.595   6
   3  12  12 101.500 125.593   6
  -3  12  12-34.4603 120.608   5
  -3 -12  13-102.962 117.602  13
  -3  12  13 138.250 107.726   5
   3 -12  13-9.74379 133.533  21
   3 -12  13 84.3791 117.091  13
   3  12  13-213.131 113.398   6
   3 -12  14 84.1528 110.573  13
  -3 -12  14 100.622 109.722  13
   3  12  14-87.1098 102.578   6
  -3  12  14 81.8144 93.2198   5
   3 -12  14 136.239 117.985  21
  -3 -12  15 131.798 101.228  13
   3  12  15 261.421 101.642   6
   3 -12  15 276.109 110.944  21
  -3  12  15 134.052 84.5070   5
   3 -12  15-4.01335 103.266  13
  -3  13   0 6.49651 140.034   7
  -3 -13   0 19.6709 173.182   3
  -3 -13  -1 94.3714 163.754   3
  -3 -13   1 16.4431 160.189   3
  -3  13   1 56.0299 128.167   7
  -3 -13  -2-122.747 155.431   3
  -3 -13   2-163.867 173.894   3
  -3  13   2-49.3098 134.057   7
  -3  13   3 2359.13 212.758   7
  -3 -13   3 2386.05 244.565   3
  -3 -13   4 9094.44 381.954   3
  -3  13   4 8718.33 359.410   7
  -3  13   5 12602.9 413.463   7
  -3  13   5 12599.1 418.072  19
  -3 -13   5 12815.3 436.791   3
  -3  13   6 5607.84 301.346  19
  -3 -13   6 6043.00 327.400   3
  -3  13   6 5740.99 300.708   7
  -3  13   7 406.805 135.840  19
  -3 -13   7 353.253 186.437   3
  -3  13   7 335.904 143.336   7
  -3  13   8 2961.89 232.707  19
   3  13   8 3545.53 229.632   6
  -3  13   8 3353.20 245.843   7
  -3  13   9 1685.75 182.707  19
   3  13   9 2047.04 190.263   6
  -3  13   9 1638.27 193.244   7
  -3  13  10 680.607 136.617  19
  -3 -13  10 871.086 172.772  13
   3 -13  10 704.933 160.120  13
   3  13  10 533.186 143.245   6
  -3 -13  11-59.7672 126.652  13
   3 -13  11 24.6766 119.846  13
   3  13  11-29.3001 104.584   6
   3 -13  12-161.008 119.903  13
  -3 -13  12-42.0542 111.808  13
   3  13  12-185.100 113.871   6
  -3  13  12-68.1391 107.720   5
   3 -13  12-117.030 125.093  21
   3 -13  13 164.881 114.939  13
  -3  13  13-94.6153 94.1715   5
  -3 -13  13 8.92697 106.966  13
   3  13  13 37.5132 94.5052   6
   3 -13  13 14.8109 117.781  21
   3 -13  14 252.088 103.082  13
  -3 -13  14 91.4438 99.9550  13
   3  13  14 182.109 90.8620   6
   3 -13  14 141.374 107.315  21
  -3  13  14 301.316 102.671   5
  -3 -14   0-99.1637 156.711   3
  -3  14   0 240.648 139.384   7
  -3 -14  -1-202.929 181.319   3
  -3 -14   1-107.961 184.874   3
  -3  14   1 247.055 139.052   7
  -3 -14  -2 2040.69 219.092   3
  -3  14   2 2398.06 211.568   7
  -3 -14   2 2333.38 239.026   3
  -3 -14   3 126.823 164.284   3
  -3  14   3 385.763 157.881   7
  -3  14   4 1256.41 171.998  19
  -3 -14   4 1477.12 213.501   3
  -3  14   4 1017.55 182.916   7
  -3 -14   5-153.639 172.300   3
  -3  14   5-42.2665 117.445  19
  -3  14   5 184.406 141.819   7
  -3 -14   6 812.429 180.403   3
  -3  14   6 510.789 149.064  19
  -3  14   6 348.173 139.977   7
  -3 -14   7 83.3904 151.387   3
  -3  14   7 37.7750 130.564   7
  -3  14   7-3.62838 115.045  19
   3  14   7 145.046 135.494   7
   3  14   8 919.797 167.466   7
  -3  14   8 1050.87 160.960  19
  -3 -14   8 876.137 178.573   3
  -3  14   8 736.319 157.351   7
   3  14   9 7.05789 102.349   6
  -3  14   9-71.8432 101.663  19
  -3  14   9-150.364 124.514   7
  -3 -14  10 325.373 136.719  13
   3 -14  10 255.226 130.898  13
   3  14  10 159.770 106.346   6
   3 -14  11 47.7855 106.396  13
   3  14  11-34.6517 100.998   6
  -3  14  11 49.2497 101.796   5
  -3 -14  11 44.4275 107.074  13
   3 -14  12 13.7377 98.7219  13
  -3 -14  12 122.382 101.241  13
   3  14  12 77.7786 102.935   6
  -3  14  12 183.484 94.4450   5
   3 -14  12 192.023 120.865  21
   3 -14  13 142.754 100.163  13
  -3 -14  13 49.4431 100.138  13
   3  14  13 163.453 93.7291   6
  -3  14  13-16.9796 86.0520   5
   3 -14  13-95.9165 98.0934  21
  -3 -15   0 48.1007 157.338   3
  -3  15   0 206.823 144.946   7
  -3 -15  -1 3625.14 258.622   3
  -3  15   1 3647.23 238.142   7
  -3 -15   1 3754.56 270.071   3
  -3  15   2 2677.74 219.304   7
  -3 -15  -2 2251.42 226.807   3
  -3 -15   2 2568.40 245.203   3
  -3  15   3 3953.23 249.973  19
  -3  15   3 4220.20 261.509   7
  -3 -15   3 4247.98 281.178   3
  -3 -15   4 314.616 173.287   3
  -3  15   4 133.300 108.827  19
  -3  15   4 395.937 154.496   7
  -3 -15   5-206.256 177.673   3
  -3  15   5 99.7833 107.801  19
  -3  15   5 175.744 149.766   7
   3  15   6-223.892 132.038   7
  -3 -15   6-235.375 169.336   3
  -3  15   6-12.8417 106.619  19
  -3  15   6-129.867 130.729   7
   3  15   7 198.271 136.294   7
  -3 -15   7 42.3677 150.557   3
  -3  15   7-38.2765 111.984  19
  -3  15   7 144.855 129.877   7
  -3  15   8 1235.28 159.159  19
   3  15   8 1391.25 173.255   7
  -3  15   8 1203.89 167.400   7
  -3 -15   9-64.5375 109.612  13
   3 -15   9-34.6974 106.227  13
  -3  15   9-54.8809 102.612  19
  -3  15   9 29.1983 112.063   7
  -3 -15  10 78.6444 117.590  13
   3 -15  10 54.4910 109.519  13
  -3  15  10-50.9108 114.189   7
   3 -15  11 1263.16 154.864  13
  -3 -15  11 1286.95 153.591  13
  -3  15  11 1485.35 142.296   5
   3  15  11 1246.52 137.345   6
   3 -15  11 1573.28 164.421  21
   3 -15  12 286.070 105.579  21
   3  16   0 86.6831 123.252   7
  -3  16   0 102.006 120.609   7
   3  16  -1 1285.38 169.807   7
   3  16   1 1430.08 177.952   7
  -3 -16   1 810.257 168.678   3
  -3  16   1 1382.37 168.747   7
   3  16   2 319.342 139.919   7
  -3 -16   2 243.109 166.326   3
  -3  16   2 241.037 116.369  19
  -3  16   2 510.589 138.516   7
   3  16   3 1132.16 171.171   7
  -3  16   3 927.996 156.565  19
  -3 -16   3 809.454 178.954   3
  -3  16   3 967.773 150.787   7
   3  16   4 49.0168 122.222   7
  -3 -16   4-159.196 154.805   3
  -3  16   4-112.439 112.208  19
  -3  16   4-54.1882 118.917   7
   3  16   5 68.2801 122.840   7
  -3 -16   5-59.0103 145.414   3
  -3  16   5 62.9451 104.185  19
  -3  16   5 43.0557 110.917   7
   3  16   6-3.17532 119.489   7
  -3  16   6 88.5631 104.773  19
  -3  16   6 303.467 123.989   7
   3  16   7 66.8195 111.635   7
  -3  16   7 24.0098 101.163  19
  -3  16   7-17.1187 109.081   7
  -3 -16   8 8.84902 112.539  13
   3 -16   8 10.6626 105.927  13
  -3  16   8-32.3656 83.9438  19
  -3  16   8 77.5854 109.072   7
   3  16   8-88.1069 106.280   7
  -3 -16   9-280.444 110.703  13
   3 -16   9 8.62131 96.2185  13
  -3  16   9-13.8995 100.597   7
   3  16   9 8.61002 94.3930   7
  -3 -16  10-122.187 92.0612  13
  -3  16  10-129.928 85.1068   5
   3 -16  10 32.1883 92.9849  21
   3  17   0 134.065 110.560   7
   3  17   1 1012.18 145.856   7
  -3  17   1 1314.85 151.440  19
  -3  17   1 1180.44 146.616   7
   3  17   2 129.170 107.696   7
  -3  17   2 258.449 109.403  19
  -3  17   2 257.251 114.038   7
   3  17   3 619.068 129.295   7
  -3  17   3 458.796 114.641  19
  -3  17   3 635.737 128.232   7
  -3  17   4 2379.16 177.293  19
   3  17   4 2449.85 182.456   7
  -3  17   4 2548.85 182.402   7
   3  17   5 771.779 133.456   7
  -3  17   5 778.647 119.412  19
  -3  17   5 823.773 130.043   7
  -3  17   6 597.631 106.602  19
  -3  17   6 679.015 124.510   7
   3  17   6 499.481 114.020   7
  -3 -17   7 60.1478 93.7889  13
   3 -17   7 231.377 102.218  13
  -3  17   7-0.86215 86.6777   7
  -3  17   7 315.784 90.3160  19
   3  17   7 62.8431 101.372   7
  -3  18   0 4.19588 85.6519  19
   3  18   0-36.7932 93.0752   7
  -3  18   1-33.1614 78.4755  19
  -3  18  -1-78.5449 81.4446  19
  -3  18   1-31.9024 91.8883   7
   3  18   1 123.974 98.5046   7
  -3  18   2 211.851 98.1775   7
  -3  18   2 148.248 81.0734  19
   3  18   2-36.6434 91.9830   7
  -3  18   3-73.2214 89.7695   7
  -3  18   3 64.1250 77.2494  19
   3  18   3 87.3642 89.7223   7
  -3  18   4 34.0525 68.1671  19
  -3  18   4 13.1447 81.9246   7
   3  18   4 248.129 91.3888   7
  -4   0   0 144686. 1173.22  18
  -4   0   0 143078. 861.677  15
  -4   0  -1 10.3160 32.3870  15
  -4   0  -1-60.4939 125.090  18
  -4   0   1-114.809 93.9362  15
  -4   0  -2 33993.1 718.535  18
  -4   0   2 32399.0 361.027  17
  -4   0   2 33780.9 606.042  15
  -4   0   3 7.01043 105.825  15
   4   0  -3 28.8964 66.2149   1
  -4   0  -3 47.8622 127.167  18
  -4   0  -3 32.6569 28.9104  15
   4   0  -4 32459.0 376.861   1
  -4   0   5-11.7522 60.7579  22
   4   0  -5 5.84700 68.4766   1
  -4   0   6 24087.7 344.742  22
   4   0   6 24550.2 386.488  16
   4   0  -6 24600.6 349.282   1
  -4   0   7-102.160 83.0143  22
   4   0   7 124.035 81.7434  16
  -4   0   8 121566. 911.312  22
   4   0   8 125577. 967.958  16
  -4   0   9 22.2680 87.3532  22
   4   0   9-136.596 86.7701  16
  -4   0  10 17136.0 405.617  22
   4   0  10 16584.1 415.571  16
  -4   0  11-107.474 98.7188  22
  -4   0  12 5496.65 268.463  22
  -4   0  13-52.5536 120.050  22
  -4   0  14 9132.33 369.272  13
   4   0  14 9916.69 364.704  12
   4   0  14 8964.58 368.210  11
  -4   0  14 9524.04 358.230   9
   4   0  15 71.0847 135.975  12
  -4   0  15-20.2768 150.431   9
   4   0  15-129.213 141.955  11
   4   0  15-267.817 139.387  13
  -4   0  15-177.915 145.788  13
   4   0  16 1698.25 195.958  12
   4   0  16 1707.63 203.705  11
  -4   0  16 1444.82 196.914   9
   4   0  16 1808.01 205.509  13
  -4   0  16 1738.81 208.757  13
   4   0  17 85.7860 132.268  11
  -4   0  17-110.941 134.670   9
   4   0  17-542.567 156.064   4
   4   0  17-218.175 144.602  12
   4   0  17-335.844 155.801  13
  -4   0  17-283.243 141.334  13
   4   0  18 176.897 135.138  11
  -4   0  18-13.7120 135.460   9
   4   0  18-256.433 144.053   4
   4   0  18 196.158 122.706  13
  -4   0  18 161.307 132.114  13
   4   0  19-223.689 136.933   4
   4   0  19 98.8992 120.841  11
  -4   0  19 23.5387 110.722  13
   4   0  20 660.714 129.617  11
   4   0  20 351.470 112.292   4
   4   1   0 16219.0 424.672  18
   4  -1  -1 50942.8 614.735  15
  -4   1   1 48154.2 567.740  18
   4   1  -1 49899.8 658.472  18
  -4  -1   1 47886.0 655.278  17
   4   1   1 50325.0 808.029  18
   4  -1  -2 30766.4 574.495  15
  -4  -1   2 30103.3 457.380  17
   4   1  -2 31024.8 351.129   1
  -4  -1   2 29805.8 607.156  15
   4   1  -2 30501.2 457.134  18
   4  -1  -3 17341.1 492.235  15
   4   1  -3 16941.9 272.675   1
  -4  -1   3 17039.2 511.567  15
   4   1  -4 44816.2 451.556   1
  -4   1   5 1362.31 93.8292  22
   4   1  -5 1370.09 104.138   1
  -4  -1   5 1378.81 99.3679  22
   4  -1  -5 1389.30 104.101   1
   4   1   5 1273.86 103.856  16
  -4   1   6 5647.73 177.097  22
  -4  -1   6 5728.95 182.334  22
   4   1  -6 5528.27 185.251   1
   4  -1  -6 5265.92 176.181   1
   4   1   6 5862.93 195.350  16
  -4   1   7 34297.9 449.131  22
   4   1   7 33800.0 480.248  16
   4  -1   7 34491.5 486.186  16
  -4  -1   7 33910.9 450.786  22
  -4  -1   8 363.904 98.1508  22
   4   1   8 472.886 101.973  16
  -4   1   8 632.942 118.911  22
  -4  -1   9 506.235 101.841  22
   4   1   9 483.306 105.267  16
   4  -1   9 795.318 115.249  16
  -4   1   9 702.636 110.881  22
  -4  -1  10 10156.1 317.057  22
   4  -1  10 10681.8 331.763  16
   4   1  10 10128.9 328.519  16
  -4   1  10 10212.5 317.685  22
   4  -1  11 482.631 117.754  16
  -4  -1  11 616.122 125.696  22
  -4   1  11 491.502 112.461  22
  -4  -1  12 5413.58 271.658  22
  -4  -1  13 4622.03 264.000  22
   4   1  14 711.670 172.628  11
   4   1  14 626.680 152.124  12
   4  -1  14 811.135 143.881  12
  -4   1  14 305.110 130.666   9
  -4  -1  14 862.535 164.204  10
   4  -1  14 1001.33 174.167  11
  -4  -1  14 922.349 155.557   9
  -4   1  14 571.118 142.754  13
  -4  -1  14 383.168 126.274  13
   4   1  15 243.647 149.534  11
   4  -1  15 428.420 153.851  11
  -4   1  15 498.236 155.347   9
  -4  -1  15 256.257 156.690   9
   4   1  15 177.322 147.008  12
  -4  -1  15 350.904 159.627  10
   4   1  15 337.165 145.528  13
  -4   1  15 327.347 142.802  13
   4  -1  15 351.720 151.935  13
  -4  -1  15 425.969 140.501  13
   4  -1  16 468.739 149.676  11
  -4  -1  16 106.322 156.872  10
  -4   1  16 286.073 162.590   9
  -4  -1  16 200.392 150.799   9
   4   1  16 310.974 155.995  12
   4   1  16-140.314 137.775   4
   4   1  16 90.6757 144.758  11
   4   1  16-48.4566 131.579  13
  -4   1  16 6.56196 134.999  13
   4  -1  16 34.5118 124.970  13
  -4  -1  16 28.1994 134.401  13
   4   1  17 3054.99 242.121  12
   4   1  17 2390.59 228.292   4
   4   1  17 2806.63 239.742  11
   4  -1  17 3224.28 245.190  11
  -4  -1  17 2997.33 240.999  10
  -4   1  17 2979.75 234.709   9
  -4  -1  17 2358.06 223.892   9
   4   1  17 2710.24 233.130  13
  -4   1  17 2813.22 234.623  13
  -4  -1  17 2420.74 231.075  13
   4  -1  17 3136.18 248.957  13
   4  -1  18 2.55429 129.572  11
  -4  -1  18 385.486 149.129  10
  -4   1  18-142.720 134.287   9
  -4  -1  18 452.164 152.638   9
   4  -1  18-36.4642 133.573   4
   4   1  18-20.1903 145.606   4
   4   1  18-22.3884 125.798  11
  -4   1  18 322.400 140.743  13
   4   1  18 311.648 135.627  13
   4  -1  18 197.541 125.288  13
  -4  -1  18 115.119 130.757  13
   4   1  19-61.9772 119.895  11
   4  -1  19 11.9933 110.603  11
  -4  -1  19-139.504 123.813  10
   4  -1  19-249.887 139.648   4
   4   1  19-93.8649 119.983   4
   4  -1  19 82.9732 111.409  13
  -4  -1  19 9.12790 110.639  13
   4  -1  20-32.2357 111.428   4
   4  -1  20 302.523 112.422  11
   4   1  20 216.211 107.556   4
  -4  -2   0 33081.0 670.458  17
   4  -2   0 32884.6 420.624  15
   4   2   0 33683.9 677.495  18
   4  -2  -1 56726.8 683.407  15
   4   2  -1 56831.5 468.338   1
  -4  -2  -1 59041.1 955.815  17
   4   2   1 57745.6 945.355  18
  -4  -2   1 57512.8 824.796  17
   4   2  -2 39864.4 414.042   1
  -4  -2   2 39873.3 655.425  17
  -4   2   2 40148.8 479.908  17
   4   2   2 42502.3 859.169  18
   4  -2  -2 39350.1 665.534  15
   4   2  -3 20200.9 308.230   1
   4  -2  -3 20625.5 543.810  15
   4   2  -4 3535.46 151.814   1
  -4  -2   4 3206.20 125.928  22
   4   2   4 3007.78 131.475  16
   4   2   5 25406.1 359.351  16
   4   2  -5 26576.0 375.908   1
  -4  -2   5 25069.1 340.856  22
  -4  -2   6 6139.51 192.489  22
   4   2  -6 6125.59 195.785   1
   4   2   6 5854.20 191.965  16
  -4  -2   7 69626.7 657.466  22
   4   2   7 68565.2 681.820  16
   4  -2   7 67975.4 694.851  16
  -4  -2   8 15459.5 344.126  22
   4   2   8 15352.2 350.647  16
   4  -2   8 15863.6 356.009  16
  -4  -2   9 23226.6 444.310  22
   4   2   9 21854.3 452.102  16
   4  -2   9 23407.6 460.754  16
  -4  -2  10 651.528 112.566  22
   4  -2  10 744.407 116.784  16
   4  -2  11 2776.08 197.206  16
  -4  -2  11 3058.42 202.335  22
  -4  -2  12 3483.47 227.123  22
  -4  -2  13 1895.36 192.856  22
   4   2  14 3621.28 253.804  12
   4   2  14 3430.23 251.700  11
  -4  -2  14 2949.00 243.382  10
  -4  -2  14 3353.85 245.104  13
  -4   2  14 3482.35 246.528   9
  -4  -2  14 3600.47 248.321   9
  -4   2  14 3523.69 246.384   5
  -4   2  14 2886.34 235.749  13
   4   2  15 1043.84 183.188  12
  -4  -2  15 1290.20 204.731  10
  -4   2  15 1341.02 199.234   9
  -4  -2  15 1003.62 184.270   9
   4   2  15 1474.61 198.332   4
   4   2  15 1494.66 195.475  11
   4  -2  15 1367.24 186.019  11
   4   2  15 1175.06 180.620  13
  -4   2  15 1456.87 198.374  13
   4  -2  15 1574.06 201.474  13
  -4  -2  15 1400.33 186.266  13
   4   2  16 619.839 166.639  12
   4  -2  16 262.874 148.948  11
  -4  -2  16 533.117 171.353  10
   4   2  16 446.695 156.448  11
  -4   2  16 387.184 155.404   9
  -4  -2  16 240.263 147.717   9
   4   2  16 159.768 134.465   4
   4   2  16 713.535 160.033  13
  -4   2  16 291.022 147.719  13
   4  -2  16 565.074 160.449  13
  -4  -2  16 547.847 153.462  13
   4  -2  17 581.401 170.541  11
   4   2  17 1021.29 186.680  11
  -4   2  17 471.320 156.092   9
  -4  -2  17 590.176 166.824   9
  -4  -2  17 592.216 172.958  10
   4   2  17 257.731 155.207   4
   4  -2  17 570.064 152.918  13
  -4  -2  17 282.070 134.887  13
   4   2  18-219.860 146.678  11
   4  -2  18 372.867 141.336  11
  -4  -2  18 43.8231 138.708  10
  -4  -2  18-28.0515 122.498   9
   4   2  18-68.1855 143.500   4
   4  -2  18-106.434 121.271  13
  -4  -2  18 3.72609 122.552  13
   4   2  19-243.581 127.378   4
  -4  -2  19 173.813 127.924  10
   4  -2  19-269.995 123.870   4
   4  -2  19 119.732 117.533  11
   4  -2  19 13.4081 101.081  13
  -4  -2  19 3.90325 108.863  13
   4  -2  20 26.1229 98.8215  11
   4   2  20 79.2090 103.436   4
  -4  -2  20 137.810 97.8190  13
  -4  -3   0 165614. 1649.41  17
   4   3   0 163957. 820.231   1
  -4  -3   1 38139.4 769.217  17
   4   3  -1 39321.2 422.024   1
   4   3   1 38921.0 391.259   1
  -4  -3   2 2460.42 211.078  17
   4   3  -2 2459.41 130.009   1
   4   3  -2 2490.39 210.134  17
   4   3  -3 119045. 771.044   1
   4   3  -4 2741.41 138.883   1
   4   3   4 2724.35 121.961  16
   4   3  -5 805.290 104.262   1
   4   3   5 822.851 87.3234  16
  -4  -3   5 694.690 91.8462  22
   4   3   6 3265.41 153.575  16
   4   3  -6 3513.50 160.934   1
  -4  -3   6 3294.86 154.279  22
   4   3  -7 36413.7 477.978   1
   4   3   7 35398.3 495.746  16
  -4  -3   7 36647.5 500.553  22
  -4  -3   8 88.1420 82.1154  22
   4  -3   8 67.0004 79.7049  16
  -4  -3   9 5655.85 242.459  22
   4  -3   9 5782.68 236.582  16
  -4  -3  10 11285.8 343.981  22
   4  -3  10 11332.7 348.594  16
  -4  -3  11 2843.85 201.357  22
   4  -3  11 2710.43 196.583  16
  -4  -3  12 28.0888 107.430  22
   4  -3  12-9.41762 99.8005  16
  -4  -3  13 5093.68 287.823  22
   4  -3  14 271.207 132.552  13
  -4  -3  14 121.494 121.937  13
   4   3  14 331.444 148.669  12
   4   3  14-60.1476 144.258   4
  -4  -3  14-6.42134 143.703   9
   4   3  14-21.0099 152.618  11
   4  -3  14 145.558 149.449  10
  -4   3  14 92.9073 116.634   5
  -4  -3  14 184.163 162.152  10
  -4   3  14 138.514 136.102   9
   4   3  14 199.074 135.535  13
  -4   3  14-72.0851 128.471  13
   4  -3  15 127.302 137.377  13
  -4  -3  15 195.762 145.424  13
   4   3  15 194.148 152.720  12
   4   3  15 52.9030 135.410  11
  -4   3  15 99.0979 136.184   5
  -4  -3  15 377.912 166.088  10
  -4   3  15 135.739 142.140   9
  -4  -3  15 595.504 168.565   9
   4   3  15 34.0056 144.372   4
   4   3  15 37.1366 131.194  13
  -4   3  15 0.57100 137.173  13
   4   3  16 169.498 148.005  12
   4   3  16 237.591 146.476  11
   4  -3  16 256.612 156.996  11
  -4  -3  16 292.521 168.450  10
  -4   3  16 312.498 153.427   9
   4   3  16-203.318 163.937   4
  -4  -3  16-72.6999 135.791   9
   4  -3  16 442.171 151.243  13
  -4  -3  16-14.2304 125.186  13
   4   3  17 2264.62 231.989  11
  -4  -3  17 2333.72 222.660  10
  -4   3  17 2243.20 208.943   9
  -4  -3  17 2687.51 224.739   9
   4   3  17 2178.23 218.685   4
   4  -3  17 2470.06 221.307  11
   4  -3  17 2367.21 221.642  13
  -4  -3  17 2358.07 217.612  13
  -4  -3  18 152.524 141.306  10
   4   3  18-236.896 137.786   4
   4  -3  18 23.9748 119.450  11
   4   3  18-142.338 133.262  11
   4  -3  18 60.4450 123.575  13
  -4  -3  18-45.7676 125.606  13
   4  -3  19-74.2248 112.215  11
  -4  -3  19 266.463 130.751  10
   4  -3  19 11.5075 107.987   4
   4   3  19 252.609 114.444   4
   4  -3  19-1.73679 107.415  13
  -4  -3  19 160.492 112.360  13
   4  -3  20-53.6993 96.9833  11
   4   3  20 269.271 108.114   4
   4  -3  20-187.264 109.355   4
  -4  -3  20 121.377 95.2317  13
   4   4   0 98833.1 678.790   1
   4   4   1 85234.8 610.024   1
   4   4  -1 84734.0 647.835   1
   4   4   2 51704.9 463.460   1
   4   4  -2 52091.1 520.683   1
   4   4  -3 61157.1 581.919   1
   4   4  -4 22238.9 370.389   1
   4   4  -5 12653.1 289.222   1
  -4  -4   5 12589.4 278.980  22
   4   4   5 11975.4 253.147  16
   4   4  -6 15498.2 325.929   1
  -4  -4   6 14960.8 319.775  22
   4   4  -7 31252.1 469.498   1
  -4  -4   7 30944.1 475.746  22
  -4  -4   8 6063.43 239.663  22
   4  -4   8 6609.12 240.515  16
  -4  -4   9 16901.3 406.870  22
   4  -4   9 17096.0 398.570  16
   4  -4  10 1436.59 144.395  16
  -4  -4  10 1393.66 153.367  22
  -4  -4  11 250.749 106.168  22
   4  -4  11 85.3531 97.1382  16
   4  -4  12 463.342 122.592  16
  -4  -4  12 522.438 134.021  22
  -4  -4  13 3066.67 232.704  22
   4  -4  14 80.2141 127.522  13
  -4  -4  14 2.13393 125.001  13
   4   4  14-69.0337 152.688  12
   4   4  14-142.145 144.391  11
   4  -4  14 122.074 150.030  10
  -4  -4  14-78.6348 159.430  10
  -4  -4  14 90.8421 135.475   9
  -4   4  14 129.433 118.673   5
   4   4  14-23.7410 144.012   4
   4   4  15 2255.63 233.214  11
  -4  -4  15 2094.26 221.842  10
  -4   4  15 2081.21 212.435   5
  -4   4  15 2183.54 208.603   9
  -4  -4  15 2068.36 203.491   9
   4   4  15 1976.85 217.764   4
   4   4  15 2191.72 228.779  12
   4  -4  15 2686.65 235.340  13
  -4  -4  15 2324.95 233.725  13
   4   4  16 537.791 164.185  11
   4  -4  16 611.667 164.996  11
  -4  -4  16 706.399 175.210  10
   4   4  16 342.919 141.150   4
  -4   4  16 585.085 156.083   9
  -4  -4  16 403.116 153.359   9
   4  -4  16 446.724 147.918  13
  -4  -4  16 645.631 158.425  13
  -4  -4  17 906.082 167.732  13
   4  -4  17 1320.48 185.390  11
  -4  -4  17 1283.11 194.443  10
  -4  -4  17 751.049 159.500   9
   4   4  17 1173.93 179.216   4
   4  -4  17 1055.18 172.012  13
   4  -4  18 197.064 123.253  11
   4   4  18 370.183 146.220   4
  -4  -4  18 317.499 145.494  10
   4  -4  18 227.355 128.361  13
  -4  -4  18 446.923 131.541  13
  -4  -4  19 52.3547 120.031  10
   4  -4  19-168.778 121.162  11
   4   4  19 335.293 123.446   4
   4  -4  19-157.914 118.507   4
   4  -4  19 28.7677 103.075  13
  -4  -4  19-49.0585 101.153  13
  -4  -4  20 175.101 106.040  10
   4  -4  20-295.936 103.445   4
   4   5   0 12992.2 275.445   1
   4   5   1 146.705 72.6974   1
   4   5  -1 100.510 82.1514   1
   4   5  -2 20710.1 353.028   1
   4   5   2 20489.5 323.005   1
   4   5  -3 17695.5 341.986   1
   4   5  -4 7597.76 235.492   1
   4   5  -5 3672.56 180.307   1
   4   5  -6 36038.2 519.909   1
  -4  -5   6 35690.8 512.287  22
  -4  -5   7 2448.58 163.067  22
   4   5  -7 2692.64 167.895   1
  -4  -5   8 709.852 115.520  22
   4  -5   8 734.377 104.582  16
  -4  -5   9 353.901 102.272  22
   4  -5   9 382.335 95.8033  16
  -4  -5  10 31497.4 599.257  22
  -4  -5  11 945.217 150.809  22
  -4  -5  12 2454.78 215.848  22
   4   5  13 1489.02 194.442  12
   4   5  13 659.362 152.243   4
   4   5  13 1089.84 178.028  11
  -4   5  13 838.654 151.990   5
  -4  -5  13 1335.00 204.097  10
  -4  -5  13 966.139 162.439  13
   4  -5  14 445.981 148.904  13
  -4  -5  14 341.572 147.159  13
   4   5  14 378.944 159.500  12
   4   5  14 500.787 163.292  11
  -4   5  14 536.706 138.840   5
   4   5  14 380.657 149.816   4
  -4  -5  14 564.905 182.809  10
  -4  -5  15-79.6668 136.313  13
   4   5  15 169.422 138.204   4
   4   5  15 416.093 160.381  11
  -4   5  15 201.841 123.692   5
   4  -5  15 100.613 131.837  13
  -4  -5  15-3.94971 158.401  10
   4  -5  16 355.909 145.624  13
  -4  -5  16 385.683 146.879  13
  -4   5  16 480.359 151.999   5
  -4  -5  16 386.225 164.179  10
   4   5  16 458.895 157.337   4
   4  -5  17 22.4053 122.412  11
   4   5  17 129.338 128.977   4
  -4  -5  17 170.972 149.650  10
   4  -5  17 30.5521 119.158  13
  -4  -5  17 227.464 131.436  13
   4  -5  18 24.7006 112.239  11
  -4  -5  18 299.267 140.084  10
   4   5  18 483.667 148.672   4
   4  -5  18 32.9349 110.580  13
  -4  -5  18 219.195 117.263  13
  -4  -5  19 311.018 120.428  10
   4  -5  19 6.84964 102.500   4
   4  -5  19 173.622 104.013  11
   4  -5  19 100.669 107.397  13
  -4  -5  19-124.522 100.068  13
   4   6   0 148485. 959.771   1
   4   6   1 410.827 93.1845   1
   4   6  -1 568.896 96.5674   1
   4   6   2 68536.2 624.415   1
   4   6  -2 68858.9 690.207   1
   4   6  -3 2113.95 152.344   1
   4   6  -4 5245.26 216.669   1
   4   6  -5 763.911 114.308   1
   4   6  -6 42815.6 596.794   1
  -4  -6   7 753.702 117.710  22
   4   6  -7 697.945 115.331   1
  -4  -6   8 24804.3 502.515  22
   4   6  -8 24633.1 474.171   1
  -4  -6   9 1475.79 157.952  22
  -4  -6  10 4743.76 259.067  22
  -4  -6  11 254.226 126.288  22
  -4  -6  12 737.479 151.546  22
  -4   6  12 922.117 137.621   5
  -4   6  13 106.916 137.461   6
   4  -6  13 67.0156 128.780  13
  -4  -6  13 220.709 136.345  13
   4   6  13 201.222 155.202  12
   4   6  13 135.346 126.155   6
  -4   6  13 172.126 125.243   5
  -4  -6  13 213.423 162.324  10
   4   6  13 180.405 140.701   4
  -4  -6  14 1927.38 213.362  13
   4   6  14 2306.92 199.319   6
  -4   6  14 1964.09 204.421   5
  -4  -6  14 1842.77 226.251  10
   4   6  14 2071.48 222.142   4
   4  -6  14 2300.73 226.281  13
   4  -6  15 319.781 143.281  13
  -4  -6  15 188.453 130.432  13
  -4   6  15 518.246 144.235   5
   4   6  15 373.639 156.529   4
  -4  -6  15 309.768 164.397  10
   4  -6  16 1487.40 189.681  13
  -4  -6  16 1511.81 196.215  13
  -4   6  16 1682.10 189.057   5
  -4  -6  16 1514.60 201.748  10
   4   6  16 1894.01 208.223   4
   4  -6  17 9.52532 115.143  11
  -4  -6  17-42.4272 131.996  10
   4  -6  17-19.4242 118.484  13
  -4  -6  17 336.068 135.357  13
   4  -6  18 122.773 120.859  11
   4  -6  18-42.1335 109.301  13
  -4  -6  18 115.191 122.983  13
  -4  -6  19-20.5959 106.536  10
  -4  -6  19 78.2210 91.0643  13
   4   7   0 710.599 102.310   1
   4   7   1 31322.9 465.934   1
   4   7  -1 31935.3 489.358   1
   4   7   2 3341.29 167.250   1
   4   7  -2 3283.44 180.269   1
   4   7  -3 58473.9 689.626   1
   4   7  -4 369.962 102.383   1
   4   7  -5 619.158 116.911   1
   4   7  -6 1171.04 132.761   1
  -4  -7   7 14636.7 395.740  22
   4   7  -7 14927.5 387.525   1
  -4  -7   8 2578.39 193.360  22
   4   7  -8 2862.97 192.978   1
  -4  -7   9 12344.4 392.353  22
  -4  -7  10 9.00019 117.245  22
  -4  -7  11 2952.90 228.539  22
  -4  -7  12-108.485 139.360  13
  -4   7  12 146.497 133.206   6
   4   7  12-95.9652 126.621   6
  -4   7  12 59.7612 119.832   5
   4   7  12 396.300 153.453   4
   4  -7  12 62.9520 131.593  13
   4  -7  12 4.42672 144.259  21
  -4   7  13 3916.90 253.170   6
   4   7  13 4058.95 246.987   6
  -4   7  13 4377.80 268.389   5
  -4  -7  13 4218.53 291.855  10
   4   7  13 4422.14 284.539   4
   4  -7  13 4158.63 281.344  21
   4  -7  13 4424.98 285.351  13
  -4  -7  13 3838.00 272.978  13
   4  -7  14-52.2576 139.893  13
  -4  -7  14 132.574 137.748  13
   4   7  14-94.6672 124.489   6
  -4   7  14-27.3623 129.693   5
  -4  -7  14-182.369 164.157  10
   4  -7  15-169.320 145.450  13
  -4  -7  15 213.199 131.554  13
   4   7  15 228.878 129.082   6
  -4  -7  15-95.0483 155.887  10
  -4   7  15 62.7376 117.613   5
   4   7  16 104.147 109.692   6
   4  -7  16 104.907 123.237  13
  -4  -7  16 5.20433 115.521  13
  -4  -7  16-76.0196 136.099  10
  -4   7  16-175.917 118.249   5
   4  -7  17 844.725 146.994  13
  -4  -7  17 1047.29 155.848  13
   4  -7  17 1236.43 165.432  11
  -4  -7  17 908.868 163.679  10
  -4  -7  18 266.176 121.741  10
   4  -7  18 71.5320 107.818  13
  -4  -7  18 222.340 108.859  13
  -4  -7  19 253.461 103.117  10
   4   8   0 22619.4 435.867   1
   4   8   1 11055.8 310.446   1
   4   8  -1 11528.2 323.639   1
   4   8   2 1123.64 123.196   1
   4   8  -2 1073.15 131.560   1
   4   8  -3 11569.7 339.923   1
   4   8  -4 1862.52 163.959   1
   4   8  -5 6142.05 265.747   1
   4   8  -6 8143.84 308.043   1
   4   8  -7 28515.5 558.408   1
  -4  -8   7 28510.3 570.705  22
   4   8  -8 331.765 120.025   1
  -4  -8   8 177.657 115.516  22
  -4  -8   9 14272.4 439.502  22
  -4  -8  10-82.6735 124.985  22
  -4  -8  11 154.558 134.361  13
   4  -8  11 515.739 151.453  13
  -4   8  11 258.854 136.874   6
  -4  -8  12-19.9987 132.320  13
  -4   8  12 174.198 148.043   6
   4   8  12-179.006 141.783   6
   4  -8  12 57.2896 136.704  13
  -4   8  12 249.118 132.089   5
   4  -8  12 31.8201 147.657  21
  -4   8  13 2278.10 208.550   6
   4  -8  13 2016.66 212.839  13
   4   8  13 2290.12 211.059   6
  -4   8  13 2429.91 223.197   5
  -4  -8  13 2230.76 234.375  10
   4  -8  13 2400.65 236.046  21
  -4  -8  13 2499.75 233.869  13
   4  -8  14 115.932 137.189  13
  -4  -8  14-87.4274 134.939  13
  -4   8  14-51.3940 119.496   5
  -4  -8  14-45.1365 152.133  10
   4  -8  14 62.1500 133.027  21
   4   8  14 310.393 125.793   6
   4  -8  15 1270.92 174.228  13
  -4  -8  15 1296.77 180.596  13
   4   8  15 1529.80 177.834   6
  -4   8  15 1635.05 179.087   5
  -4  -8  15 1782.82 212.405  10
   4  -8  16 49.6397 111.329  13
  -4  -8  16-113.722 117.841  13
   4   8  16 57.7239 106.257   6
  -4   8  16 210.666 118.494   5
  -4  -8  16 74.3589 132.741  10
   4  -8  17 406.393 125.811  13
  -4  -8  17 224.881 112.233  13
   4   8  17 209.078 111.184   6
  -4   8  17 456.750 130.983   5
  -4  -8  17 402.603 135.633  10
  -4  -8  18-9.30571 102.500  10
  -4  -8  18 109.374 96.8327  13
   4   9   0 48739.9 682.320   1
   4   9   1 65.6138 95.2825   1
   4   9  -1 215.638 110.144   1
   4   9  -2 1556.20 153.935   1
   4   9   2 1700.42 147.239   1
   4   9  -3 1406.08 153.434   1
   4   9  -4 9828.05 337.506   1
   4   9  -5 23.7871 105.546   1
   4   9  -6 13122.8 403.892   1
   4   9  -7 851.924 137.590   1
  -4  -9   7 1107.12 159.842  22
  -4  -9   8 3763.63 246.803  22
   4   9  -8 3753.34 237.368   1
  -4  -9   9 208.380 124.701  22
  -4   9  10 4569.61 255.995   6
  -4   9  10 4109.25 261.805  19
  -4  -9  10 4206.05 280.045  13
   4  -9  10 4571.42 282.399  13
  -4  -9  11-9.61866 128.478  13
   4  -9  11-26.9108 131.107  13
  -4   9  11 288.764 137.134   6
   4  -9  12 1406.40 192.980  13
  -4  -9  12 1401.96 202.662  13
  -4   9  12 969.457 163.703   6
   4   9  12 999.096 158.180   6
  -4   9  12 1159.51 173.286   5
   4  -9  12 861.311 156.113  21
  -4   9  13-67.0449 137.853   6
   4  -9  13 17.7828 132.484  13
  -4  -9  13 127.878 145.293  13
   4  -9  13-14.9200 144.912  21
   4   9  13 245.328 129.076   6
  -4  -9  13-100.197 151.804  10
  -4   9  13 238.709 136.604   5
   4  -9  14 17.7370 128.111  13
  -4  -9  14-93.0709 141.746  13
   4   9  14 84.1216 122.239   6
   4  -9  14 113.376 138.412  21
  -4   9  14-73.5774 118.816   5
  -4  -9  14 167.401 138.715  10
   4  -9  15 260.323 136.400  13
  -4  -9  15 399.504 133.997  13
   4   9  15 112.815 120.273   6
  -4  -9  15 63.1336 135.320  10
  -4   9  15 414.268 130.452   5
   4  -9  16 1102.18 156.363  13
  -4  -9  16 953.318 155.502  13
   4   9  16 1097.80 151.044   6
  -4   9  16 1494.89 161.075   5
  -4  -9  16 1225.97 173.219  10
   4  -9  17 44.7054 97.4926  13
  -4  -9  17 27.3562 96.7408  13
   4   9  17 73.5946 100.358   6
  -4   9  17 280.131 113.371   5
  -4  -9  17 96.2220 111.534  10
   4  10   0 577.405 121.652   1
   4  10   1 3729.96 214.746   1
   4  10  -1 3551.11 229.385   1
   4  10  -2 1335.99 162.696   1
   4  10  -3 2924.12 212.148   1
   4  10  -4 591.263 132.554   1
   4  10  -5 760.716 145.894   1
   4  10  -6 1858.14 189.065   1
   4  10  -7 6389.71 307.626   1
  -4 -10   7 6762.47 322.801  22
  -4  10   8 2630.93 207.547  19
   4  10  -8 2259.07 211.169   1
  -4 -10   8 2667.57 232.409  22
  -4  10   9 2850.65 225.414  19
  -4  10  10 2559.73 216.160  19
  -4 -10  10 2509.16 245.515  13
   4 -10  10 2762.82 246.584  13
  -4  10  11-21.8227 123.393   6
  -4 -10  11-179.342 149.318  13
   4 -10  11-123.362 137.321  13
   4  10  11-186.041 132.471   6
   4 -10  12 519.937 158.851  13
  -4 -10  12 495.709 155.879  13
   4 -10  12 488.957 176.230  21
   4  10  12 496.531 140.740   6
  -4  10  12 588.445 144.077   6
  -4  10  12 851.956 163.140   5
   4 -10  13 1697.53 196.139  13
  -4 -10  13 1353.36 185.730  13
   4  10  13 1530.66 186.515   6
  -4 -10  13 1221.47 192.761  10
  -4  10  13 1604.91 186.325   5
   4 -10  13 1665.43 209.476  21
   4 -10  14 828.827 152.853  13
  -4 -10  14 447.918 137.928  13
  -4 -10  14 860.973 166.385  10
  -4  10  14 809.223 150.012   5
   4 -10  14 688.439 168.291  21
   4  10  14 883.663 154.473   6
  -4 -10  15 558.473 138.721  13
  -4  10  15 586.724 132.831   5
  -4 -10  15 735.411 152.009  10
   4 -10  15 785.177 148.244  13
   4 -10  15 558.826 146.032  21
   4  10  15 844.929 139.886   6
   4 -10  16 240.131 106.606  13
  -4 -10  16 371.314 120.581  13
   4  10  16 272.506 109.503   6
  -4 -10  16 367.827 126.777  10
  -4  10  16 273.229 100.990   5
   4  10  17 16.2304 88.3078   6
  -4 -10  17 180.618 101.739  10
   4  11   0 1669.09 173.299   1
   4  11  -1 8600.05 342.920   1
   4  11   1 8334.71 323.388   1
   4  11  -2-25.7459 120.228   1
   4  11  -3 20426.4 524.758   1
   4  11  -4 1338.53 170.168   1
   4  11  -5 1662.82 195.356   1
   4  11  -6 797.813 155.564   1
  -4  11   6 1095.77 149.111  19
  -4  11   6 907.503 143.644   7
  -4  11   7 5219.46 278.832   7
  -4  11   7 5201.25 280.033  19
  -4 -11   7 5264.76 289.338   3
  -4  11   8 164.238 123.466  19
  -4  11   8 240.415 138.965   7
  -4  11   9 540.240 140.957  19
  -4  11   9 650.980 155.990   7
  -4 -11  10 1317.25 195.407  13
   4 -11  10 1491.60 198.296  13
  -4  11  10 1241.52 174.042  19
  -4 -11  11 74.4723 135.589  13
   4 -11  11 57.4882 135.601  13
   4  11  11-52.9448 119.753   6
  -4  11  12 374.071 135.446   6
   4 -11  12 89.5888 133.135  13
  -4 -11  12 151.697 132.383  13
   4 -11  12 345.114 157.071  21
  -4 -11  12 282.883 147.730  10
  -4  11  12 63.6777 115.895   5
   4  11  12 370.575 135.572   6
   4  11  13 1767.35 188.763   6
  -4 -11  13 1387.11 185.214  13
  -4 -11  13 1550.54 191.986  10
  -4  11  13 1669.54 179.441   5
   4 -11  13 1501.04 186.501  13
   4 -11  13 1645.63 198.585  21
   4 -11  14 206.755 125.691  13
  -4 -11  14 138.261 116.612  13
   4 -11  14 202.854 126.270  21
   4  11  14 146.989 108.971   6
  -4 -11  14 151.024 130.357  10
  -4  11  14 12.0938 107.888   5
   4 -11  15-90.8759 105.158  13
  -4 -11  15 121.089 109.452  13
   4  11  15-77.0628 100.604   6
  -4  11  15-161.026 99.9677   5
  -4 -11  15 90.4040 114.271  10
   4 -11  15-90.0654 111.149  21
  -4 -11  16-36.2384 94.2094  13
   4  11  16 50.8893 83.4128   6
  -4  11  16 54.9164 83.8684   5
  -4 -11  16 267.248 108.651  10
   4  12   0 12584.5 420.250   1
   4  12   1 507.114 129.277   1
   4  12  -1 498.767 152.703   1
   4  12  -2 3132.72 247.086   1
   4  12  -3 104.482 115.820   1
  -4 -12   3-223.693 147.058   3
  -4  12   3-71.4157 123.497   7
  -4  12   4 255.803 124.377  19
  -4 -12   4-28.4094 167.633   3
  -4  12   4-4.48689 140.365   7
  -4  12   5 1974.23 203.701  19
  -4 -12   5 1748.19 215.674   3
  -4  12   5 2003.04 203.981   7
  -4  12   6 3379.60 247.173  19
  -4 -12   6 3020.80 247.582   3
  -4  12   6 3275.34 246.443   7
  -4 -12   7 274.962 167.054   3
  -4  12   7 246.513 125.051  19
  -4  12   7 158.569 146.812   7
  -4  12   8 5085.19 277.686   7
  -4  12   8 4580.57 277.064  19
  -4  12   9 135.361 124.020  19
  -4  12   9 210.554 139.003   7
  -4 -12  10 895.145 176.638  13
   4 -12  10 549.040 158.907  13
   4  12  10 583.371 146.775   6
  -4  12  10 582.083 144.864  19
  -4 -12  11-41.2027 118.482  13
   4 -12  11-33.0049 120.052  13
   4  12  11 73.5487 132.050   6
  -4 -12  12 828.815 157.284  13
   4  12  12 955.169 153.362   6
  -4  12  12 1073.20 157.894   5
   4 -12  12 979.533 174.744  21
   4 -12  12 1111.45 166.320  13
   4 -12  13-132.606 111.827  13
  -4 -12  13 334.740 126.770  13
   4  12  13 199.578 116.107   6
  -4  12  13 311.984 114.759   5
   4 -12  13 78.5715 122.935  21
   4 -12  14 1219.38 153.296  13
  -4 -12  14 1428.14 162.178  13
   4  12  14 1339.70 152.875   6
  -4  12  14 1300.86 149.039   5
   4 -12  14 1246.41 159.044  21
  -4 -12  15-5.49215 85.8685  13
   4  12  15 129.377 92.2237   6
  -4  12  15 39.0033 90.6564   5
   4 -12  15 63.4598 100.904  21
  -4  13   0 2851.06 216.306   7
  -4 -13   0 2686.07 234.762   3
  -4 -13  -1-37.8440 163.897   3
  -4 -13   1 24.1482 165.856   3
  -4  13   1 83.1714 137.413   7
  -4 -13   2 1034.81 200.106   3
  -4  13   2 804.618 170.991   7
  -4 -13   3 3877.12 291.000   3
  -4  13   3 3988.51 258.637   7
  -4 -13   4 1647.63 215.979   3
  -4  13   4 1675.07 185.528  19
  -4  13   4 1742.41 201.052   7
  -4  13   5 241.719 125.187  19
  -4 -13   5 110.061 159.261   3
  -4  13   5 112.339 137.353   7
  -4 -13   6 2423.75 246.412   3
  -4  13   6 2209.79 208.097  19
  -4  13   6 1941.64 211.904   7
  -4  13   7 826.522 162.021  19
  -4  13   7 911.636 175.276   7
  -4  13   8 215.027 113.852  19
  -4  13   8 201.702 131.329   7
  -4 -13   8 44.4501 151.237   3
  -4  13   9 137.844 127.137  19
   4  13   9-74.8229 126.100   6
  -4  13   9 66.6967 131.438   7
   4  13  10 1984.90 181.394   6
   4 -13  10 2049.48 205.213  13
  -4 -13  10 1910.64 214.398  13
   4 -13  11 23.5613 119.230  13
  -4 -13  11-26.9601 127.171  13
   4 -13  11-39.8112 144.037  21
   4  13  11-16.5085 108.987   6
   4 -13  12-60.6492 111.971  13
  -4 -13  12-158.963 114.123  13
   4  13  12-63.0113 110.646   6
  -4  13  12-22.3023 101.348   5
   4 -13  12-90.4285 120.868  21
   4 -13  13 166.881 110.064  13
  -4 -13  13 278.427 114.234  13
  -4  13  13 434.167 109.580   5
   4  13  13 331.011 106.531   6
   4 -13  13 319.637 125.070  21
  -4 -13  14 256.121 97.0217  13
   4  13  14 177.539 94.8355   6
  -4  13  14 131.556 89.9039   5
   4 -13  14 23.3229 100.016  21
  -4 -14   0 276.111 167.926   3
  -4  14   0 376.850 165.039   7
  -4 -14  -1 5526.72 312.806   3
  -4 -14   1 5727.07 329.621   3
  -4  14   1 6362.80 299.255   7
  -4 -14   2 371.908 183.477   3
  -4  14   2 584.467 152.060   7
  -4 -14   3 539.198 186.229   3
  -4  14   3 682.103 166.595  19
  -4  14   3 535.391 155.862   7
  -4 -14   4 428.093 172.784   3
  -4  14   4 318.850 143.168  19
  -4  14   4 452.764 152.514   7
  -4  14   5 2137.59 199.902  19
  -4 -14   5 1841.02 217.318   3
  -4  14   5 1899.30 198.198   7
  -4  14   6 346.808 123.605  19
  -4 -14   6 247.893 164.457   3
  -4  14   6 335.805 146.913   7
  -4  14   7 1809.28 195.181  19
  -4 -14   7 1959.33 208.395   3
  -4  14   7 1532.10 186.411   7
   4  14   8 725.394 148.814   7
   4  14   8 690.626 141.931   6
  -4 -14   8 949.137 180.908   3
  -4  14   8 669.652 140.847  19
  -4  14   8 852.046 157.556   7
  -4 -14   9 874.426 171.351  13
   4 -14   9 594.051 155.181  13
   4  14   9 776.803 146.563   6
  -4  14   9 886.040 147.184  19
  -4  14   9 816.401 143.904   7
  -4 -14  10 113.515 126.087  13
   4 -14  10-6.07004 114.913  13
   4  14  10 35.4847 99.4085   6
  -4  14  10-100.869 131.883   7
   4 -14  11 197.846 118.841  13
  -4 -14  11-0.08843 111.448  13
  -4  14  11-192.446 103.321   5
   4 -14  11 150.667 124.582  21
   4  14  11 64.0497 101.623   6
   4 -14  12 79.9561 100.281  13
  -4 -14  12-11.8297 103.628  13
   4  14  12 196.550 107.181   6
  -4  14  12 45.6098 87.3474   5
   4 -14  12 230.501 124.896  21
   4  14  13 332.180 93.6048   6
  -4  14  13 493.935 103.362   5
   4 -14  13 182.881 96.0452  21
  -4  15   0 2654.67 217.021   7
  -4 -15   0 2742.11 249.973   3
  -4 -15  -1 844.336 195.851   3
  -4 -15   1 1154.08 210.094   3
  -4 -15   2 126.547 169.267   3
  -4  15   2 32.3969 108.461  19
  -4  15   2 30.9761 128.850   7
  -4  15   3 649.754 141.704  19
  -4 -15   3 453.126 176.779   3
  -4  15   3 491.898 144.077   7
  -4 -15   4 442.186 166.745   3
  -4  15   4 239.388 120.425  19
  -4  15   4 321.754 137.411   7
  -4  15   5-61.3960 113.123  19
  -4 -15   5-330.033 172.902   3
  -4  15   5 18.4225 121.441   7
  -4 -15   6 1853.23 210.194   3
  -4  15   6 1704.15 188.347  19
  -4  15   6 1687.15 193.814   7
   4  15   7 919.397 157.737   7
  -4  15   7 1038.45 151.379  19
  -4 -15   7 1011.43 174.104   3
  -4  15   7 743.634 157.771   7
   4  15   8-21.8397 120.846   7
  -4  15   8-43.4454 114.424   7
  -4  15   8-85.4332 109.106  19
  -4 -15   8-183.751 143.249   3
   4  15   9 119.432 97.1548   6
  -4 -15   9 168.547 112.551  13
   4 -15   9 365.455 120.466  13
  -4  15   9 142.469 108.555   7
  -4  15   9 138.755 97.7253  19
   4 -15  10 608.171 125.943  13
  -4 -15  10 783.687 133.855  13
   4  15  10 572.654 120.046   6
  -4  15  10 623.718 127.594   7
   4 -15  10 834.565 145.315  21
  -4 -15  11 497.781 111.931  13
   4  15  11 520.562 107.566   6
  -4  15  11 362.801 94.4374   5
   4 -15  11 303.569 110.388  21
  -4 -16   0 1552.90 200.841   3
  -4  16   1 2480.29 202.195  19
  -4 -16  -1 2179.12 216.645   3
  -4  16   1 2829.87 212.787   7
  -4 -16   1 2764.83 236.179   3
  -4  16   2 520.022 138.523  19
  -4 -16   2 526.698 166.514   3
  -4  16   2 393.103 135.634   7
  -4 -16   3 55.8781 157.707   3
  -4  16   3-44.4942 106.863  19
  -4  16   3 121.221 123.543   7
   4  16   4 216.555 130.582   7
  -4 -16   4 251.607 152.304   3
  -4  16   4 165.223 112.222  19
  -4  16   4 403.894 131.153   7
   4  16   5 922.851 155.585   7
  -4 -16   5 1166.57 176.460   3
  -4  16   5 748.917 132.288  19
  -4  16   5 890.979 156.124   7
   4  16   6 490.453 136.025   7
  -4  16   6 469.530 116.290  19
  -4 -16   6 732.295 160.320   3
  -4  16   6 717.124 135.375   7
  -4  16   7 808.335 124.827  19
  -4  16   7 803.655 130.819   7
   4  16   7 744.930 134.200   7
  -4 -16   8 126.335 102.944  13
   4 -16   8 328.349 113.465  13
   4 -16   8 399.907 121.879  21
  -4  16   8 233.459 92.8302  19
  -4  16   8 328.345 115.859   7
   4  16   8 236.757 110.958   7
   4 -16   9 304.996 112.886  21
  -4 -16   9 25.0139 92.8478  13
  -4  16   9 79.3403 99.7446   7
   4  17   0 339.818 122.536   7
  -4  17   0 168.286 98.8918  19
   4  17   1 775.594 132.463   7
  -4  17   1 672.550 125.757  19
  -4  17   1 799.999 131.316   7
   4  17   2 210.568 112.311   7
  -4  17   2 237.700 107.688  19
  -4  17   2 210.906 110.976   7
   4  17   3 655.167 128.402   7
  -4  17   3 818.847 128.975   7
  -4  17   3 749.702 127.904  19
   4  17   4-31.1285 98.5669   7
  -4  17   4 45.2457 86.3849  19
  -4  17   5-122.040 89.0517  19
  -4  17   5 126.931 105.396   7
   4  17   5 254.456 103.622   7
  -4  17   6 70.1970 78.0667  19
  -4  17   6 252.072 99.3482   7
   4  17   6 80.0747 92.6456   7
  -4  17   7 229.343 78.9679  19
  -4  17   7 82.8304 86.0294   7
   4  17   7 224.396 96.6846   7
  -4  18   0 693.150 102.619  19
  -4  18   1 110.033 87.7476  19
  -4  18  -1-6.34894 75.8328  19
   4  18   1 55.8482 93.1479   7
  -4  18   2 291.991 89.3748  19
  -4  18  -2 176.209 80.8577  19
   4  18   2 346.160 97.6496   7
  -4  18   3-48.6675 74.5031  19
   4  18   3-137.837 85.4249   7
  -5   0   0 34.9274 53.4034  15
   5   0  -1-40.4616 79.1110   1
  -5   0  -1 144.551 120.277  18
  -5   0   1 6.82155 67.6210  15
   5   0  -2 10459.4 229.442   1
  -5   0   2 10053.9 363.240  15
  -5   0  -2 10004.4 432.707  18
   5   0  -3-89.1089 76.7317   1
   5   0  -4 49849.3 514.399   1
   5   0  -5-3.21409 78.4380   1
   5   0  -6 36319.7 464.747   1
  -5   0   7 51.4149 72.0285  22
   5   0   7-19.4112 79.6003  16
   5   0   8 804.413 115.022  16
  -5   0   8 525.202 101.248  22
   5   0   9-14.9712 81.2664  16
  -5   0   9 8.32967 81.4562  22
  -5   0  10 123.772 97.1870  22
   5   0  10 107.377 102.590  16
  -5   0  11-183.295 121.882  22
   5   0  11 94.6036 101.439  16
  -5   0  12 497.651 120.071  22
  -5   0  13 214.309 117.650  22
   5   0  14 864.975 177.927  12
   5   0  14 866.180 175.105  11
  -5   0  14 988.120 193.325   9
   5   0  15 8.26768 134.579  12
   5   0  15-44.1753 144.532  11
  -5   0  15 2.68669 138.757   9
   5   0  16 19.0088 133.800  12
   5   0  16-75.2342 146.188  11
  -5   0  16 205.007 151.687   9
   5   0  16-202.994 152.324   4
   5   0  17 20.5702 134.052  12
   5   0  17-69.3494 132.713  11
  -5   0  17 23.1468 136.397   9
   5   0  18 258.517 144.177  11
  -5   0  18 303.712 148.336   9
   5   0  18 41.6789 122.293   4
   5   0  19 12.6920 104.955  11
   5   0  19-235.268 125.457   4
   5   0  20 88.4288 93.9282  11
   5   0  20 0.45904 94.1309   4
   5   1   0 111.355 69.8235   1
  -5  -1   0 237.696 111.140  17
  -5   1   0 237.087 96.7911  18
  -5   1   1 49213.7 664.973  18
   5   1   1 52058.4 459.488   1
  -5  -1   1 50462.1 751.319  17
   5   1  -1 51541.2 481.305   1
  -5   1  -1 50758.6 869.897  18
  -5  -1   1 49439.3 748.658  15
  -5  -1   2 3634.96 241.270  15
   5   1  -2 3707.90 153.845   1
   5   1   2 3750.88 132.351   1
   5   1  -3 19249.5 316.974   1
   5   1  -4 231579. 1101.92   1
   5  -1  -4 229059. 1112.60   1
   5   1  -5 111.869 77.1887   1
   5  -1  -5 279.079 83.1586   1
   5   1  -6 42416.2 510.434   1
   5  -1  -6 42056.4 498.248   1
  -5  -1   6 40745.1 461.943  22
   5   1   6 41320.3 522.459  16
   5   1  -7 14078.9 314.410   1
  -5  -1   7 14412.5 303.029  22
   5   1   7 14272.5 329.181  16
   5  -1   7 14923.2 339.878  16
  -5  -1   8 29940.6 461.906  22
   5   1   8 30135.9 499.075  16
  -5   1   8 29370.7 457.432  22
   5  -1   8 30545.2 511.767  16
  -5   1   9 65.3734 85.0205  22
  -5  -1   9-5.09668 82.5102  22
   5  -1   9-50.3081 85.8432  16
   5   1   9 31.5067 84.7223  16
   5   1  10 8703.63 314.212  16
  -5   1  10 9267.82 304.851  22
  -5  -1  10 9218.62 303.812  22
   5  -1  10 9620.27 325.474  16
   5  -1  11 20749.4 505.327  16
  -5  -1  11 21362.2 485.185  22
  -5  -1  12 65.8174 109.238  22
   5  -1  12 108.559 99.8476  16
  -5  -1  13 107.970 113.034  22
   5   1  14 5548.34 299.017  12
   5  -1  14 5495.85 295.062  12
   5   1  14 5919.71 315.763  11
   5  -1  14 5530.26 319.438  11
  -5   1  14 5853.07 305.211   9
  -5  -1  14 5839.76 306.137   9
   5   1  14 4999.64 302.983   4
  -5  -1  15 2192.11 222.952   9
   5   1  15 1967.13 215.500  12
   5   1  15 2224.06 234.176   4
   5  -1  15 2194.14 215.747  12
   5  -1  15 2051.41 220.046  11
   5   1  15 2013.69 219.359  11
  -5   1  15 2184.92 228.034   9
   5   1  16 182.519 144.943  12
   5  -1  16-103.841 137.272  12
   5   1  16-179.877 140.472  11
   5  -1  16-120.791 149.729  11
  -5   1  16-45.9889 137.961   9
  -5  -1  16-64.6772 134.880   9
   5   1  16-292.011 156.527   4
   5   1  17 158.042 140.333  12
   5   1  17 323.141 155.961  11
  -5   1  17 213.103 151.321   9
  -5  -1  17 197.865 152.823   9
   5  -1  17 279.842 144.307  11
   5  -1  17 116.775 129.224   4
   5   1  17-45.2372 143.619   4
   5   1  18 4068.76 267.164  11
   5  -1  18 3893.26 263.282  11
  -5   1  18 3991.17 247.334   9
  -5  -1  18 4392.12 261.159   9
   5  -1  18 3628.60 248.756   4
   5   1  18 3615.21 245.639   4
   5  -1  19 119.015 117.576  11
   5   1  19 21.2832 106.875  11
   5   1  19-241.681 121.199   4
   5  -1  19-101.102 125.674   4
   5  -1  20 140.615 93.6779  11
   5   1  20 203.941 107.963   4
   5   2   0 65.7323 74.1294   1
  -5  -2   0 89.8924 117.862  17
   5   2   0 42.9059 110.347  18
   5   2   1 57277.0 495.568   1
   5   2  -1 56649.5 516.116   1
   5   2   1 56329.7 1001.30  18
   5   2  -1 54703.8 870.440  18
  -5  -2   1 56609.7 884.965  17
   5   2   2 52.2323 67.0361   1
  -5  -2   2-77.7531 120.936  15
   5   2  -2 68.7202 75.6496   1
   5  -2  -3 9969.49 407.918  15
   5   2  -3 9968.83 244.745   1
   5   2  -4 10923.2 262.970   1
  -5  -2   5 4666.76 159.775  22
   5   2  -5 4992.48 188.403   1
   5   2   5 4678.94 172.094  16
   5   2  -6 7505.84 233.839   1
  -5  -2   6 7402.35 211.789  22
   5   2   6 7414.58 224.858  16
   5  -2  -6 7141.08 216.754   1
   5   2  -7 190.587 86.1945   1
  -5  -2   7 33.9991 74.0372  22
   5   2   7 136.491 80.6856  16
   5  -2   8 942.601 115.755  16
  -5  -2   8 874.205 110.689  22
   5   2   8 803.365 109.392  16
  -5  -2   9 2505.40 162.699  22
   5  -2   9 2328.45 170.292  16
   5   2   9 2113.41 161.971  16
  -5  -2  10 115.455 87.0705  22
   5  -2  10 163.307 98.1434  16
   5  -2  11 4247.74 242.870  16
  -5  -2  11 4111.53 234.469  22
  -5  -2  12 371.001 120.153  22
   5  -2  12 353.044 118.081  16
  -5  -2  13 305.361 126.652  22
   5   2  14 420.380 161.714  12
  -5   2  14 625.591 166.597   5
   5   2  14 485.791 155.903  11
  -5  -2  14 98.2034 152.338  10
  -5   2  14 149.120 148.999   9
  -5  -2  14 594.274 168.961   9
   5   2  14-39.9701 145.025   4
   5   2  15 145.816 135.873   4
   5   2  15 132.081 149.514  12
  -5  -2  15 163.893 152.146  10
   5  -2  15 121.615 140.371  11
  -5   2  15 284.717 157.776   9
  -5  -2  15 35.6371 134.990   9
   5   2  15 39.3714 145.344  11
   5   2  16-18.7442 150.760  11
   5   2  16 23.9647 140.924  12
   5  -2  16-39.1499 137.982  11
  -5  -2  16 91.1035 148.068  10
  -5   2  16-62.4155 144.284   9
  -5  -2  16 136.782 149.042   9
   5   2  16-61.8107 143.885   4
   5   2  17 14.0406 140.347  12
   5  -2  17 187.246 148.071  11
   5   2  17 273.470 146.711  11
  -5  -2  17 479.368 159.028  10
   5  -2  17-208.807 146.669   4
   5   2  17 33.9770 127.469   4
  -5   2  17 138.247 138.372   9
  -5  -2  17 298.204 139.968   9
   5   2  18 93.3662 122.700  11
   5  -2  18-173.857 134.319  11
  -5  -2  18 79.4077 134.968  10
  -5   2  18-7.27225 125.403   9
  -5  -2  18 100.306 128.287   9
   5   2  18-7.15578 115.973   4
   5  -2  18-204.187 137.522   4
   5  -2  19 125.281 109.360  11
  -5  -2  19-54.5234 117.650  10
   5   2  19 59.6767 111.300   4
   5  -2  19-227.725 122.262   4
   5  -2  20-37.9551 95.5239  11
   5  -2  20-113.407 104.934   4
   5   3   0-19.7036 78.4782   1
   5   3  -1 122375. 803.348   1
  -5  -3   1 120331. 1446.13  17
   5   3   2 67297.0 543.767   1
   5   3  -2 68156.3 614.432   1
   5   3  -3 172970. 992.177   1
   5   3  -4 3714.12 171.831   1
  -5  -3   4 3678.86 143.852  22
   5   3   4 3530.49 144.616  16
  -5  -3   5 134.483 66.8891  22
   5   3  -5 117.170 81.8201   1
   5   3   5 143.405 65.4759  16
   5   3  -6 4823.71 195.940   1
  -5  -3   6 4305.53 174.238  22
   5   3   6 4352.61 179.829  16
   5   3  -7 3253.03 171.023   1
   5   3   7 2852.91 167.348  16
  -5  -3   7 3199.58 170.707  22
   5   3   8 14360.1 357.279  16
   5  -3   8 15700.2 381.356  16
  -5  -3   8 15042.7 354.625  22
   5  -3   9 910.235 121.381  16
  -5  -3   9 1071.40 126.522  22
  -5  -3  10 556.013 111.866  22
   5  -3  10 624.599 116.525  16
   5  -3  11 64735.2 889.896  16
  -5  -3  11 66338.6 862.734  22
   5  -3  12 3320.91 227.867  16
  -5  -3  12 3690.00 239.596  22
  -5  -3  13 2056.94 194.481  22
   5   3  13 2405.29 206.202  12
   5   3  13 2550.27 208.058  11
  -5   3  13 2161.65 190.544   5
  -5  -3  13 1961.51 200.570  10
   5   3  13 1776.00 189.981   4
   5   3  14-82.6928 143.868  12
   5   3  14-188.012 146.775  11
  -5   3  14 29.4588 120.465   5
  -5  -3  14-197.692 159.990  10
  -5   3  14 129.590 143.794   9
  -5  -3  14 299.230 157.002   9
   5   3  14-173.602 157.685   4
   5   3  15 1451.30 200.568   4
   5   3  15 1533.88 204.988  12
   5   3  15 1941.93 217.473  11
  -5  -3  15 1437.56 205.701  10
  -5   3  15 1734.13 199.843   9
  -5  -3  15 1615.24 196.176   9
  -5   3  15 2078.80 206.539   5
   5   3  16-280.120 167.373  12
   5   3  16-41.4771 142.629  11
   5  -3  16 33.1587 129.158  11
  -5  -3  16-16.8955 146.197  10
  -5   3  16 104.506 135.136   9
  -5  -3  16 91.1841 141.979   9
   5   3  16-219.443 147.142   4
   5  -3  17 310.433 150.692  11
  -5  -3  17 56.7822 137.097  10
  -5   3  17 61.6078 135.696   9
  -5  -3  17 560.094 151.007   9
   5   3  17 351.063 150.181   4
   5   3  17 278.586 136.210  11
   5   3  18 344.598 139.256  11
   5  -3  18 392.901 142.071  11
  -5  -3  18 391.918 148.144  10
  -5  -3  18 273.641 123.412   9
   5   3  18 354.498 133.747   4
   5  -3  18 249.810 126.223   4
   5  -3  19 396.261 125.396  11
  -5  -3  19 307.604 125.447  10
   5   3  19 670.762 141.573   4
   5  -3  19 293.629 112.049   4
   5   3  20 612.328 120.382   4
   5   4   0 25.6103 76.7484   1
   5   4   1 4337.38 163.862   1
   5   4  -1 4110.67 172.443   1
   5   4   2 1148.05 97.6250   1
   5   4  -2 1125.31 114.243   1
   5   4  -3 295.461 93.6381   1
   5   4  -4 28231.0 441.770   1
   5   4  -5 270.420 91.9401   1
  -5  -4   5 353.479 82.3373  22
   5   4  -6-46.5213 83.3577   1
  -5  -4   6 35.2846 79.9889  22
  -5  -4   7 3480.50 179.015  22
   5   4  -7 3865.09 193.266   1
   5   4   7 3533.69 176.566  16
  -5  -4   8 13779.1 352.535  22
   5  -4   8 13875.9 358.695  16
  -5  -4   9 1437.81 146.736  22
   5  -4   9 1521.84 143.318  16
  -5  -4  10 313.952 109.218  22
   5  -4  10 127.494 98.8879  16
  -5  -4  11 80.6445 102.854  22
   5  -4  11 164.549 114.193  16
   5  -4  12 1492.63 166.868  16
  -5  -4  12 1418.21 171.363  22
   5   4  13-61.6438 147.293  12
   5   4  13 91.3169 132.238  11
  -5   4  13-240.407 130.511   5
  -5  -4  13-6.74176 155.186  10
  -5  -4  13 209.043 141.851   9
   5   4  13-74.3292 137.122   4
   5   4  14 5.11729 148.782  12
   5   4  14 8.56913 146.971  11
   5   4  14-42.5834 150.049   4
  -5   4  14-43.2756 119.377   5
  -5  -4  14 44.3583 151.375  10
  -5  -4  14 50.3148 135.387   9
   5   4  15 98.4747 139.935  12
  -5   4  15 63.1111 120.406   5
  -5  -4  15 58.5828 148.156  10
  -5   4  15-98.7140 133.867   9
  -5  -4  15-87.1685 141.677   9
   5   4  15 183.725 143.983  11
   5   4  15-138.184 147.425   4
   5   4  16 338.303 154.895  12
   5  -4  16-57.9305 141.468  11
  -5  -4  16 110.363 158.934  10
  -5   4  16 283.520 145.602   9
  -5  -4  16-30.7344 128.432   9
   5   4  16 306.195 150.918   4
   5   4  16 138.099 135.404  11
   5  -4  17-33.1235 129.418  11
  -5  -4  17 248.550 147.234  10
  -5   4  17 85.5842 127.903   9
  -5  -4  17-167.034 136.636   9
   5   4  17 117.335 131.421   4
   5  -4  18 423.396 140.462  11
  -5  -4  18 545.964 153.396  10
  -5  -4  18 461.358 136.036   9
   5   4  18 613.380 150.410   4
   5  -4  18 258.902 121.549   4
  -5  -4  19 89.2949 115.107  10
   5  -4  19-36.3025 98.7613  11
   5  -4  19 75.1993 96.9836   4
   5   5   0 565.521 91.8575   1
   5   5   1 1386.79 113.160   1
   5   5  -1 1424.03 122.503   1
   5   5  -2 46.9665 79.6409   1
   5   5   2 97.5372 78.2398   1
   5   5  -3 7658.50 245.932   1
   5   5  -4 174829. 1131.21   1
   5   5  -5 29745.3 485.952   1
   5   5  -6 32689.6 519.494   1
  -5  -5   6 32708.2 497.803  22
   5   5  -7 1592.28 142.396   1
  -5  -5   7 1354.73 133.801  22
  -5  -5   8 46728.1 659.253  22
   5  -5   8 45639.9 666.367  16
   5   5  -8 46684.9 650.915   1
  -5  -5   9 3933.41 224.042  22
   5  -5   9 4579.42 230.148  16
  -5  -5  10 10945.4 363.122  22
   5  -5  10 12213.4 376.382  16
  -5  -5  11 1627.55 174.963  22
   5  -5  11 1541.52 165.670  16
  -5  -5  12 109.121 111.718  22
   5   5  13 600.483 159.683  12
   5   5  13 555.003 164.228  11
  -5   5  13 507.621 145.335   5
   5   5  13 916.240 181.506   4
   5   5  14 3442.54 262.427  12
   5   5  14 2975.90 258.319  11
  -5   5  14 3079.94 245.506   5
  -5  -5  14 3069.08 256.574  10
   5   5  14 3244.26 258.019   4
   5   5  15 184.920 149.146  12
   5   5  15-48.2681 131.429  11
  -5   5  15 13.9560 120.982   5
  -5  -5  15-109.732 163.038  10
   5   5  15 50.9387 134.480   4
  -5   5  16 281.771 135.958   5
  -5  -5  16-63.0997 149.145  10
   5   5  16-64.6723 131.838   4
   5  -5  17 319.438 134.995  11
  -5  -5  17 511.456 150.857  10
   5   5  17 819.788 165.448   4
   5  -5  18 4406.66 251.842  11
  -5  -5  18 4657.86 255.646  10
   5   5  18 4716.15 265.605   4
   5  -5  19 36.4035 94.5002  11
  -5  -5  19 120.121 108.359  10
   5   6   0 10.9798 79.2812   1
   5   6  -1 1463.51 129.594   1
   5   6   1 1634.63 127.981   1
   5   6   2 256.626 87.5774   1
   5   6  -2 197.256 88.4891   1
   5   6  -3 3535.89 190.581   1
   5   6  -4 3429.77 189.455   1
   5   6  -5 1407.50 137.125   1
  -5  -6   6 650.396 105.324  22
   5   6  -6 1017.59 135.798   1
   5   6  -7 227.337 95.6606   1
  -5  -6   7 517.354 106.194  22
  -5  -6   8 1330.20 146.541  22
   5   6  -8 1581.10 151.345   1
   5  -6   8 1555.81 144.146  16
  -5  -6   9 1809.10 174.543  22
  -5  -6  10-10.9504 116.344  22
  -5  -6  11 2789.61 225.297  22
   5   6  12 400.161 154.714  12
   5   6  12 553.135 153.970  11
   5   6  12 490.720 134.691   6
  -5   6  12 532.865 153.195   5
   5   6  12 739.883 163.667   4
   5  -6  12 391.962 155.859  21
   5   6  13 71.0243 146.221  12
   5   6  13-12.1563 130.584  11
   5   6  13-29.3205 114.868   6
  -5   6  13 34.3241 115.653   5
   5   6  13 386.826 158.448   4
   5  -6  13-118.095 155.843  21
  -5   6  14 12.9334 122.550   5
  -5  -6  14 97.5327 153.732  10
   5   6  14 42.0719 141.767  12
   5   6  14 248.444 151.077   4
  -5   6  15 139.934 122.802   5
  -5  -6  15 119.410 147.754  10
   5   6  15 396.446 167.589   4
  -5   6  16 64.2840 122.124   5
  -5  -6  16-36.7522 139.111  10
   5  -6  17 53.1201 117.630  11
  -5  -6  17-2.74156 131.219  10
   5  -6  18 188.768 118.101  11
  -5  -6  18 153.301 130.655  10
  -5  -6  19 0.25439 94.1818  10
   5   7   0-198.107 99.9786   1
   5   7   1 37549.5 535.341   1
   5   7  -1 38013.9 560.051   1
   5   7   2 16735.3 351.142   1
   5   7  -2 17064.7 390.452   1
   5   7  -3 45751.5 640.107   1
   5   7  -4 17868.3 416.670   1
   5   7  -5 61.7929 95.2602   1
   5   7  -6-35.6975 101.573   1
  -5  -7   7 11037.6 349.872  22
   5   7  -7 10544.2 347.052   1
   5   7  -8-6.03077 98.3816   1
  -5  -7   8-11.7657 98.7826  22
  -5  -7   9 1916.92 177.347  22
  -5  -7  10 4473.17 263.709  22
  -5   7  11 29159.7 588.870   6
   5   7  11 27692.1 591.551  12
  -5   7  11 30134.9 615.568   5
   5   7  11 29403.3 629.364   4
  -5  -7  11 27658.0 626.657  22
   5  -7  11 29122.7 660.782  21
   5   7  12 8248.15 331.795   6
   5   7  12 8021.03 346.515  12
  -5   7  12 7145.28 332.709   5
   5   7  12 8694.95 370.426   4
   5  -7  12 8160.12 377.636  21
   5   7  13 1155.89 165.620   6
  -5   7  13 637.551 143.394   5
   5   7  13 1273.08 197.790   4
   5  -7  13 871.527 182.968  21
   5   7  14-30.7137 116.000   6
  -5   7  14 187.244 131.898   5
  -5  -7  14-103.717 153.490  10
   5  -7  14-119.722 137.044  21
   5   7  15 832.753 147.621   6
  -5   7  15 927.463 159.982   5
  -5  -7  15 1223.60 198.178  10
  -5   7  16 1198.90 158.909   5
  -5  -7  16 1261.21 187.674  10
   5  -7  17-17.0343 114.466  11
  -5  -7  17 23.2966 122.333  10
   5  -7  18 499.033 121.922  11
  -5  -7  18 590.302 133.577  10
   5   8   0-53.0427 85.8824   1
   5   8  -1 1372.89 140.588   1
   5   8   1 1518.02 144.293   1
   5   8   2 2185.37 155.439   1
   5   8  -2 2039.97 166.251   1
   5   8  -3 1776.11 164.028   1
   5   8  -4-90.4800 94.8604   1
   5   8  -5-19.0023 95.8671   1
   5   8  -6 126.650 103.143   1
   5   8  -7 806.971 139.582   1
  -5  -8   7 539.530 129.641  22
  -5  -8   8 3797.25 242.127  22
   5   8  -8 4139.29 242.182   1
  -5  -8   9-149.245 121.224  22
  -5  -8  10 232.382 123.556  22
  -5   8  11 1527.77 187.061   6
   5  -8  11 1277.63 198.523  21
  -5   8  11 1579.83 191.294   5
   5   8  12 388.912 140.808   6
  -5   8  12 137.992 122.327   5
   5  -8  12 433.481 170.267  21
   5   8  13 22.1621 127.877   6
  -5   8  13-94.1199 115.533   5
   5  -8  13 162.601 151.247  21
   5   8  14 85.7295 121.537   6
   5  -8  14 69.1287 137.522  21
  -5   8  14-121.812 122.962   5
  -5  -8  14-96.9770 157.083  10
  -5   8  15 143.397 118.828   5
  -5  -8  15 248.608 148.268  10
   5   8  15 182.845 125.091   6
   5   8  16 232.008 111.607   6
  -5   8  16 13.6459 103.320   5
  -5  -8  16 113.644 128.519  10
   5  -8  17-17.1771 103.558  11
  -5  -8  17 45.1965 110.015  10
  -5  -8  18-8.79052 96.2410  10
   5   9   0 56.4610 91.9183   1
   5   9   1 4978.42 235.720   1
   5   9  -1 4997.01 247.173   1
   5   9  -2 29379.7 563.095   1
   5   9  -3 22424.9 509.828   1
   5   9  -4 28447.1 576.942   1
   5   9  -5 10318.3 366.966   1
   5   9  -6 12220.8 403.300   1
   5   9  -7 334.333 117.970   1
  -5  -9   7 121.445 107.772  22
   5   9  -8 11264.3 398.232   1
  -5  -9   8 11963.0 411.116  22
  -5   9   9 4055.82 247.521  19
  -5  -9   9 3787.69 252.926  22
  -5   9  10 835.280 153.827   6
  -5   9  11 5572.13 282.439   6
   5  -9  11 5439.69 325.477  21
   5   9  12 1298.73 177.806   6
  -5   9  12 1415.94 182.970   5
   5  -9  12 1682.16 219.683  21
   5   9  13 482.594 148.483   6
  -5  -9  13 506.022 169.834  10
  -5   9  13 632.570 143.332   5
   5  -9  13 618.549 166.155  21
   5   9  14 1183.34 165.207   6
  -5   9  14 1160.41 163.630   5
  -5  -9  14 1199.72 185.223  10
   5  -9  14 1355.14 193.233  21
  -5   9  15-8.21083 108.020   5
  -5  -9  15-67.0996 126.388  10
   5  -9  15 167.586 138.005  21
   5   9  15 26.2497 111.630   6
   5   9  16 577.794 124.999   6
  -5   9  16 491.938 119.355   5
  -5  -9  16 276.487 124.693  10
   5   9  17-26.9854 89.2519   6
  -5  -9  17 144.109 108.510  10
   5  10   0 19.7598 107.665   1
   5  10   1 819.822 130.153   1
   5  10  -1 751.050 137.975   1
   5  10  -2 2430.09 201.422   1
   5  10  -3-234.581 118.140   1
   5  10  -4 864.701 147.453   1
   5  10  -5 1019.20 161.230   1
   5  10  -6 558.070 146.201   1
  -5 -10   7 2277.30 207.666  22
   5  10  -7 2147.66 206.864   1
  -5  10   8 653.354 137.569  19
  -5  10   8 837.236 166.741   7
  -5  10   9 90.1536 117.945  19
  -5  10  10 443.322 137.826  19
   5 -10  11-88.2802 144.092  21
   5  10  12-39.9644 133.037   6
  -5  10  12 199.281 119.743   5
   5 -10  12 118.229 155.948  21
   5  10  13 510.685 141.784   6
  -5 -10  13 535.413 167.495  10
  -5  10  13 341.854 132.966   5
   5 -10  13 201.279 146.803  21
   5  10  14 47.6511 115.896   6
  -5  10  14 281.408 125.600   5
  -5 -10  14 381.375 141.530  10
   5 -10  14-70.3504 130.063  21
   5  10  15-80.9390 107.507   6
   5 -10  15-15.4665 117.982  21
  -5  10  15-134.285 109.071   5
  -5 -10  15-113.007 122.335  10
   5  10  16 19.7927 90.5631   6
  -5  10  16 21.5142 85.2127   5
  -5 -10  16 115.703 110.617  10
   5  11   0-7.26922 97.4051   1
   5  11  -1 5260.00 284.583   1
   5  11   1 5618.79 278.395   1
   5  11  -2 4639.40 272.941   1
   5  11  -3 43.1707 116.073   1
   5  11  -4 17700.7 509.625   1
  -5 -11   5 13028.4 415.570   3
  -5  11   5 13256.1 408.147  19
   5  11  -5 11727.6 430.661   1
  -5  11   5 13011.2 397.384   7
  -5  11   6 1760.39 183.738  19
  -5  11   6 1796.93 195.985   7
  -5 -11   6 1651.84 219.579   3
  -5  11   7 151.622 131.155  19
  -5 -11   7-103.639 162.708   3
  -5  11   7 24.2275 145.430   7
  -5  11   8 1067.88 167.869  19
  -5  11   8 1074.31 174.931   7
  -5  11   9 2265.60 213.912  19
  -5  11   9 1790.47 205.745   7
  -5  11  10 891.905 150.731  19
   5  11  11 593.554 148.206   6
   5 -11  11 446.960 163.217  21
   5  11  12 480.614 139.218   6
  -5  11  12 566.106 139.326   5
   5 -11  12 183.601 145.684  21
   5  11  13 341.993 125.974   6
  -5 -11  13 190.393 136.524  10
  -5  11  13 42.2206 99.7347   5
   5 -11  13 92.1063 131.055  21
   5  11  14 366.344 126.627   6
  -5  11  14 292.444 109.642   5
  -5 -11  14 108.497 125.503  10
   5 -11  14 496.488 143.424  21
   5  11  15 537.286 117.787   6
  -5  11  15 567.533 113.284   5
  -5 -11  15 370.485 125.515  10
   5 -11  15 676.471 130.775  21
  -5  11  16 47.2125 77.0311   5
   5  12   0-2.25260 107.386   1
  -5 -12   0 290.630 144.813   3
  -5  12   0 4.70294 115.380   7
  -5  12   1 2102.55 186.409   7
  -5 -12  -1 1915.11 203.521   3
  -5 -12   1 1749.52 202.836   3
  -5 -12   2 987.608 194.103   3
  -5  12   2 1079.87 169.839   7
  -5 -12   3 377.247 172.689   3
  -5  12   3 226.432 145.632   7
  -5  12   4 307.159 122.185  19
  -5 -12   4 615.369 181.757   3
  -5  12   4 491.478 152.235   7
  -5 -12   5 1238.12 189.571   3
  -5  12   5 1358.42 173.808  19
  -5  12   5 1358.35 181.372   7
  -5 -12   6 30.7645 162.205   3
  -5  12   6 6.41144 116.818  19
  -5  12   6-112.204 147.661   7
  -5  12   7 251.777 133.191  19
  -5 -12   7-67.4507 166.495   3
  -5  12   7-8.32597 142.246   7
  -5  12   8 38.5003 122.918  19
  -5  12   8 42.8241 132.482   7
  -5  12   9-132.835 113.034  19
  -5  12   9-165.723 143.214   7
   5 -12  10 135.909 140.055  21
   5  12  11 174.116 119.262   6
   5 -12  11-59.4261 133.305  21
   5  12  12 53.1099 105.843   6
  -5 -12  12 241.652 136.142  10
  -5  12  12-11.0134 100.488   5
   5 -12  12 181.830 136.516  21
   5  12  13 21.8604 107.368   6
  -5 -12  13 83.8790 117.478  10
  -5  12  13 121.544 101.297   5
   5 -12  13 290.546 132.289  21
   5  12  14-157.834 91.4496   6
  -5 -12  14-76.3997 111.652  10
  -5  12  14-70.0520 86.1950   5
   5 -12  14 197.062 116.820  21
   5  12  15 83.3622 84.3098   6
  -5  12  15-29.5324 78.6730   5
  -5 -13   0-267.981 178.422   3
  -5  13   0 9.26717 132.920   7
  -5 -13   1 1040.30 197.854   3
  -5 -13  -1 1058.53 196.922   3
  -5  13   1 1255.49 185.728   7
  -5 -13   2 15942.0 485.748   3
  -5  13   2 16333.9 461.252   7
  -5  13   3 2029.00 202.605  19
  -5 -13   3 1875.14 224.077   3
  -5  13   3 2208.36 208.679   7
  -5 -13   4 25.0211 178.108   3
  -5  13   4 115.262 124.054  19
  -5  13   4 252.387 139.117   7
  -5  13   5-70.8304 123.989  19
  -5 -13   5 80.9614 177.829   3
  -5  13   5-78.9897 133.566   7
  -5 -13   6 220.830 159.771   3
  -5  13   6 80.1314 120.725  19
  -5  13   6 361.918 155.209   7
  -5  13   7 392.350 139.790  19
  -5 -13   7 644.928 181.172   3
  -5  13   7 386.302 141.482   7
  -5  13   8 2075.18 194.831  19
  -5 -13   8 1789.86 206.406   3
  -5  13   8 1633.39 196.252   7
  -5  13   9-149.179 138.643   7
  -5  13   9 213.185 133.933  19
   5  13  10 484.012 131.916   6
   5 -13  10 684.506 167.893  21
  -5  13  10 452.863 138.889   7
   5  13  11 3220.49 206.853   6
  -5  13  11 3030.34 216.993   5
   5 -13  11 2607.68 230.186  21
   5  13  12 3921.43 214.729   6
  -5  13  12 3569.56 217.654   5
   5 -13  12 3524.87 235.341  21
   5  13  13-14.1941 92.1230   6
  -5  13  13 15.3546 85.4569   5
   5 -13  13 73.9567 108.285  21
   5  13  14 80.3625 83.0556   6
  -5 -14   0-66.2904 161.181   3
  -5  14   0 33.9181 137.358   7
  -5 -14  -1 169.663 161.051   3
  -5 -14   1-13.0212 164.587   3
  -5  14   1 126.429 132.953   7
  -5 -14   2-109.102 166.893   3
  -5  14   2 16.0901 127.602   7
  -5 -14   3 8.47888 161.317   3
  -5  14   3 71.1123 117.369  19
  -5  14   3-106.464 139.922   7
  -5  14   4 342.541 135.506  19
  -5 -14   4 463.444 177.957   3
  -5  14   4 448.367 143.443   7
  -5  14   5-8.96409 130.338   7
  -5 -14   5-90.6521 171.896   3
  -5  14   5-33.8672 121.943  19
  -5  14   6 198.492 137.165  19
  -5 -14   6 149.465 155.180   3
  -5  14   6-33.6499 138.065   7
  -5  14   7 84.1348 129.038  19
  -5 -14   7 29.3024 155.813   3
  -5  14   7 148.563 143.845   7
   5  14   8 817.007 139.134   6
  -5  14   8 670.525 142.069  19
  -5 -14   8 705.575 160.974   3
  -5  14   8 685.288 150.151   7
   5  14   9-12.4610 110.824   6
   5 -14   9-81.8089 130.902  21
  -5  14   9-120.879 129.322   7
  -5  14   9-67.8055 100.409  19
   5  14  10 68.5009 98.6669   6
   5 -14  10 179.401 125.253  21
  -5  14  10-181.819 109.919   7
   5  14  11 110.114 95.5347   6
  -5  14  11-52.4902 96.3510   5
   5 -14  11 152.277 114.478  21
   5  14  12 134.757 88.5073   6
  -5  14  12 105.917 84.9294   5
   5 -14  12 20.6658 99.8546  21
  -5 -15   0-306.708 163.262   3
  -5 -15  -1 26.2012 151.632   3
  -5 -15   1 50.5823 160.370   3
  -5  15   1 27.1152 120.947   7
  -5  15   2 802.340 152.313  19
  -5 -15   2 1283.73 201.551   3
  -5  15   2 1332.98 175.011   7
  -5  15   3 1064.98 151.440  19
  -5 -15   3 1463.73 207.829   3
  -5  15   3 967.237 159.455   7
  -5  15   4 760.061 148.910  19
  -5  15   4 828.241 155.099   7
  -5 -15   5 5948.74 313.277   3
  -5  15   5 5416.44 271.014  19
  -5  15   5 5048.67 277.058   7
  -5  15   6 948.007 159.430   7
  -5  15   6 521.821 128.010  19
  -5 -15   6 635.293 162.919   3
   5  15   7-19.3107 122.555   7
   5 -15   7-159.773 124.040  21
  -5  15   7-36.8490 95.9104  19
  -5 -15   7-55.7172 132.946   3
  -5  15   7-178.032 119.865   7
   5  15   8 987.941 147.862   7
   5  15   8 893.927 129.708   6
  -5  15   8 814.203 142.185   7
   5 -15   8 886.624 154.763  21
  -5  15   8 875.410 134.714  19
  -5 -15   8 979.949 161.424   3
   5  15   9 2042.83 165.323   6
  -5  15   9 2012.34 173.703   7
   5 -15   9 1986.65 185.482  21
   5  15  10 62.7783 89.1967   6
  -5  15  10 74.9244 84.3401   5
   5 -15  10 260.616 111.336  21
  -5  15  10-5.28109 92.3575   7
  -5  15  11-17.0427 72.4366   5
   5 -15  11-74.9533 92.4026  21
  -5 -16   0-128.467 153.848   3
  -5  16   0-151.586 114.339  19
  -5 -16  -1-236.545 151.327   3
  -5 -16   1 12.4598 147.374   3
  -5  16   1 138.091 106.765  19
  -5  16   1-41.6420 124.829   7
  -5  16   2 33.6369 101.316  19
  -5 -16   2-66.2732 153.673   3
  -5  16   2 44.7954 113.148   7
  -5  16   3 97.6653 121.356   7
  -5  16   3 104.472 106.611  19
  -5 -16   3 73.4292 155.961   3
  -5  16   4 285.408 120.718   7
  -5  16   4 49.2390 99.3825  19
  -5 -16   4 120.967 134.247   3
   5  16   5 94.9473 121.869   7
  -5  16   5-13.1627 97.1707  19
  -5 -16   5 220.852 132.072   3
  -5  16   5 96.5773 110.011   7
   5  16   6-116.962 112.499   7
  -5 -16   6 37.1321 129.087   3
  -5  16   6 37.2292 87.9120  19
  -5  16   6 61.1834 108.514   7
   5  16   7 81.8460 106.135   7
   5 -16   7 167.620 107.170  21
  -5 -16   7 246.336 132.075   3
  -5  16   7 5.42334 81.9314  19
  -5  16   7-108.243 109.886   7
   5 -16   8 26.0405 99.8350  21
  -5  16   8-94.8495 93.8256   7
   5  16   8 33.7778 93.4199   7
   5  17   0 42.7703 108.740   7
  -5  17   0 163.594 92.4829  19
   5  17  -1 631.387 121.324   7
   5  17   1 456.437 121.031   7
  -5  17   1 545.205 119.660  19
  -5 -17   1 400.803 137.171   3
  -5  17  -1 494.974 111.554  19
  -5  17   1 626.698 126.877   7
  -5  17   2 2223.98 167.355  19
  -5  17   2 2068.22 168.225   7
  -5 -17   2 2097.50 185.872   3
  -5  17  -2 2062.25 166.267  19
   5  17   2 2316.89 171.188   7
   5  17   3 208.392 100.848   7
  -5  17   3 87.7261 106.929   7
  -5  17   3 110.673 85.2887  19
  -5 -17   3 93.3487 124.954   3
   5  17   4 587.641 122.214   7
  -5  17   4 726.730 118.701   7
  -5 -17   4 938.566 144.922   3
  -5  17   4 692.632 114.260  19
   5  17   5 474.891 107.769   7
  -5  17   5 563.955 111.798   7
  -5  17   5 571.933 104.816  19
  -5  17   6-22.1331 71.0285  19
  -5  17   6-51.0261 92.7413   7
   5  17   6 41.5322 91.2402   7
   6   0   0 195545. 1006.05   1
   6   0   1 45.1345 76.7888   1
   6   0  -1 76.4856 82.1490   1
   6   0  -2 3611.00 162.296   1
   6   0   2 3798.98 150.566   1
   6   0  -3-58.6707 88.6716   1
   6   0   3 61.2482 70.6979   1
   6   0  -4 21573.7 376.118   1
   6   0  -5 48.4541 84.8045   1
   6   0  -6 10628.3 278.963   1
   6   0  -7-111.100 94.2596   1
   6   0   7-103.636 88.9790  16
   6   0   8 2525.02 175.038  16
   6   0   9 23.5058 97.1444  16
   6   0  10 17167.7 450.280  16
   6   0  11-54.8378 110.311  16
   6   0  12 11905.8 415.982  16
   6   0  13 75.4799 129.900  12
   6   0  13 3.30889 124.391  11
  -6   0  13-53.6181 138.348   9
   6   0  13-120.769 139.443   4
   6   0  14 7831.91 351.539  12
   6   0  14 7804.42 350.147  11
  -6   0  14 7208.57 330.867   9
   6   0  14 7668.82 359.516   4
   6   0  15 88.5601 137.126  12
   6   0  15-86.0398 145.089  11
  -6   0  15-67.3921 145.187   9
   6   0  15-304.157 155.247   4
   6   0  16 570.914 165.980  12
   6   0  16 463.560 163.112  11
  -6   0  16 704.627 165.119   9
   6   0  16 422.777 151.738   4
   6   0  17-2.31472 130.478  12
   6   0  17 15.7951 134.446  11
  -6   0  17-91.5400 128.738   9
   6   0  17-102.104 135.870   4
   6   0  18 258.909 135.293  12
   6   0  18-34.1040 114.312   4
   6   0  18 111.113 122.526  11
  -6   0  18 79.3267 120.458   9
   6   0  19-76.2742 101.745  11
   6   0  19 91.2603 103.277   4
   6   0  20 143.627 91.2382  11
   6   1   0 11408.0 251.289   1
   6   1  -1 4750.88 177.995   1
   6   1   1 4963.75 172.113   1
   6   1  -2 2832.78 150.851   1
   6   1   2 2642.71 130.791   1
   6   1   3 31909.2 388.513   1
   6   1  -3 30893.1 445.632   1
   6   1  -4 49.5415 80.1512   1
   6  -1  -4 207.272 84.2314   1
   6   1  -5-10.8227 78.8559   1
   6  -1  -5-8.98041 80.3215   1
   6   1  -6 49450.6 598.976   1
   6  -1  -6 50289.3 591.830   1
   6   1   6 47782.5 587.681  16
   6  -1  -7 9288.27 277.180   1
   6   1  -7 8864.97 271.946   1
   6   1   7 8922.13 279.591  16
   6   1   8 514.573 103.921  16
   6  -1   8 467.695 111.883  16
   6  -1   9 14087.9 391.113  16
   6   1   9 13907.9 380.964  16
   6  -1  10 6063.38 281.614  16
   6   1  10 6059.39 279.208  16
   6   1  11 3756.12 246.355  16
   6  -1  11 3812.88 239.806  16
   6  -1  12 3873.79 247.692  16
   6   1  13 2268.09 207.107  12
   6   1  13 2207.63 211.305  11
  -6   1  13 2232.44 209.238   9
   6   1  13 1958.74 207.162   4
  -6  -1  13 2297.49 212.952   9
   6   1  14 401.255 159.433  12
   6  -1  14 513.342 163.580  12
   6   1  14 80.6819 142.580  11
   6  -1  14 267.370 152.501  11
  -6   1  14 146.862 151.132   9
  -6  -1  14 94.0903 154.482   9
   6   1  14 179.896 151.679   4
   6  -1  14 124.231 137.755   4
   6   1  15 176.151 148.621  12
   6  -1  15 191.866 146.686  12
   6   1  15 169.067 141.831  11
   6  -1  15-39.2075 134.176  11
  -6   1  15-22.4637 150.438   9
  -6  -1  15-306.471 162.234   9
   6  -1  15-75.2121 139.842   4
   6   1  15-80.4136 137.273   4
   6   1  16 2574.10 232.727  12
   6  -1  16 2059.74 209.528  12
   6  -1  16 2223.53 219.011  11
   6   1  16 2077.58 214.353  11
   6   1  16 1723.26 204.620   4
  -6   1  16 2024.68 206.119   9
  -6  -1  16 1940.80 204.583   9
   6  -1  16 1783.13 202.364   4
   6   1  17 202.712 144.548  12
   6  -1  17 563.699 150.748  12
   6   1  17 359.728 158.328  11
   6  -1  17 439.126 146.957  11
  -6   1  17 286.419 149.775   9
  -6  -1  17 252.431 147.894   9
   6   1  17 331.636 151.516   4
   6  -1  17 110.217 136.645   4
   6   1  18 236.970 131.645  12
   6   1  18 172.031 127.562  11
   6  -1  18 163.411 122.913  11
   6   1  18 229.581 130.321   4
  -6   1  18 129.530 125.568   9
  -6  -1  18 200.485 129.745   9
   6  -1  18 94.4591 118.297   4
   6   1  19 147.648 104.186  11
   6  -1  19 141.157 105.669  11
   6   1  19 303.532 124.813   4
   6  -1  19-12.8229 99.1486   4
   6   2   0 10290.6 245.491   1
   6   2   1 168.518 78.4683   1
   6   2  -1 106.435 84.5958   1
   6   2  -2 643.040 100.956   1
   6   2   2 591.443 90.3419   1
   6   2  -3 108757. 827.640   1
   6   2  -4 17265.5 343.564   1
   6   2  -5 8040.01 253.980   1
   6   2   5 7770.10 229.290  16
   6   2  -6 5593.63 220.774   1
   6  -2  -6 5453.37 211.536   1
   6   2   6 5387.10 207.891  16
   6   2  -7 95001.8 864.993   1
   6   2   7 89596.9 847.572  16
   6   2   8 7079.44 267.270  16
   6  -2   8 7765.07 280.532  16
   6   2   9 699.082 118.464  16
   6  -2   9 700.221 126.704  16
   6  -2  10 5207.71 266.690  16
   6   2  10 5235.87 258.313  16
   6  -2  11 2456.48 205.136  16
   6  -2  12 650.091 137.128  16
   6   2  13 162.457 142.032  12
   6   2  13 118.475 133.764  11
  -6   2  13 62.5502 116.932   5
  -6  -2  13 20.8764 134.584  10
  -6   2  13 193.170 145.100   9
  -6  -2  13 250.942 155.572   9
   6   2  13 43.2622 128.327   4
   6   2  14 1895.49 209.669  12
   6   2  14 1758.82 203.212  11
  -6  -2  14 1603.66 208.101  10
  -6   2  14 1778.32 201.360   9
  -6  -2  14 2112.32 216.593   9
   6   2  14 2065.49 220.016   4
   6   2  15 1393.96 193.118  12
   6  -2  15 1531.98 195.234  12
   6   2  15 1444.04 196.836  11
   6  -2  15 1476.10 198.477  11
  -6  -2  15 1311.51 197.724  10
   6   2  15 923.276 175.805   4
  -6   2  15 1235.76 192.137   9
  -6  -2  15 1724.75 199.604   9
   6  -2  15 1321.41 183.596   4
   6   2  16 665.790 165.769  12
   6   2  16 612.453 166.586  11
   6  -2  16 650.084 160.134  11
  -6  -2  16 790.486 169.677  10
  -6   2  16 990.332 175.863   9
  -6  -2  16 1309.05 192.860   9
   6   2  16 617.450 164.744   4
   6  -2  16 560.972 146.230   4
   6   2  17 3217.20 244.843  12
   6   2  17 3293.73 243.237  11
   6  -2  17 3164.77 245.502  11
  -6   2  17 3314.12 235.559   9
  -6  -2  17 3325.17 232.944   9
   6   2  17 3125.78 241.761   4
   6  -2  17 2941.98 235.575   4
   6  -2  18-116.604 120.735   4
   6   2  18 373.132 134.193  11
   6  -2  18-23.0997 115.252  11
  -6   2  18-70.4602 117.769   9
  -6  -2  18 125.539 120.917   9
   6   2  18 235.780 122.130   4
   6  -2  19 436.049 118.612  11
   6   2  19 666.671 129.064   4
   6   3   0 81951.9 697.992   1
   6   3   1 14213.5 291.017   1
   6   3  -1 14089.2 305.733   1
   6   3   2 736.232 93.2202   1
   6   3  -2 547.044 99.5039   1
   6   3  -3 47671.2 581.408   1
   6   3  -4 32026.0 483.295   1
   6   3  -5 204.598 88.2062   1
   6   3   5 371.680 77.3053  16
   6   3  -6 9188.03 281.566   1
   6   3   6 8516.29 255.159  16
   6   3  -7 5655.43 235.450   1
   6   3   7 5200.78 218.421  16
   6   3   8 1308.40 135.797  16
   6  -3   8 1534.03 148.361  16
   6   3   9 5756.56 259.021  16
   6  -3   9 6516.05 276.573  16
   6  -3  10 110.158 98.4632  16
   6  -3  11 1529.25 172.371  16
   6  -3  12 89.4406 104.980  16
   6   3  13 6586.41 329.191  12
   6   3  13 7340.85 335.425  11
  -6   3  13 6790.73 326.061   5
  -6  -3  13 6740.13 329.942  10
  -6   3  13 7317.97 330.982   9
  -6  -3  13 7266.58 324.896   9
   6   3  13 7208.82 344.889   4
   6   3  14 298.150 151.376  12
   6   3  14 161.119 138.400  11
  -6   3  14-27.0667 129.848   5
  -6  -3  14 93.2307 153.391  10
  -6   3  14 21.0964 135.774   9
  -6  -3  14-47.1523 135.318   9
   6   3  14-185.214 150.242   4
   6   3  15 261.709 148.034  12
   6   3  15-52.3133 141.831  11
  -6  -3  15 49.1578 149.002  10
  -6   3  15-53.0035 147.360   9
  -6  -3  15 18.3974 138.154   9
   6   3  15 98.0769 136.948   4
   6   3  16-74.5656 143.912  12
   6   3  16-56.3447 134.689  11
   6  -3  16-230.922 151.363  11
  -6  -3  16-134.962 149.879  10
  -6   3  16-36.1020 132.627   9
  -6  -3  16-109.073 146.456   9
   6  -3  16-29.1097 142.235   4
   6   3  16-93.6777 139.938   4
   6   3  17 266.345 141.012  12
   6   3  17-151.220 129.149  11
   6  -3  17 154.000 138.510  11
  -6  -3  17 126.594 138.319  10
  -6   3  17 139.731 133.610   9
  -6  -3  17-63.7027 122.770   9
   6   3  17 32.5130 121.560   4
   6  -3  17-66.6489 128.255   4
   6   3  18-28.6630 106.468  11
   6  -3  18-282.187 126.530  11
  -6  -3  18 86.7127 128.279  10
  -6   3  18 163.822 115.423   9
  -6  -3  18 168.206 120.353   9
   6   3  18 289.616 131.072   4
   6  -3  18-189.066 127.330   4
   6  -3  19 676.396 130.226  11
  -6  -3  19 547.003 132.574  10
   6  -3  19 575.956 126.498   4
   6   4   0 104612. 814.965   1
   6   4   1 36038.7 469.136   1
   6   4  -1 36076.1 492.646   1
   6   4   2 1760.47 123.459   1
   6   4  -2 1854.80 143.999   1
   6   4  -3 52219.8 621.233   1
   6   4  -4 11511.2 311.682   1
   6   4  -5 34074.2 528.846   1
   6   4  -6 1652.41 148.329   1
   6   4  -7 75663.8 814.049   1
   6   4  -8 1417.10 138.097   1
   6  -4   9 7418.05 296.878  16
   6  -4  10 16224.1 445.193  16
   6  -4  11 934.104 140.692  16
   6   4  12 1271.76 166.294   4
  -6   4  12 1269.41 158.642   5
   6  -4  12 1190.82 158.265  16
   6   4  13 771.850 172.192  12
   6   4  13 567.700 149.023  11
  -6   4  13 351.730 130.943   5
  -6  -4  13 923.581 186.916  10
  -6  -4  13 540.191 158.265   9
   6   4  13 528.098 161.891   4
   6   4  14 644.944 172.559  12
   6   4  14 617.758 171.054  11
  -6   4  14 726.434 159.898   5
  -6  -4  14 543.829 172.447  10
  -6  -4  14 533.950 158.273   9
   6   4  14 388.992 152.548   4
   6   4  15 1386.92 200.808  12
   6   4  15 1481.79 199.152  11
  -6   4  15 1233.37 185.486   5
  -6  -4  15 966.091 179.145  10
  -6   4  15 1199.32 178.216   9
  -6  -4  15 1662.36 193.531   9
   6   4  15 1444.96 208.923   4
   6   4  16 33.3232 139.155  12
   6   4  16 167.351 132.737  11
   6  -4  16 81.0264 141.807  11
  -6  -4  16-160.810 149.658  10
  -6   4  16-84.4468 134.358   9
  -6  -4  16 146.843 133.177   9
   6   4  16 335.626 154.902   4
   6  -4  17 1700.21 190.498  11
  -6  -4  17 1715.90 194.128  10
  -6   4  17 1405.39 174.385   9
  -6  -4  17 1348.54 174.814   9
   6   4  17 1735.70 205.405   4
   6  -4  18 33.7409 113.026  11
  -6  -4  18 122.633 123.277  10
  -6  -4  18 126.941 113.149   9
   6  -4  19 103.083 98.3320  11
  -6  -4  19 61.7223 111.775  10
   6   5   0 26996.9 433.250   1
   6   5   1 9713.41 262.581   1
   6   5  -1 9797.51 275.442   1
   6   5   2 5838.49 205.981   1
   6   5  -2 5643.50 222.971   1
   6   5  -3 7122.70 251.451   1
   6   5  -4 31351.5 515.278   1
   6   5  -5 133.414 95.4674   1
   6   5  -6 10749.9 326.625   1
   6   5  -7 6623.44 265.643   1
   6   5  -8 1043.53 131.509   1
   6  -5   9 39.4086 98.6011  16
   6  -5  10 4688.31 255.177  16
   6  -5  11 433.344 118.913  16
   6   5  12 2186.59 217.155  12
  -6   5  12 1946.91 198.830   5
   6   5  12 2382.41 232.744   4
   6  -5  12 2074.55 221.533  21
   6   5  13 187.950 148.985  12
   6   5  13-261.785 139.139  11
  -6   5  13 295.454 133.003   5
   6   5  13 57.7302 134.211   4
   6  -5  13 95.9724 155.339  21
   6   5  14-123.204 154.446  12
   6   5  14-6.92151 132.020  11
  -6   5  14-144.330 122.881   5
  -6  -5  14 145.255 160.698  10
   6   5  14 207.505 143.474   4
   6   5  15 130.574 140.351  12
   6   5  15 139.825 137.185  11
  -6   5  15 31.5404 123.795   5
  -6  -5  15-19.1661 152.548  10
   6   5  15 423.603 158.828   4
  -6  -5  16 2917.03 241.705  10
   6   5  16 3510.38 256.888   4
   6  -5  17 210.610 124.821  11
  -6  -5  17 132.765 131.936  10
   6  -5  18 223.984 121.128  11
  -6  -5  18-97.8676 121.705  10
   6  -5  19 62.5223 91.9005  11
  -6  -5  19-120.539 104.108  10
   6   6   0 120758. 961.769   1
   6   6   1 261.236 90.4327   1
   6   6  -1 190.584 96.4807   1
   6   6  -2 28365.4 493.683   1
   6   6   2 28631.5 454.180   1
   6   6  -3 17300.3 401.897   1
   6   6  -4 5281.87 240.433   1
   6   6  -5 3032.57 198.088   1
   6   6  -6 9149.90 315.083   1
   6   6  -7 7064.21 288.070   1
   6   6  -8 26014.3 544.589   1
   6  -6   9 1441.54 161.734  16
  -6   6  11 754.615 135.899   5
   6   6  11 1264.96 183.296   4
   6  -6  11 1147.35 175.722  21
   6   6  12 2445.62 233.191  12
  -6   6  12 2396.65 219.450   5
   6   6  12 2980.19 256.420   4
   6  -6  12 2778.60 242.861  21
   6   6  13 692.925 176.553  12
  -6   6  13 653.743 161.304   5
   6   6  13 1072.25 194.525   4
   6  -6  13 546.010 168.143  21
   6   6  14 4699.66 292.616  12
  -6   6  14 5337.04 291.148   5
  -6  -6  14 4777.70 295.959  10
   6   6  14 5078.46 316.805   4
   6  -6  14 5190.85 305.219  21
  -6   6  15 9.27042 119.887   5
  -6  -6  15 55.4011 144.265  10
  -6   6  16 573.604 137.252   5
  -6  -6  16 393.564 143.787  10
   6  -6  17 531.827 134.856  11
  -6  -6  17 313.844 137.647  10
   6  -6  18 180.371 116.466  11
  -6  -6  18 112.340 112.056  10
   6   7   0 2961.69 183.028   1
   6   7   1 20387.8 420.019   1
   6   7  -1 20939.0 443.256   1
   6   7  -2 3851.95 208.164   1
   6   7  -3 12506.0 361.139   1
   6   7  -4 7506.11 296.292   1
   6   7  -5 995.068 139.574   1
   6   7  -6 295.734 111.520   1
   6   7  -7 8561.31 331.271   1
   6   7  -8 167.634 106.034   1
  -6   7  11 1564.87 186.170   5
   6  -7  11 1704.02 210.368  21
   6   7  12-120.258 144.554  12
  -6   7  12 295.135 144.347   5
   6  -7  12 31.3838 150.492  21
   6  -7  13 3389.43 266.269  21
   6   7  13 3289.07 224.508   6
   6   7  13 3114.98 247.017  12
  -6   7  13 3234.25 236.798   5
   6   7  14 1418.00 168.808   6
  -6   7  14 1231.00 179.996   5
  -6  -7  14 1296.38 196.440  10
   6  -7  14 1617.28 215.039  21
  -6   7  15 211.995 119.996   5
  -6  -7  15-164.293 145.407  10
   6  -7  15-33.2321 131.299  21
  -6   7  16 102.538 118.571   5
  -6  -7  16 42.6051 126.238  10
   6  -7  17 330.783 128.704  11
  -6  -7  17 294.012 127.449  10
   6  -7  18-8.97635 94.8570  11
  -6  -7  18 57.1421 99.6253  10
   6   8   0 2063.08 167.417   1
   6   8   1 329.689 98.5859   1
   6   8  -1 379.752 111.795   1
   6   8  -2 5626.79 263.050   1
   6   8  -3 26053.0 533.094   1
   6   8  -4 1283.13 158.629   1
   6   8  -5 2448.25 196.842   1
   6   8  -6 6157.25 295.286   1
  -6  -8   7 31999.5 611.436  22
   6   8  -7 32551.4 633.255   1
   6   8  -8 2277.29 197.142   1
  -6  -8   8 2177.79 189.684  22
   6  -8  10 933.492 197.698  21
  -6   8  11 608.905 154.929   5
   6  -8  11 531.178 165.923  21
  -6   8  12-7.70265 116.941   5
   6  -8  12 44.8884 146.498  21
   6   8  13 25.3753 120.689   6
  -6   8  13 235.044 127.434   5
   6  -8  13 344.751 157.285  21
   6   8  14-30.2085 122.366   6
  -6   8  14 48.2458 112.896   5
  -6  -8  14-12.4259 143.262  10
   6  -8  14 75.3747 137.128  21
   6   8  15 1369.07 164.888   6
  -6   8  15 1413.48 171.763   5
  -6  -8  15 1291.91 178.058  10
   6  -8  15 1422.11 181.341  21
  -6   8  16 245.452 112.835   5
  -6  -8  16-60.1286 123.069  10
   6  -8  17 1308.77 148.672  11
  -6  -8  17 887.395 136.187  10
   6   9   0 10041.3 342.478   1
   6   9   1-19.3264 93.9066   1
   6   9  -1 165.768 104.702   1
   6   9  -2 2606.83 201.479   1
   6   9  -3 844.743 141.226   1
   6   9  -4 13756.9 419.241   1
   6   9  -5 166.807 123.132   1
   6   9  -6 10436.2 383.146   1
  -6  -9   6 10077.6 361.637  22
   6   9  -7 830.780 154.293   1
  -6  -9   7 934.379 147.440  22
   6   9  -8 711.091 145.248   1
  -6   9   8 880.521 139.823  19
  -6   9   8 507.952 128.536   7
   6  -9   9 348.309 164.020  21
  -6   9   9 245.276 123.826  19
   6  -9  10 4786.44 313.182  21
  -6   9  11 132.975 125.058   5
   6  -9  11-179.363 150.190  21
   6   9  12 813.962 161.902   6
  -6   9  12 1015.45 166.800   5
   6  -9  12 617.956 172.122  21
   6   9  13 75.4074 128.550   6
  -6   9  13-21.6490 118.075   5
   6  -9  13 96.0303 135.102  21
   6   9  14 982.606 151.898   6
  -6   9  14 907.702 154.168   5
  -6  -9  14 811.230 162.097  10
   6  -9  14 570.729 154.654  21
   6   9  15 192.599 117.219   6
  -6   9  15-215.058 116.130   5
  -6  -9  15-29.5526 120.326  10
   6  -9  15-28.7543 120.474  21
   6   9  16 166.348 98.4445   6
  -6   9  16 77.4609 97.7837   5
  -6  -9  16 154.303 116.321  10
  -6  -9  17 92.7724 95.4855  10
   6  10   0 26005.1 561.748   1
   6  10   1 12660.9 394.576   1
   6  10  -1 12342.5 403.005   1
   6  10  -2 857.929 150.351   1
   6  10  -3 2.34956 122.902   1
   6  10  -4 4916.89 282.666   1
   6  10  -5 2983.88 226.967   1
   6  10  -6-2.11147 108.700   1
  -6  10   6-31.1397 105.726   7
  -6  10   7 1151.36 159.114  19
  -6  10   7 1359.83 183.978   7
  -6  10   8 461.877 140.260  19
  -6  10   8 266.105 144.819   7
   6 -10   9 1122.78 205.887  21
  -6  10   9 1287.66 177.412  19
  -6  10   9 1143.82 171.339   7
   6 -10  10 2251.16 240.684  21
  -6  10  11 28.2566 123.886   5
   6 -10  11 154.837 161.102  21
   6  10  12 1841.10 186.395   6
  -6  10  12 1632.03 186.384   5
   6 -10  12 1351.69 197.880  21
   6  10  13 1006.71 160.287   6
  -6  10  13 948.673 157.736   5
  -6 -10  13 824.785 166.631  10
   6 -10  13 923.920 177.229  21
   6  10  14 1080.35 149.272   6
  -6  10  14 733.281 134.379   5
  -6 -10  14 864.437 160.301  10
   6 -10  14 747.708 158.328  21
   6  10  15 476.418 113.649   6
   6 -10  15 543.097 136.346  21
  -6  10  15 342.390 114.120   5
  -6 -10  15 466.944 128.768  10
   6 -10  16-69.9165 96.9534  21
   6  10  16 37.5385 87.6597   6
  -6  10  16 136.961 89.9537   5
  -6 -10  16-103.504 103.093  10
   6  11   0 1094.01 167.845   1
   6  11  -1 1677.12 188.414   1
   6  11  -2 1719.64 193.519   1
   6  11  -3 9737.86 392.552   1
  -6  11   3 10076.2 358.981   7
  -6  11   4 279.207 112.454  19
  -6  11   4 347.030 143.864   7
  -6  11   5 786.364 145.211  19
  -6  11   5 687.807 156.009   7
  -6  11   6 501.373 134.982  19
  -6  11   6 677.782 162.244   7
  -6 -11   6 466.308 163.180   3
  -6  11   7 4356.70 268.418  19
  -6 -11   7 4657.13 283.185   3
  -6  11   7 4128.47 265.456   7
  -6  11   8 266.419 135.039  19
  -6  11   8 8.55274 134.488   7
   6 -11   9 2109.00 229.405  21
  -6  11   9 1941.42 199.241  19
  -6  11   9 1603.48 196.974   7
   6 -11  10 16.5474 155.775  21
  -6  11  11 831.891 153.704   5
   6 -11  11 645.775 165.632  21
   6  11  12 571.218 134.931   6
  -6  11  12 262.427 115.415   5
   6 -11  12 534.062 158.104  21
   6  11  13 786.753 143.476   6
  -6 -11  13 759.901 157.318  10
  -6  11  13 775.633 139.773   5
   6 -11  13 688.836 157.013  21
   6  11  14 14.0009 99.5589   6
  -6  11  14-78.8125 95.1025   5
  -6 -11  14-132.373 116.221  10
   6 -11  14-58.1047 111.654  21
   6  11  15-117.686 90.1253   6
  -6  11  15-67.9057 78.0654   5
  -6 -11  15-18.6116 102.623  10
   6 -11  15-40.0355 106.239  21
  -6 -12   0 2999.56 250.970   3
  -6  12   0 3009.07 222.207   7
  -6  12   1 281.882 150.371   7
  -6 -12  -1 125.872 156.032   3
  -6 -12   1 182.731 176.849   3
  -6 -12   2 3347.97 270.668   3
  -6  12   2 3280.94 247.173   7
  -6 -12   3 5047.22 306.483   3
  -6  12   3 5050.50 277.341  19
  -6  12   3 4902.10 276.616   7
  -6  12   4 647.780 137.821  19
  -6  12   4 419.208 154.120   7
  -6 -12   4 252.609 168.137   3
  -6  12   5 23.4300 112.512  19
  -6  12   5 14.9502 140.856   7
  -6 -12   5-88.0933 174.134   3
  -6  12   6 1397.62 174.185  19
  -6  12   6 1464.75 188.426   7
  -6 -12   6 1239.18 205.181   3
  -6  12   7 1299.41 173.015  19
  -6 -12   7 1529.28 216.609   3
  -6  12   7 1764.00 202.319   7
  -6 -12   8 3475.01 253.195   3
  -6  12   8 3714.58 248.929  19
  -6  12   8 3436.03 238.375   7
   6 -12   8 3373.39 267.545  21
  -6  12   9 450.108 145.763  19
  -6  12   9 481.860 158.304   7
   6 -12   9 246.214 148.516  21
   6 -12  10 471.699 172.307  21
   6  12  11 241.333 129.333   6
  -6  12  11 124.684 113.586   5
   6 -12  11 395.197 155.340  21
   6  12  12 242.054 113.022   6
  -6 -12  12 166.610 129.099  10
  -6  12  12 259.900 110.256   5
   6 -12  12 320.746 139.311  21
   6  12  13 226.740 110.053   6
  -6 -12  13-9.56209 114.665  10
  -6  12  13 262.745 105.813   5
   6 -12  13 254.749 123.000  21
   6  12  14 929.141 123.661   6
  -6  12  14 976.137 121.552   5
  -6 -12  14 684.399 128.630  10
  -6 -13   0 9269.02 388.669   3
  -6  13   0 10128.2 359.156   7
  -6 -13   1 636.749 187.408   3
  -6 -13  -1 393.314 173.884   3
  -6  13   1 506.203 154.624   7
  -6  13   2 710.863 152.664  19
  -6 -13   2 466.229 186.433   3
  -6  13   2 705.973 156.823   7
  -6 -13   3-80.1909 185.771   3
  -6  13   3 79.2027 114.947  19
  -6  13   3 9.25561 139.416   7
  -6 -13   4 2801.38 259.000   3
  -6  13   4 3137.22 228.635  19
  -6  13   4 3188.28 240.140   7
  -6 -13   5 491.331 187.559   3
  -6  13   5 709.628 152.780  19
  -6  13   5 514.426 151.882   7
  -6  13   6 1814.66 189.829  19
  -6 -13   6 1711.51 216.657   3
  -6  13   6 1408.12 188.684   7
  -6  13   7 171.688 124.771  19
   6 -13   7 315.405 145.489  21
  -6 -13   7-5.75416 160.823   3
  -6  13   7 172.376 133.825   7
  -6 -13   8-82.7682 141.263   3
   6 -13   8-104.116 141.720  21
  -6  13   8-156.218 134.238  19
  -6  13   8 120.980 119.059   8
  -6  13   8 175.809 129.836   7
  -6  13   9 519.931 138.242   7
   6 -13   9 415.072 144.949  21
  -6  13   9 545.584 136.569  19
   6 -13  10 1111.44 183.832  21
   6  13  10 1043.35 153.536   6
  -6  13  10 907.153 155.041   7
   6 -13  11-49.7972 116.192  21
   6  13  11-70.4938 102.232   6
  -6  13  11-76.0981 97.6553   5
   6  13  12-12.0657 89.9343   6
  -6  13  12 80.7844 98.5646   5
   6 -13  12 45.5585 111.083  21
   6  13  13 112.997 91.0644   6
  -6  13  13 195.337 91.7360   5
   6 -13  13 315.623 110.458  21
  -6 -14   0 27.8542 160.227   3
  -6  14   0 124.411 128.197   7
  -6  14   1 3186.34 224.557  19
  -6 -14  -1 3299.66 252.573   3
  -6 -14   1 3557.90 261.756   3
  -6  14   1 3418.23 244.236   7
  -6  14   2 797.522 144.165  19
  -6 -14   2 806.998 192.337   3
  -6  14   2 795.278 162.136   7
  -6 -14   3 988.325 198.786   3
  -6  14   3 796.217 151.057  19
  -6  14   3 906.367 177.121   7
  -6 -14   4 370.905 180.064   3
  -6  14   4 240.724 115.408  19
  -6  14   4 39.9557 127.250   7
  -6  14   5 1311.84 173.776  19
  -6 -14   5 1317.84 215.562   3
  -6  14   5 1683.69 187.347   7
  -6  14   6 2622.25 216.926   7
  -6 -14   6 2882.82 236.938   3
  -6  14   6 2370.56 207.973  19
   6 -14   7 2682.22 230.300  21
  -6  14   7 2399.48 203.546   7
  -6 -14   7 2732.70 229.208   3
  -6  14   7 2547.01 200.199  19
  -6  14   8 380.587 134.785   7
   6 -14   8 667.278 154.548  21
  -6  14   8 316.789 118.446  19
  -6  14   8 307.823 127.125   8
  -6 -14   8 238.364 148.429   3
   6  14   9 1588.28 157.063   6
   6 -14   9 1555.59 185.098  21
  -6  14   9 1668.02 169.764   7
   6  14  10 520.134 118.750   6
  -6  14  10 674.859 119.293   5
   6 -14  10 336.690 122.663  21
  -6  14  10 485.727 131.849   7
   6  14  11 8.49399 85.8641   6
  -6  14  11-67.6109 87.0625   5
   6 -14  11 66.8981 105.009  21
   6  14  12 70.6659 80.8335   6
  -6  14  12-1.87565 75.4844   5
   6 -14  12-27.9120 92.8154  21
  -6 -15   0 691.869 174.506   3
  -6  15   0 555.036 134.132  19
  -6  15   1 128.789 102.075  19
  -6 -15  -1 93.6030 149.797   3
  -6 -15   1 262.539 174.076   3
  -6  15   1 365.914 130.788   7
  -6  15   2 54.9823 100.445  19
  -6 -15   2 18.8984 152.353   3
  -6  15   2-1.72271 121.839   7
  -6  15   3 1839.89 176.080  19
  -6 -15   3 1846.71 215.620   3
  -6  15   3 1829.44 182.728   7
  -6 -15   4 1076.47 186.401   3
  -6  15   4 1116.87 174.768   7
  -6  15   4 1025.29 153.704  19
  -6  15   5 181.567 103.965  19
  -6 -15   5 71.8673 141.728   3
  -6  15   5-79.2003 131.561   7
  -6  15   6-99.5454 106.255  19
  -6 -15   6 111.914 149.531   3
  -6  15   6 18.6531 113.509   7
   6  15   7 1298.19 146.118   6
   6 -15   7 1007.30 160.038  21
  -6  15   7 1217.13 150.545  19
  -6 -15   7 1069.33 169.917   3
  -6  15   7 1280.06 153.502   8
  -6  15   7 1241.04 153.002   7
   6  15   8-57.5628 106.761   7
   6 -15   8 25.6148 107.983  21
   6  15   8 16.9085 98.7408   6
  -6  15   8 136.244 98.6490  19
  -6 -15   8 130.148 124.138   3
  -6  15   8 71.7783 100.309   7
   6 -15   9 30.0908 111.833  21
   6  15   9-15.6486 87.1607   6
  -6  15   9 104.702 102.202   7
   6  15  10 88.7724 85.9899   6
  -6  15  10 230.338 91.1720   5
   6 -15  10 196.303 101.705  21
  -6  16   0 3035.57 195.890  19
  -6 -16   0 2760.54 215.979   3
  -6 -16  -1 2750.10 211.269   3
  -6 -16   1 2683.35 215.345   3
  -6  16   1 2500.14 190.447  19
  -6  16  -1 2467.85 185.997  19
  -6  16   1 2784.95 196.021   7
  -6  16   2 958.045 147.160   7
  -6  16   2 861.920 143.795  19
  -6 -16   2 838.617 166.929   3
  -6  16   3 92.7368 107.700  19
  -6 -16   3 60.6641 127.822   3
  -6  16   3 266.133 124.454   7
  -6  16   4 400.530 120.475   7
  -6  16   4 106.152 93.7396  19
  -6 -16   4 294.807 144.381   3
  -6  16   5-7.62007 106.054   7
  -6  16   5 69.1256 89.9700  19
  -6 -16   5 254.882 138.866   3
   6  16   6 73.5618 105.765   7
  -6  16   6 168.766 86.4184  19
  -6 -16   6 268.564 121.811   3
  -6  16   6-4.65017 94.1373   8
  -6  16   6 8.57368 99.3073   7
   6  16   7-114.940 101.830   7
  -6  16   7 9.72953 76.4095  19
  -6 -16   7 105.184 118.291   3
  -6  16   7 30.2444 91.3037   8
  -6  16   7 193.795 100.882   7
  -6  16   8 606.347 113.463   7
   6  17   0 1083.17 132.908   7
  -6 -17   0 758.136 141.568   3
  -6  17   0 999.975 128.285  19
   6  17  -1 116.606 99.5278   7
   6  17   1 234.636 103.228   7
  -6 -17   1 125.331 121.771   3
  -6  17   1 46.1866 84.9747  19
  -6  17  -1-23.4208 83.3420  19
   6  17   2-35.5941 95.6595   7
  -6 -17   2 65.2050 109.801   3
  -6  17   2-51.6143 83.2824  19
  -6  17  -2-84.5306 89.7411  19
  -6  17   2 67.1054 98.6892   7
   6  17   3 414.180 108.377   7
  -6  17   3 453.856 101.522  19
  -6 -17   3 361.649 119.256   3
  -6  17  -3 246.821 85.2411  19
  -6  17   3 439.873 112.690   7
   6  17   4-18.3080 89.3127   7
  -6 -17   4 106.629 107.547   3
  -6  17   4 339.566 94.2941  19
  -6  17   4 287.228 99.8890   7
   6  17   5-104.397 85.4741   7
  -6 -17   5 105.500 105.543   3
  -6  17   5 67.9165 76.7180  19
  -6  17   5 8.87028 82.9055   7
   7   0   0 164.377 85.3523   1
   7   0   1 78.1487 83.3841   1
   7   0  -1 86.4210 84.5661   1
   7   0  -2 79911.3 738.620   1
   7   0   2 79271.4 683.722   1
   7   0  -3-113.040 93.0472   1
   7   0   3 35.0371 70.2111   1
   7   0  -4 6350.59 234.512   1
   7   0  -5-35.9087 97.7455   1
   7   0  -6 2624.23 167.832   1
   7   0  -7 15.6231 85.8391   1
   7   0   7 190.374 87.7646  16
   7   0   8 27490.1 526.114  16
   7   0   9-144.359 101.266  16
   7   0  10 473.446 136.502  16
   7   0  11 51.9904 109.400  16
   7   0  12 5767.81 313.460  16
   7   0  13 24.8984 130.637  11
  -7   0  13 80.7885 151.578   9
   7   0  13-148.872 135.215   4
   7   0  14 2301.56 223.527  12
   7   0  14 1589.04 202.536  11
  -7   0  14 2150.87 215.482   9
   7   0  14 1869.73 209.549   4
   7   0  15-40.3025 136.892  12
   7   0  15 13.9273 134.727  11
   7   0  15 26.4177 135.233   4
  -7   0  15 111.128 137.557   9
   7   0  16 1862.20 207.455  12
   7   0  16 1982.42 212.209  11
  -7   0  16 1800.67 208.699   9
   7   0  16 1754.45 211.417   4
   7   0  17 108.886 134.949  12
   7   0  17-88.2057 126.107  11
   7   0  17 20.4578 119.061   4
   7   0  18 502.107 135.531  12
   7   0  18 860.613 142.646  11
  -7   0  18 538.623 140.800   9
   7   0  18 749.351 141.028   4
   7   0  19-164.060 98.9614  11
  -7   0  19 87.6693 99.0145   9
   7   0  19 116.400 107.170   4
   7   1   0 124.097 83.0296   1
   7   1  -1 3170.01 167.996   1
   7   1   1 3148.50 157.091   1
   7   1  -2 26923.7 438.577   1
   7  -1  -2 26965.8 437.737   1
   7   1   2 27886.4 412.663   1
   7   1  -3 15573.1 345.141   1
   7  -1  -3 15230.5 344.034   1
   7   1  -4 40726.9 557.967   1
   7  -1  -4 40000.6 554.623   1
   7   1  -5 41624.0 580.012   1
   7  -1  -5 40829.4 572.433   1
   7   1  -6 22451.1 441.979   1
   7  -1  -6 21945.0 438.773   1
   7  -1  -7 6907.92 260.976   1
   7   1  -7 6449.93 250.535   1
   7   1   7 6376.43 248.961  16
   7   1   8 4048.58 220.702  16
   7  -1   8 4382.00 227.866  16
   7   1   9 6788.97 284.982  16
   7  -1   9 7370.21 299.084  16
   7   1  10 12577.9 407.383  16
   7  -1  10 13507.8 414.041  16
   7   1  11 494.786 125.381  16
   7  -1  11 764.402 137.722  16
   7  -1  12 12807.9 450.761  16
   7   1  13 289.086 156.358  12
   7   1  13 109.206 133.073  11
  -7   1  13 161.675 153.701   9
  -7  -1  13 87.9621 150.808   9
   7  -1  13 143.904 129.878   4
   7   1  13 90.2091 128.472   4
   7   1  14 88.6895 145.380  12
   7  -1  14 354.519 158.075  12
   7   1  14 210.645 142.110  11
   7  -1  14 161.398 141.921  11
  -7   1  14 212.607 144.576   9
  -7  -1  14-41.1138 136.764   9
   7  -1  14 257.892 139.103   4
   7   1  14-117.176 148.125   4
   7   1  15-95.7716 139.459  12
   7  -1  15-36.2280 133.864  12
   7   1  15-124.994 139.238  11
   7  -1  15-121.144 145.797  11
  -7   1  15 89.4527 147.378   9
  -7  -1  15-31.7275 146.384   9
   7  -1  15 48.9491 125.066   4
   7   1  15-100.207 136.376   4
   7  -1  16 731.220 160.580   4
   7   1  16 1123.57 181.518  12
   7  -1  16 901.725 173.025  12
   7   1  16 739.535 165.162  11
   7  -1  16 674.519 175.866  11
  -7   1  16 755.679 170.458   9
  -7  -1  16 522.218 158.335   9
   7   1  16 902.701 185.808   4
   7  -1  17 402.112 144.956   4
   7   1  17 437.956 147.583  12
   7  -1  17 581.724 148.304  12
   7   1  17 141.020 125.423  11
   7  -1  17 699.596 150.353  11
  -7   1  17 845.573 160.260   9
  -7  -1  17 524.652 143.359   9
   7   1  17 540.713 144.413   4
   7   1  18 477.327 131.636  12
   7  -1  18 246.543 119.574  12
   7   1  18 68.1216 110.874  11
   7  -1  18 176.694 114.773  11
  -7   1  18 267.285 126.082   9
  -7  -1  18 186.005 117.894   9
   7   1  18 229.657 119.842   4
   7  -1  18 155.970 114.870   4
   7   1  19 163.595 103.448  11
   7  -1  19 160.818 99.2307  11
  -7  -1  19 91.2414 99.4004   9
   7  -1  19 476.952 117.307   4
   7   2   0 12.6791 82.0732   1
   7   2   1 40265.4 505.905   1
   7   2  -1 40277.1 527.001   1
   7   2   2 9890.09 252.562   1
   7   2  -2 10374.5 282.071   1
   7   2  -3 4460.42 195.628   1
   7   2  -4 1863.86 146.724   1
   7   2  -5 41204.6 589.489   1
   7  -2  -5 42338.0 589.397   1
   7   2  -6 252.686 92.1474   1
   7  -2  -6 418.696 103.920   1
   7   2   6 487.389 91.7976  16
   7   2  -7 2294.48 167.058   1
   7  -2  -7 2330.32 162.127   1
   7   2   7 2129.88 160.512  16
   7  -2   8 862.296 126.342  16
   7   2  -8 806.927 123.267   1
   7   2   8 991.017 125.151  16
   7   2   9 14795.6 409.361  16
   7  -2   9 15481.7 426.794  16
   7   2  10-28.1666 102.097  16
   7  -2  10 158.154 105.283  16
   7  -2  11 5766.58 295.347  16
   7   2  12 593.457 132.758  12
  -7   2  12 370.001 118.102   5
  -7   2  12 441.000 130.106   9
   7   2  12 753.826 152.743   4
  -7  -2  12 734.772 145.819   9
   7  -2  12 373.047 125.447  16
   7   2  13 3.56435 138.110   4
   7   2  13 238.241 157.991  12
   7   2  13 162.968 137.323  11
  -7   2  13 62.1743 117.354   5
  -7   2  13-72.9560 143.059   9
  -7  -2  13 191.824 149.128   9
   7   2  14 221.854 146.618  12
   7   2  14 20.6159 133.667  11
   7   2  14 31.6312 130.787   4
  -7   2  14 162.781 149.464   9
  -7  -2  14-30.1098 150.063   9
   7  -2  14 238.036 135.344   4
   7   2  15 1338.27 189.655  12
   7  -2  15 911.169 176.525  12
   7   2  15 1267.98 186.412  11
   7  -2  15 852.448 178.405  11
  -7   2  15 873.643 171.952   9
  -7  -2  15 1237.18 182.655   9
   7   2  15 972.629 183.606   4
   7  -2  15 1085.41 176.503   4
   7   2  16 138.042 141.015  12
   7  -2  16-80.6562 128.539  12
   7   2  16-74.6130 132.693  11
   7  -2  16-23.2969 142.417  11
  -7   2  16-128.617 142.357   9
  -7  -2  16-40.0872 130.453   9
   7   2  16 45.8531 125.957   4
   7  -2  16-175.187 132.355   4
   7   2  17-82.6381 129.399  12
   7   2  17-68.4636 119.613  11
   7  -2  17-135.859 131.620  11
   7  -2  17-32.4864 125.164   4
  -7   2  17 44.8366 131.742   9
  -7  -2  17 77.0798 126.170   9
   7   2  17 228.245 150.787   4
   7   2  18 215.111 112.437  11
   7  -2  18 74.6869 108.065  11
  -7   2  18 137.207 115.962   9
  -7  -2  18-18.6608 107.793   9
   7  -2  18-129.789 111.794   4
   7  -2  19 259.232 104.450  11
  -7  -2  19-15.6853 95.6562   9
   7  -2  19 272.114 104.556   4
   7   3   0-84.2866 82.3421   1
   7   3   1 1030.21 109.952   1
   7   3  -1 1096.38 115.022   1
   7   3   2 4054.56 175.378   1
   7   3  -2 4200.38 197.099   1
   7   3  -3 55095.6 665.772   1
   7   3  -4 3305.27 185.404   1
   7   3  -5 121672. 1023.26   1
   7   3  -6 8928.51 300.258   1
   7  -3  -6 9090.85 293.091   1
   7   3  -7 386.827 110.014   1
   7   3   7 427.468 90.6864  16
   7   3  -8 153.534 101.688   1
   7   3   8 157.527 82.4176  16
   7   3   9 14001.7 399.664  16
   7  -3   9 15081.5 431.804  16
   7  -3  10 157.490 112.862  16
   7  -3  11 6091.90 306.173  16
   7   3  12-15.9598 133.035  12
  -7   3  12-37.1686 121.928   5
  -7   3  12 121.322 130.323   9
  -7  -3  12 66.7402 133.110   9
   7  -3  12-28.6487 122.702  21
   7   3  12 162.318 141.272   4
   7   3  13 1482.32 200.496  12
   7   3  13 1432.82 193.682  11
  -7   3  13 1156.67 182.178   5
  -7  -3  13 1643.98 214.236  10
  -7   3  13 1740.32 209.420   9
  -7  -3  13 1518.44 205.562   9
   7   3  13 1632.94 203.939   4
   7  -3  13 1359.37 195.170  21
   7   3  14 205.758 151.101  12
   7   3  14 347.715 145.999  11
  -7   3  14 703.335 164.371   5
  -7  -3  14 293.214 163.676  10
  -7   3  14 260.755 148.981   9
  -7  -3  14 459.423 158.767   9
   7   3  14 424.457 156.940   4
   7   3  15 334.222 148.648  12
   7   3  15 192.231 137.049  11
  -7  -3  15 143.782 150.793  10
  -7   3  15 334.511 140.341   9
  -7  -3  15 142.051 136.534   9
   7   3  15 543.016 161.699   4
   7   3  16-74.7572 136.573  12
   7   3  16-129.655 138.274  11
   7  -3  16 0.74081 129.815  11
  -7  -3  16-260.740 158.786  10
  -7   3  16-191.174 143.625   9
  -7  -3  16 22.7986 129.935   9
   7   3  16 145.162 135.622   4
   7   3  17 1585.54 186.273  12
   7   3  17 1280.61 169.510  11
   7  -3  17 1402.81 175.234  11
  -7   3  17 1269.11 168.905   9
  -7  -3  17 1082.60 165.921   9
   7   3  17 1737.63 192.001   4
   7  -3  18 56.6766 107.560  11
  -7   3  18-104.655 107.962   9
  -7  -3  18 63.3870 107.338   9
   7  -3  19 926.948 128.512  11
   7   4   0-98.6675 91.6723   1
   7   4   1 6660.48 230.779   1
   7   4  -1 6304.11 232.614   1
   7   4   2 46190.1 557.465   1
   7   4  -2 44350.3 601.102   1
   7   4  -3 3395.32 189.152   1
   7   4  -4 4925.91 229.398   1
   7   4  -5 43380.5 637.693   1
   7   4  -6 10680.3 327.619   1
   7   4  -7 18.0094 94.8769   1
   7   4  -8 9676.03 332.478   1
   7  -4   9 5259.31 269.361  16
   7  -4  10 5.70754 98.4363  16
   7  -4  11 1484.85 167.208  16
   7   4  12 5126.17 292.834  12
  -7   4  12 4365.18 258.698   5
  -7  -4  12 4822.79 268.764   9
   7   4  12 4394.44 283.484   4
   7  -4  12 4739.21 289.614  21
   7   4  13 43.3707 141.038  12
  -7   4  13-160.304 138.609   5
  -7  -4  13 219.889 142.573   9
   7   4  13 180.270 148.572   4
   7  -4  13-103.574 141.767  21
   7   4  14-83.5564 137.779  12
   7   4  14 105.103 137.190  11
  -7   4  14-93.1966 130.117   5
  -7  -4  14-7.56333 152.038  10
  -7  -4  14-69.6525 146.349   9
   7   4  14 193.565 144.065   4
   7   4  15 447.544 158.924  12
   7   4  15 237.214 139.659  11
  -7  -4  15 269.007 155.330  10
  -7   4  15 465.959 148.675   9
  -7  -4  15 482.017 153.387   9
   7   4  15 716.164 185.569   4
   7   4  16 130.280 136.566  12
   7   4  16 74.9235 124.092  11
   7  -4  16-62.6022 129.722  11
  -7  -4  16 117.171 143.031  10
  -7   4  16 362.313 138.078   9
  -7  -4  16 29.6827 126.109   9
   7  -4  17 136.238 119.966  11
  -7  -4  17-136.016 136.779  10
  -7  -4  17-288.926 133.407   9
   7  -4  18 283.781 111.745  11
  -7  -4  18 429.461 131.135  10
  -7  -4  18 381.457 117.274   9
   7  -4  19 205.238 94.1825  11
   7   5   0-43.7671 85.1761   1
   7   5   1 5596.57 218.540   1
   7   5  -1 5871.76 237.138   1
   7   5   2 76786.4 741.526   1
   7   5  -2 76526.8 812.317   1
   7   5  -3 18255.8 411.769   1
   7   5  -4 46575.9 659.290   1
   7   5  -5 308.056 115.180   1
   7   5  -6 1311.75 151.210   1
   7   5  -7 1835.30 171.510   1
   7   5  -8 163.325 98.6795   1
   7  -5   9 367.275 114.962  16
   7  -5  10 16298.5 471.925  16
   7   5  11 2494.52 209.222  12
  -7   5  11 2425.21 202.482   5
   7   5  11 3170.28 244.540   4
   7  -5  11 2815.52 233.286  21
   7  -5  11 2646.68 218.343  16
   7   5  12 6398.36 327.723  12
  -7   5  12 6411.20 311.039   5
   7   5  12 6802.19 345.520   4
   7  -5  12 6215.71 339.973  21
   7   5  13 373.883 159.617  12
  -7   5  13 536.419 143.764   5
   7   5  13 853.564 181.173   4
   7  -5  13 596.530 171.438  21
   7  -5  14 198.952 138.548  21
   7   5  14 151.350 138.255  12
  -7   5  14 309.699 127.192   5
  -7  -5  14 448.488 167.778  10
   7   5  15 135.155 143.179  12
   7   5  15 68.2024 124.477  11
  -7   5  15 366.340 132.728   5
  -7  -5  15 181.191 153.221  10
  -7  -5  16 341.926 149.588  10
   7   5  16 910.384 176.967   4
   7  -5  17 173.729 127.970  11
  -7  -5  17 51.8780 122.263  10
   7  -5  18 199.504 105.429  11
  -7  -5  18 229.728 117.451  10
   7   6   0 34.5615 89.3691   1
   7   6   1 4943.03 216.095   1
   7   6  -1 4872.37 225.644   1
   7   6  -2 54469.5 713.229   1
   7   6  -3 119.678 105.085   1
   7   6  -4 1837.02 170.330   1
   7   6  -5 2797.12 197.931   1
   7   6  -6 192.458 107.912   1
   7   6  -7 1300.66 156.321   1
   7   6  -8 9316.50 353.824   1
   7  -6   9 5625.66 279.287  16
   7  -6  10 237.615 124.562  16
   7   6  11 1615.10 191.965  12
  -7   6  11 2042.59 199.877   5
   7  -6  11 2246.16 235.513  21
   7   6  12 2708.12 232.265  12
  -7   6  12 2889.88 235.346   5
   7   6  12 3194.76 263.287   4
   7  -6  12 2599.97 244.864  21
   7   6  13-371.056 154.419  12
  -7   6  13 42.9844 117.774   5
   7  -6  13-100.066 151.253  21
   7   6  14 178.755 143.199  12
   7  -6  14 29.7092 139.497  21
  -7   6  14-324.985 131.260   5
  -7  -6  14-106.517 163.053  10
  -7   6  15 90.8500 115.988   5
  -7  -6  15-71.9101 157.824  10
   7  -6  15 125.511 130.204  21
  -7  -6  16 227.022 139.509  10
   7  -6  17 30.9291 112.861  11
  -7  -6  17 187.817 122.999  10
   7  -6  18 169.537 93.3955  11
  -7  -6  18 256.335 110.653  10
   7   7   0-44.6162 100.055   1
   7   7   1 1631.25 149.638   1
   7   7  -1 1797.54 165.812   1
   7   7  -2 6051.97 262.810   1
   7   7  -3 5111.80 249.123   1
   7   7  -4 11948.8 381.219   1
   7   7  -5 45288.7 735.293   1
   7   7  -6 6588.48 300.193   1
   7   7  -7 37.3718 111.597   1
   7   7  -8 630.119 134.374   1
  -7   7  10 4195.88 254.033   5
   7  -7  10 4537.03 299.251  21
  -7   7  10 4218.03 262.411   8
  -7   7  11 1078.28 167.430   5
   7  -7  11 1688.42 214.477  21
   7   7  12 1026.92 181.638  12
  -7   7  12 893.634 160.336   5
   7  -7  12 1044.17 199.419  21
   7   7  13 1029.55 179.765  12
  -7   7  13 610.349 145.254   5
   7  -7  13 936.680 183.388  21
  -7   7  14-259.031 137.028   5
  -7  -7  14 176.279 154.067  10
   7  -7  14-74.2099 139.946  21
  -7   7  15 717.146 145.056   5
   7  -7  15 465.989 144.456  21
  -7  -7  15 549.903 162.403  10
  -7   7  16 203.851 124.328   5
  -7  -7  16 173.950 131.322  10
   7  -7  17 602.789 126.292  11
  -7  -7  17 488.664 128.750  10
   7   8   0 48.8013 94.9670   1
   7   8   1 13955.0 383.495   1
   7   8  -1 13927.6 405.379   1
   7   8  -2 1165.94 155.095   1
   7   8  -3 2688.80 203.563   1
   7   8  -4 6440.98 303.806   1
   7   8  -5 13945.0 434.135   1
   7   8  -6 288.826 122.893   1
   7   8  -7-145.890 108.455   1
   7   8  -8 726.773 141.749   1
   7  -8   9 4662.11 301.744  21
  -7   8   9 4969.43 287.150   8
  -7   8  10 91.9008 112.689   5
   7  -8  10 88.3467 148.012  21
  -7   8  11 318.750 131.176   5
   7  -8  11 194.510 144.735  21
  -7   8  12 1032.79 170.256   5
   7  -8  12 656.183 180.495  21
   7   8  13 101.683 125.375   6
  -7   8  13 163.620 122.731   5
   7  -8  13 289.192 153.662  21
   7   8  14 145.237 114.045   6
  -7   8  14 183.828 122.394   5
  -7  -8  14 170.815 150.789  10
   7  -8  14-146.555 148.263  21
  -7   8  15 529.339 126.979   5
  -7  -8  15 284.847 143.049  10
   7  -8  15 467.756 142.098  21
  -7   8  16 502.972 121.649   5
   7  -8  16 194.550 119.875  21
  -7  -8  16 456.558 132.644  10
   7  -8  17 204.774 100.203  11
  -7  -8  17 20.4945 97.8389  10
   7   9   0 25.1782 98.8388   1
   7   9   1 3039.53 213.481   1
   7   9  -1 3039.56 215.951   1
   7   9  -2 4358.32 255.000   1
   7   9  -3 25428.3 569.650   1
   7   9  -4 34.6592 108.610   1
   7   9  -5 6289.93 310.160   1
   7   9  -6 122.375 110.587   1
  -7   9   7 576.544 126.991  19
   7  -9   7 517.106 158.024  21
  -7   9   7 581.754 141.472   7
   7  -9   8 1739.50 212.233  21
  -7   9   8 1681.40 182.972  19
  -7   9   8 1586.00 196.730   8
  -7   9   8 1917.07 194.096   7
   7  -9   9 1554.11 222.872  21
  -7   9   9 1724.10 202.317   8
  -7   9   9 1385.06 190.434   7
  -7   9  10 952.410 163.406   5
   7  -9  10 793.447 182.207  21
  -7   9  11 3385.12 247.000   5
   7  -9  11 3734.62 285.771  21
  -7   9  12 2452.05 215.144   5
   7  -9  12 2702.86 246.844  21
   7   9  13 1069.73 168.121   6
  -7   9  13 768.033 139.135   5
   7  -9  13 840.774 175.560  21
   7   9  14 52.7525 108.346   6
  -7   9  14 218.174 119.092   5
  -7  -9  14-36.6187 129.765  10
   7  -9  14 154.442 132.695  21
   7  -9  15 21.5766 117.617  21
   7   9  15 124.991 106.949   6
  -7   9  15 23.1626 100.174   5
  -7  -9  15-12.1597 114.605  10
  -7   9  16 215.348 104.165   5
  -7  -9  16-57.0420 101.534  10
   7  -9  16 150.546 105.366  21
   7  10   0 86.2626 102.537   1
   7  10  -1 605.498 141.439   1
   7  10  -2 15926.3 475.650   1
   7  10  -3-24.9233 121.732   1
   7  10  -4 1989.00 200.975   1
   7 -10   5 952.885 164.892  21
  -7  10   5 769.447 133.837  19
  -7  10   5 903.546 160.357   7
   7 -10   6 5889.65 326.961  21
  -7  10   6 5768.86 284.840  19
  -7  10   6 6193.48 297.024   7
   7 -10   7-188.584 158.044  21
  -7  10   7-28.1295 116.103  19
  -7  10   7 20.0408 143.363   7
  -7  10   8 1938.37 205.306  19
   7 -10   8 2092.84 234.609  21
  -7  10   8 1712.51 200.346   7
  -7  10   8 2490.75 225.221   8
   7 -10   9-83.0087 149.262  21
  -7  10   9-89.1639 128.577   8
  -7  10   9 115.349 139.814   7
   7 -10  10-243.453 159.637  21
  -7  10  11 35.9423 108.125   5
   7 -10  11-125.907 145.918  21
   7  10  12 2030.88 188.248   6
  -7  10  12 1464.45 177.129   5
   7 -10  12 1719.11 209.792  21
   7  10  13 125.622 113.853   6
  -7  10  13 28.5618 102.323   5
  -7 -10  13-125.054 130.875  10
   7 -10  13-21.0368 144.881  21
   7  10  14 281.496 114.162   6
  -7  10  14 48.1915 99.2630   5
  -7 -10  14 117.990 119.261  10
   7 -10  14-11.4031 120.020  21
   7  10  15 70.1332 94.1817   6
  -7  10  15-76.6532 86.2620   5
  -7 -10  15 25.7267 105.485  10
   7 -10  15-7.42681 105.385  21
   7  11   0 25.4450 111.276   1
  -7 -11   0 2.53840 159.348  14
  -7  11   0-119.171 111.857   7
  -7  11   1 2322.22 204.132   7
  -7 -11  -1 2644.86 246.094  14
  -7 -11   1 2066.69 225.533  14
  -7 -11  -2 3380.23 270.886  14
  -7  11   2 3458.17 237.632   7
  -7 -11   2 3350.34 270.784  14
  -7 -11   3 542.290 188.470  14
  -7  11   3 698.861 137.047  19
  -7 -11  -3 843.524 193.861  14
  -7  11   3 787.176 170.922   7
  -7  11   4 5185.37 275.779  19
  -7  11   4 5311.51 286.021   7
  -7 -11   4 5350.80 305.511  14
  -7 -11  -4 5117.88 300.745  14
  -7  11   5 708.348 142.442  19
  -7  11   5 550.705 152.884   7
   7 -11   6 1066.66 177.653  21
  -7  11   6 1360.68 176.470  19
  -7  11   6 1328.50 182.680   7
   7 -11   7 1136.68 194.648  21
  -7  11   7 1495.49 177.800  19
  -7  11   7 1679.13 192.396   7
  -7 -11   7 1388.62 201.097   3
   7 -11   8 176.179 158.722  21
  -7  11   8 158.752 133.008  19
  -7  11   8-45.1942 119.476   8
  -7  11   8 8.87852 128.036   7
  -7 -11   8 224.747 168.604   3
   7 -11   9 540.195 164.019  21
  -7  11   9 888.503 164.818   8
  -7  11   9 657.845 165.535   7
   7 -11  10 3037.66 254.650  21
  -7  11  11 1225.52 159.896   5
   7 -11  11 1167.19 182.543  21
   7  11  12 1800.40 181.329   6
  -7  11  12 1436.32 163.943   5
   7 -11  12 1663.86 195.791  21
   7 -11  13 552.090 138.085  21
   7  11  13 559.063 123.181   6
  -7  11  13 525.096 117.411   5
  -7 -11  13 609.181 142.068  10
   7  11  14-37.4739 97.6788   6
  -7  11  14 36.5529 84.3380   5
  -7 -11  14 8.28311 105.739  10
   7 -11  14-34.7032 100.374  21
  -7  11  15 354.732 96.5040   5
  -7 -12   0-18.9809 160.409  14
  -7  12   0-72.7391 135.739   7
  -7 -12   0-91.7890 166.759   3
  -7  12   1 686.329 151.962   7
  -7 -12  -1 916.300 191.352   3
  -7 -12   1 571.366 184.114   3
  -7  12   2 98.7219 107.999  19
  -7  12   2 186.165 143.405   7
  -7 -12   2 13.1815 180.378   3
  -7  12   3 35.8647 112.162  19
  -7  12   3 49.7701 140.688   7
  -7 -12   3 5.46945 179.853   3
  -7  12   4-14.0450 137.059   7
  -7  12   4 157.855 116.421  19
  -7 -12   4-137.209 181.247   3
  -7  12   5 2266.89 210.558  19
  -7  12   5 2453.58 222.634   7
  -7 -12   5 2209.50 240.617   3
   7 -12   6 372.369 164.585  21
  -7  12   6 317.238 129.683  19
  -7  12   6 25.5729 129.815   7
  -7  12   7 477.045 140.304  19
  -7  12   7 615.615 160.422   7
   7 -12   7 502.972 158.445  21
  -7 -12   7 668.340 176.267   3
  -7  12   8-34.3258 116.042  19
  -7  12   8 15.5918 121.932   8
  -7  12   8-18.9729 126.068   7
  -7 -12   8-255.782 168.261   3
   7 -12   8 81.2027 148.714  21
   7 -12   9 870.383 177.856  21
  -7  12   9 694.779 149.059   8
  -7  12   9 825.792 163.422   7
  -7  12  10 75.1234 114.159   5
   7 -12  10-11.6720 136.674  21
  -7  12  10 74.8375 123.788   7
   7  12  11 1081.95 152.035   6
  -7  12  11 1195.18 151.272   5
   7 -12  11 1018.27 166.698  21
   7  12  12-46.7613 104.819   6
  -7  12  12 78.7896 102.755   5
  -7 -12  12 26.9946 115.356  10
   7 -12  12-44.7576 113.628  21
   7  12  13-146.362 95.3069   6
  -7  12  13 25.3272 85.7254   5
  -7 -12  13 10.3958 107.832  10
   7 -12  13 1.06838 105.571  21
  -7  12  14-53.0579 79.3642   5
  -7  13   0-2.86152 130.011   7
  -7 -13   0 192.798 178.061   3
  -7  13   1-54.8929 116.983  19
  -7  13   1-251.243 135.454   7
  -7 -13  -1-224.635 161.568   3
  -7 -13   1 138.650 158.442   3
  -7  13   2-41.7931 111.372  19
  -7  13   2 39.2881 145.874   7
  -7 -13   2 20.5043 166.461   3
  -7  13   3 1048.38 154.233  19
  -7  13   3 1181.85 180.278   7
  -7 -13   3 1257.66 203.673   3
  -7 -13   4 4504.20 292.862   3
  -7  13   4 4036.99 252.286  19
  -7  13   4 4107.21 257.679   7
  -7  13   5 598.559 139.605  19
  -7  13   5 774.732 164.728   7
  -7 -13   5 641.045 192.422   3
  -7 -13   6 3057.94 250.899   3
  -7  13   6 2397.96 205.096  19
  -7  13   6 2760.21 225.227   7
   7 -13   7 345.480 154.655  21
  -7  13   7 75.4491 115.182  19
  -7  13   7 130.468 121.429   8
  -7 -13   7 477.171 162.226   3
  -7  13   7 320.513 138.077   7
  -7  13   8 251.765 121.286  19
  -7 -13   8 481.962 162.756   3
   7 -13   8 137.197 130.670  21
  -7  13   8 625.923 139.076   8
  -7  13   8 671.448 153.536   7
   7 -13   9 531.695 145.326  21
  -7  13   9 976.361 151.746   8
  -7  13   9 740.177 147.605   7
   7  13  10 632.180 126.798   6
  -7  13  10 888.294 137.151   5
   7 -13  10 484.106 140.668  21
  -7  13  10 758.048 143.658   7
   7  13  11 165.864 93.3989   6
  -7  13  11 218.189 101.777   5
   7 -13  11 231.505 119.965  21
   7  13  12 88.8276 90.8517   6
  -7 -13  12 104.847 104.351  10
  -7  13  12-2.61686 77.2528   5
   7 -13  12 116.267 99.0063  21
  -7 -14   0-132.444 155.962   3
  -7  14   1 14.8391 102.217  19
  -7 -14  -1 179.954 157.546   3
  -7 -14   1 502.686 181.828   3
  -7  14   1 155.724 127.525   7
  -7 -14   2 1577.10 209.200   3
  -7  14   2 1558.47 166.563  19
  -7  14   2 1505.83 180.884   7
  -7  14   3 97.8669 109.486  19
  -7 -14   3-6.09676 172.642   3
  -7  14   3 70.5383 135.752   7
  -7  14   4 1702.97 188.517   7
  -7  14   4 1531.65 176.438  19
  -7 -14   4 1596.97 205.049   3
  -7 -14   5 686.275 172.464   3
  -7  14   5 745.486 134.878  19
  -7  14   5 789.358 150.430   7
  -7  14   6 551.075 130.604  19
  -7 -14   6 549.516 164.456   3
  -7  14   6 339.788 139.865   7
   7 -14   7-134.447 119.162  21
  -7  14   7-76.1243 109.859  19
  -7  14   7-193.705 121.189   8
  -7 -14   7-82.0633 147.487   3
  -7  14   7 24.3063 117.748   7
   7 -14   8 986.246 162.438  21
  -7  14   8 919.167 139.188   8
  -7 -14   8 647.098 145.732   3
  -7  14   8 568.406 131.346   7
   7  14   9-248.496 108.520   6
   7 -14   9-30.2220 114.412  21
   7  14  10-172.848 96.2679   6
  -7  14  10 51.0120 82.9860   5
   7 -14  10-20.3317 105.422  21
   7  14  11 12.4617 87.6193   6
  -7  14  11-27.3578 78.8423   5
   7 -14  11 51.8263 94.7177  21
  -7  15   0 152.543 103.517  19
  -7 -15   0 50.8984 144.085   3
  -7  15   1 1513.05 157.351  19
  -7 -15  -1 1843.62 197.729   3
  -7 -15   1 1527.91 193.464   3
  -7  15   1 1492.37 174.265   7
  -7  15   2 899.053 139.239  19
  -7 -15   2 737.928 173.794   3
  -7  15   2 948.781 153.906   7
  -7  15   3 3761.10 219.590  19
  -7  15   3 3850.38 229.773   7
  -7 -15   3 3221.29 235.455   3
  -7  15   4 11.3644 102.102  19
  -7 -15   4 222.145 155.665   3
  -7  15   4 253.318 123.849   7
  -7  15   5-180.452 111.809  19
  -7 -15   5 106.427 140.291   3
  -7  15   5-1.43470 116.568   7
  -7  15   6 8.31191 90.2991  19
  -7 -15   6 151.343 130.495   3
  -7  15   6-95.7933 123.567   8
  -7  15   6 325.026 116.040   7
  -7  15   7-22.8587 83.4247  19
  -7  15   7-124.144 109.099   8
  -7 -15   7-56.5974 121.315   3
  -7  15   7 161.056 108.485   7
   7  15   8 139.504 102.268   7
   7  15   8-91.1324 101.294   6
  -7 -15   8 3.28760 114.658   3
  -7  15   8 115.066 96.4856   8
  -7  15   8-91.6345 96.6620   7
   7 -15   8 241.008 110.445  21
   7  15   9-61.5551 84.3973   6
  -7  15   9-68.3921 80.9858   5
   7 -15   9 15.3539 95.7064  21
  -7  16   0-85.6658 93.4368  19
  -7 -16   0-68.5179 127.554   3
  -7 -16  -1 759.431 146.794   3
  -7  16   1 855.887 125.514  19
  -7 -16   1 612.737 140.712   3
  -7  16   1 694.328 125.665   7
  -7  16   2 869.085 129.214  19
  -7 -16   2 594.482 148.525   3
  -7  16   2 729.326 132.537   7
  -7  16   3 206.372 95.5242  19
  -7 -16   3 102.676 121.719   3
  -7  16   3 118.493 112.114   7
  -7  16   4-18.9517 92.2565  19
  -7 -16   4 51.9051 128.129   3
  -7  16   4-180.630 101.876   7
  -7  16   5 55.5566 81.4259  19
  -7 -16   5 191.357 118.635   3
  -7  16   5 46.5855 95.3413   8
  -7  16   5 34.8519 94.1249   7
   7  16   6 44.2538 102.267   7
  -7  16   6-6.58995 80.5641  19
  -7 -16   6-6.30644 103.292   3
  -7  16   6-70.7958 87.3533   8
  -7  16   6-58.3170 94.1820   7
  -7  16   7 348.323 99.4691   7
  -7 -17   0-91.3001 107.587   3
  -7 -17   1 23.9018 108.764   3
  -7 -17   2 127.633 110.323   3
   7  17   3 72.4939 87.1014   7
  -7 -17   3-12.8548 98.8569   3
   8   0   0 29783.9 475.678   1
   8   0  -1-10.8106 89.7425   1
   8   0   1-33.0847 82.8364   1
   8   0  -2 32936.6 518.654   1
   8   0   2 33965.5 488.024   1
   8   0  -3 198.256 95.4203   1
   8   0  -4 29570.9 521.417   1
   8   0  -5-70.9805 94.9761   1
   8   0  -6 101544. 979.580   1
   8   0  -7 71.3670 96.3392   1
   8   0   7 37.9881 88.4199  16
   8   0   8 34280.0 622.068  16
   8   0   9-13.5613 96.5317  16
   8   0  10 10010.7 374.568  16
   8   0  11-62.3201 115.024  16
   8   0  12 471.486 155.430   4
  -8   0  12 316.626 157.446   9
  -8   0  12 542.183 145.614   8
   8   0  13-37.4457 129.188  11
  -8   0  13-97.6499 151.843   9
   8   0  13 80.5319 138.051   4
   8   0  14 392.553 156.981  12
   8   0  14 234.139 145.220  11
  -8   0  14 591.880 162.839   9
   8   0  14 653.713 162.175   4
   8   0  15-154.471 144.935  12
   8   0  15 98.9219 134.576  11
  -8   0  15-156.173 145.880   9
   8   0  15 177.000 133.316   4
   8   0  16 7026.13 328.775  12
   8   0  16 6864.56 325.152  11
  -8   0  16 7289.37 325.455   9
   8   0  16 6312.67 319.556   4
   8   0  17-237.667 131.740  12
   8   0  17 156.734 115.592  11
  -8   0  17 96.3109 120.148   9
   8   0  17-24.1507 108.222   4
   8   0  18 210.561 112.045  12
   8   0  18 378.811 115.612  11
  -8   0  18 319.322 116.087   9
   8   0  18 521.929 122.978   4
   8   0  19 83.5839 87.2916  11
  -8   0  19 20.9978 87.9068   9
   8   1   0 15640.9 350.832   1
   8  -1   0 15238.9 349.722   1
   8   1  -1 693.848 116.240   1
   8  -1  -1 490.147 110.152   1
   8   1   1 644.025 106.168   1
   8  -1   1 516.869 106.501   1
   8  -1   2 845.055 113.914   1
   8   1  -2 798.202 121.265   1
   8   1   2 829.561 108.754   1
   8  -1  -2 768.385 120.125   1
   8   1  -3 39.6635 88.9244   1
   8  -1   3 12.6813 82.0202   1
   8  -1  -3 90.0489 90.2221   1
   8   1  -4 5953.34 245.631   1
   8  -1  -4 6148.63 246.465   1
   8  -1  -5 1105.37 135.039   1
   8   1  -5 1117.89 136.749   1
   8   1  -6 1732.21 157.471   1
   8  -1  -6 1983.94 179.781   1
   8  -1  -7 159.171 95.4423   1
   8   1  -7 200.191 102.002   1
   8   1   7 192.119 87.4441  16
   8   1   8 691.464 126.748  16
   8   1  -8 671.175 126.215   1
   8  -1   8 810.735 138.877  16
   8   1   9 208.411 104.125  16
   8  -1   9 259.942 114.806  16
   8   1  10 1391.77 164.381  16
   8  -1  10 1445.00 166.152  16
   8   1  11 888.345 151.713  16
   8  -1  11 1091.07 159.746  16
   8   1  12 1238.14 179.048  11
   8  -1  12 1061.34 183.318  21
  -8   1  12 948.044 176.500   9
  -8  -1  12 1116.70 175.783   9
  -8   1  12 984.164 169.417   8
  -8  -1  12 937.203 173.727   8
   8   1  12 1271.30 193.875   4
   8   1  13 134.227 148.677  12
   8   1  13 354.208 145.955  11
   8  -1  13-29.9023 133.996   4
  -8   1  13 123.734 137.809   9
  -8  -1  13-48.7084 144.275   9
   8   1  13-135.367 135.692   4
   8   1  14 1534.10 194.863  12
   8  -1  14 1808.23 208.294  12
   8   1  14 1331.80 191.422  11
   8  -1  14 1566.16 191.549  11
  -8   1  14 1415.33 200.475   9
  -8  -1  14 1318.53 200.467   9
   8   1  14 1366.49 199.015   4
   8  -1  14 1506.55 188.533   4
   8   1  15 219.253 150.411  12
   8  -1  15 413.355 149.775  12
   8   1  15 163.092 137.612  11
   8  -1  15 101.216 134.628  11
  -8   1  15 99.3764 144.929   9
  -8  -1  15 176.103 153.809   9
   8   1  15 352.000 141.755   4
   8  -1  15 285.541 140.228   4
   8   1  16 181.215 135.844  12
   8  -1  16 74.7950 136.871  12
   8   1  16-60.8370 134.191  11
   8  -1  16 97.3102 134.845  11
  -8   1  16 143.355 143.166   9
  -8  -1  16 308.607 150.553   9
   8   1  16 64.3223 132.514   4
   8  -1  16-32.4315 122.227   4
   8   1  17-119.486 126.079  12
   8  -1  17-133.823 123.630  12
   8   1  17-26.5417 119.477  11
   8  -1  17-88.9313 116.001  11
  -8   1  17-91.5866 123.211   9
  -8  -1  17-94.6816 127.982   9
   8   1  17 243.452 130.617   4
   8  -1  17-108.546 116.045   4
   8   1  18-126.384 109.120  12
   8  -1  18-20.7124 105.645  12
   8   1  18-46.7675 105.326  11
   8  -1  18 56.0018 102.997  11
  -8   1  18 46.9826 103.193   9
  -8  -1  18-21.2129 103.382   9
   8  -1  18 204.170 117.338   4
  -8  -1  19 225.981 98.3800   9
   8   2   0 932.196 119.555   1
   8   2   1 108946. 894.431   1
   8   2  -1 107435. 927.113   1
   8   2   2 6901.50 232.332   1
   8   2  -2 7053.71 259.864   1
   8   2  -3 37517.2 576.271   1
   8  -2  -3 37823.2 579.126   1
   8  -2  -4 1172.26 138.049   1
   8   2  -4 1092.13 134.690   1
   8   2  -5 10013.2 325.042   1
   8  -2  -5 9995.37 319.664   1
   8   2  -6 17640.2 426.048   1
   8  -2  -6 16918.5 411.307   1
   8   2   6 16701.6 391.172  16
   8   2  -7 2504.73 181.256   1
   8  -2  -7 2636.34 180.238   1
   8   2   7 2423.25 171.983  16
   8   2  -8 9012.50 326.784   1
   8   2   8 9013.23 319.270  16
   8  -2   8 9571.42 343.114  16
   8   2   9 24371.0 544.263  16
   8  -2   9 26513.7 584.229  16
   8  -2  10 32.9924 100.317  16
   8   2  10-233.631 125.781  16
   8   2  11 3127.68 232.270  16
   8  -2  11 3921.50 260.202  16
  -8   2  12 176.080 124.705   5
   8  -2  12 76.0887 144.951  21
  -8   2  12-166.206 148.368   9
  -8  -2  12-146.493 154.024   9
   8   2  12 12.3598 132.143   4
   8   2  13 14480.0 460.385  12
  -8   2  13 14145.8 441.570   9
  -8  -2  13 13974.1 442.633   9
   8   2  13 13433.5 464.728   4
   8  -2  13 13414.7 468.684  21
   8   2  14 352.930 150.998  12
   8   2  14 31.7973 130.260  11
  -8   2  14 355.052 147.762   9
  -8  -2  14 23.0689 136.486   9
   8   2  14 366.033 158.956   4
   8   2  15 2648.66 232.197  12
   8  -2  15 3110.70 239.322  12
   8   2  15 2562.96 220.554  11
   8  -2  15 2794.81 237.120  11
  -8   2  15 2568.76 225.522   9
  -8  -2  15 2547.83 228.097   9
   8   2  15 2879.50 239.998   4
   8   2  16 867.668 174.674  12
   8  -2  16 1027.71 168.016  12
   8   2  16 688.297 161.311  11
   8  -2  16 506.541 148.981  11
  -8   2  16 628.182 152.612   9
  -8  -2  16 523.393 146.065   9
   8   2  16 978.827 170.183   4
   8   2  17 134.668 119.492  12
   8  -2  17-24.0681 114.088  12
   8   2  17-170.941 119.206  11
   8  -2  17 50.5599 110.005  11
  -8   2  17 43.9883 113.257   9
  -8  -2  17 5.64560 112.470   9
   8   2  17 329.973 128.959   4
   8   2  18-76.5467 102.043  12
   8   2  18 27.3840 102.306  11
   8  -2  18-1.11822 94.1566  11
  -8   2  18 75.7573 105.940   9
  -8  -2  18-12.0985 101.257   9
   8   3   0 15993.7 367.236   1
   8   3   1 457.396 96.1962   1
   8   3  -1 504.892 106.395   1
   8   3   2 246.380 84.9190   1
   8   3  -2 388.144 102.769   1
   8   3  -3 893.111 129.568   1
   8   3  -4 39.6897 99.1676   1
   8   3  -5 292.401 109.618   1
   8  -3  -5 95.9236 102.681   1
   8   3  -6 4851.62 243.534   1
   8  -3  -6 5166.69 246.606   1
   8   3  -7 5196.17 255.971   1
   8  -3  -7 4980.99 243.756   1
   8   3  -8-104.921 96.4167   1
   8   3   9 931.542 139.956  16
   8  -3   9 1149.62 158.657  16
   8   3  10 250.584 101.933  16
   8  -3  10 4.76763 100.406  16
   8  -3  11 304.009 134.077  21
  -8   3  11 78.0406 101.997   5
   8   3  11 163.274 123.539   4
  -8   3  11 280.865 134.647   9
  -8  -3  11 152.699 130.306   9
  -8   3  11 122.223 107.353   8
   8   3  12-98.4185 147.387  12
  -8   3  12 131.780 125.435   5
  -8   3  12-156.759 153.256   9
   8   3  12-62.4820 131.491   4
  -8  -3  12-118.564 146.878   9
   8  -3  12-124.884 147.874  21
   8   3  13-122.044 154.207  12
  -8   3  13 239.282 137.579   5
  -8   3  13 171.419 143.246   9
  -8  -3  13 36.3025 133.082   9
   8   3  13 133.534 161.562   4
   8  -3  13 65.7893 138.714  21
   8   3  14 809.738 170.110  12
  -8   3  14 150.273 134.234   9
  -8  -3  14 23.8878 136.239   9
   8  -3  14 507.546 156.343  21
   8   3  14 541.730 166.491   4
   8   3  15 836.744 171.285  12
   8  -3  15 1133.64 180.629  12
   8   3  15 565.220 155.331  11
  -8   3  15 777.913 164.565   9
  -8  -3  15 963.441 174.109   9
   8   3  15 940.528 186.988   4
   8   3  16 111.799 129.045  12
   8  -3  16 33.1646 123.877  12
   8   3  16 95.1774 118.092  11
   8  -3  16 253.883 132.623  11
  -8   3  16-165.779 132.486   9
  -8  -3  16 46.6960 127.405   9
   8   3  16 290.669 151.632   4
   8   3  17 162.737 127.955  12
   8   3  17 51.1320 111.492  11
   8  -3  17 11.9203 105.569  11
  -8   3  17-129.033 114.905   9
  -8  -3  17 1.09617 114.092   9
   8  -3  18-1.70720 92.0952  11
  -8   3  18-43.7777 102.267   9
  -8  -3  18 17.9734 101.178   9
   8   4   0 22254.5 438.934   1
   8   4   1 56551.3 679.989   1
   8   4  -1 57284.8 714.450   1
   8   4   2 32065.3 503.987   1
   8   4  -2 31892.7 550.298   1
   8   4  -3 17715.2 424.513   1
   8   4  -4 30842.0 563.786   1
   8   4  -5 11784.6 363.773   1
   8   4  -6 41912.6 685.206   1
   8  -4  -6 43417.2 681.948   1
   8   4  -7 3871.97 228.686   1
   8   4  -8 16792.5 452.845   1
   8  -4   9 18396.4 503.169  16
   8  -4  10 2950.84 222.243  16
   8   4  11 1665.84 192.094  12
  -8   4  11 1803.23 185.250   5
   8   4  11 1564.87 195.485   4
  -8  -4  11 1771.44 183.032   9
  -8   4  11 1843.46 192.839   8
   8  -4  11 1699.76 210.722  21
   8   4  12 53.6783 142.197  12
  -8   4  12-71.6446 128.207   5
   8  -4  12 30.0720 144.729  21
   8   4  12 248.388 144.949   4
  -8  -4  12 53.0286 139.042   9
   8   4  13 5340.90 298.833  12
  -8   4  13 5265.15 287.807   5
  -8  -4  13 5450.50 293.918   9
   8   4  13 5422.49 316.072   4
   8  -4  13 6281.98 332.521  21
   8   4  14-26.6393 143.208  12
  -8   4  14 432.589 134.933   5
  -8  -4  14 122.483 141.974  10
   8   4  14 216.302 157.711   4
  -8  -4  14 53.5455 144.324   9
   8  -4  14 189.119 149.385  21
   8   4  15 2585.39 231.821  12
  -8  -4  15 2563.08 214.125   9
   8   4  15 2823.35 245.301   4
   8   4  16 1206.12 181.305  12
   8  -4  16 1138.78 168.071  11
  -8  -4  16 1106.50 169.581  10
  -8  -4  16 1245.24 165.249   9
   8  -4  17-90.4414 108.971  11
  -8  -4  17-28.6334 111.992   9
   8  -4  18-75.4940 94.5037  11
  -8  -4  18 96.0113 93.7828   9
   8   5   0 30873.9 531.816   1
   8   5   1 998.582 124.839   1
   8   5  -1 1100.99 138.083   1
   8   5  -2 45.5223 99.5053   1
   8   5  -3 734.517 130.209   1
   8   5  -4 7404.63 290.199   1
   8   5  -5 289.978 117.899   1
   8   5  -6-58.5141 107.518   1
   8   5  -7 83.5653 119.893   1
   8   5  -8 2390.97 201.342   1
   8  -5   9 214.231 122.530  16
  -8   5  10-46.6434 116.036   5
   8   5  10 103.015 123.583   4
   8  -5  10 231.762 142.458  21
  -8   5  10 1.26568 105.431   8
   8  -5  10 165.024 121.636  16
   8   5  11-103.583 142.100  12
  -8   5  11 77.9440 114.254   5
   8   5  11-56.8319 145.619   4
  -8   5  11 117.934 137.410   8
   8  -5  11-52.2425 146.323  21
   8   5  12-1.72719 137.410  12
  -8   5  12-131.546 120.065   5
   8  -5  12-110.159 153.000  21
   8   5  13 434.477 158.450  12
  -8   5  13 259.334 134.022   5
   8   5  13 686.521 170.522   4
  -8  -5  13 315.521 146.219   9
   8  -5  13 359.676 166.793  21
   8   5  14 1769.06 205.009  12
  -8   5  14 1362.30 186.243   5
  -8  -5  14 1233.78 198.869  10
  -8  -5  14 1454.28 184.343   9
   8  -5  14 1541.78 197.795  21
   8  -5  15 175.590 135.145  21
   8   5  15 247.613 144.430  12
  -8  -5  15 32.7917 142.602  10
  -8  -5  15-105.560 134.083   9
   8   5  16 10.9590 122.414  12
   8  -5  16 93.2230 128.618  11
  -8  -5  16 119.865 131.686  10
   8  -5  17 159.281 109.174  11
  -8  -5  17-20.2751 112.948  10
   8  -5  18-111.735 95.3072  11
   8   6   0 378.544 116.525   1
   8   6   1 4559.13 222.673   1
   8   6  -1 4537.83 236.952   1
   8   6  -2 20175.0 470.788   1
   8   6  -3 9241.85 332.590   1
   8   6  -4 6080.87 284.095   1
   8   6  -5 231.325 117.823   1
   8   6  -6 46173.6 750.478   1
   8   6  -7 2073.05 190.223   1
   8   6  -8 27665.0 611.141   1
   8  -6   9 4148.11 272.147  21
   8  -6   9 3947.37 258.757  16
  -8   6  10 545.163 139.818   5
   8  -6  10 697.620 176.078  21
  -8   6  10 697.048 155.993   8
  -8   6  11 773.586 156.180   5
   8  -6  11 1103.50 193.131  21
  -8   6  11 1088.90 171.625   8
   8   6  12 203.206 137.730  12
  -8   6  12 204.049 126.780   5
   8  -6  12 183.544 149.474  21
   8  -6  13 875.724 176.194  21
   8   6  13 517.960 160.576  12
  -8   6  13 661.595 143.711   5
   8   6  14 871.497 167.933  12
  -8   6  14 706.650 151.464   5
  -8  -6  14 334.118 157.886  10
   8  -6  14 820.759 163.838  21
   8   6  15-47.8356 124.747  12
  -8   6  15 208.664 121.828   5
  -8  -6  15 70.9598 136.486  10
   8  -6  15-11.6654 124.636  21
  -8  -6  16 2683.68 210.394  10
   8  -6  17 373.604 115.503  11
  -8  -6  17 223.387 116.514  10
   8   7   0 102.535 91.5985   1
   8   7   1 1277.44 143.021   1
   8   7  -1 1016.08 142.778   1
   8   7  -2 908.437 140.441   1
   8   7  -3 1214.44 155.945   1
   8   7  -4 25.2964 122.869   1
   8   7  -5-70.1129 127.197   1
   8   7  -6 34.7964 123.190   1
   8   7  -7 999.467 164.016   1
   8  -7   8 46.9407 115.565  21
  -8   7   8 172.138 113.221   8
   8   7  -8 195.209 130.698   1
  -8   7   9 1098.59 157.392   5
   8  -7   9 921.106 180.406  21
  -8   7   9 1145.19 181.637   8
  -8   7  10 758.247 144.847   5
   8  -7  10 875.916 177.187  21
  -8   7  10 846.374 171.399   8
  -8   7  11 76.4659 120.778   5
   8  -7  11 246.958 162.140  21
  -8   7  11 386.254 134.862   8
  -8   7  12-3.32253 116.868   5
   8  -7  12-24.1382 140.981  21
   8   7  13 304.083 146.433  12
  -8   7  13 8.21572 111.851   5
   8  -7  13 262.484 147.039  21
  -8   7  14 288.528 114.776   5
  -8  -7  14 651.376 166.251  10
   8  -7  14 257.921 142.354  21
   8  -7  15 87.5958 125.367  21
  -8   7  15 470.648 132.196   5
  -8  -7  15 206.528 141.665  10
  -8  -7  16 184.428 117.481  10
   8  -7  16 173.337 110.925  21
   8  -7  17 44.0705 87.6754  11
  -8  -7  17 17.0211 102.524  10
   8   8   0 18499.4 475.417   1
   8   8  -1 52616.7 797.676   1
   8   8  -2 52.4670 110.944   1
   8   8  -3 6725.99 312.206   1
   8   8  -4 4852.18 276.204   1
   8   8  -5 3955.41 254.252   1
   8   8  -6 6.02007 108.901   1
   8  -8   7 461.767 140.569  21
  -8   8   7 444.620 118.618   8
  -8   8   7 352.242 129.093   7
   8  -8   8-91.1419 147.812  21
  -8   8   8 63.6823 118.225   8
  -8   8   8 166.613 133.960   7
  -8   8   9 8779.52 356.213   5
   8  -8   9 8613.16 390.239  21
  -8   8   9 9249.93 379.754   8
  -8   8  10 2298.81 206.547   5
  -8   8  10 2341.63 216.176   8
   8  -8  10 2337.56 235.455  21
  -8   8  11 1324.33 178.205   5
   8  -8  11 1068.28 193.877  21
  -8   8  11 1196.27 183.312   8
  -8   8  12 315.580 132.596   5
   8  -8  12 366.060 158.864  21
   8   8  13 5534.25 264.298   6
  -8   8  13 4773.18 271.245   5
   8  -8  13 4731.41 294.321  21
  -8   8  14 1486.40 161.716   5
  -8  -8  14 1332.93 183.543  10
   8  -8  14 1439.78 186.323  21
   8  -8  15 903.496 156.686  21
  -8   8  15 823.647 135.641   5
  -8  -8  15 654.699 147.058  10
  -8  -8  16-47.5091 106.871  10
   8  -8  16 70.4953 103.203  21
   8   9   0 1846.34 183.469   1
   8   9  -1 2059.19 199.002   1
   8   9  -2-32.1184 120.471   1
   8   9  -3-94.4605 121.286   1
   8   9  -4 163.736 119.821   1
   8   9  -5-37.8100 128.929   1
  -8   9   5 40.5807 111.465   7
   8  -9   6 148.470 149.032  21
  -8   9   6 342.303 143.694   7
   8  -9   7 675.289 168.989  21
  -8   9   7 776.615 147.073  19
  -8   9   7 1133.57 178.543   8
  -8   9   7 1000.11 171.827   7
   8  -9   8 363.879 163.417  21
  -8   9   8 422.438 148.181   8
  -8   9   8 406.394 156.505   7
   8  -9   9 86.1560 157.234  21
  -8   9   9 80.6219 123.883   8
  -8   9   9 113.842 133.029   7
  -8   9  10 804.413 158.250   5
  -8   9  10 763.084 161.022   8
   8  -9  10 740.814 172.972  21
  -8   9  11 195.659 128.803   5
   8  -9  11-52.6625 142.546  21
  -8   9  12 466.197 136.531   5
   8  -9  12 186.519 147.683  21
   8   9  13 29.5758 115.755   6
  -8   9  13 29.6196 98.7767   5
   8  -9  13 127.223 131.103  21
   8   9  14 259.389 108.805   6
  -8   9  14 70.8276 106.027   5
  -8  -9  14-45.1297 126.007  10
   8  -9  14 23.5862 123.780  21
   8  -9  15-63.9628 109.969  21
  -8   9  15 16.8458 92.1694   5
  -8  -9  15-21.2170 106.752  10
  -8  -9  16 86.8282 95.3545  10
   8  10   0 1347.01 172.152   1
  -8 -10   0 1808.17 204.695  14
  -8  10   1 3007.61 209.590   7
   8  10  -1 2761.05 227.612   1
  -8 -10  -1 2683.13 231.586  14
  -8 -10   1 2912.92 232.879  14
  -8  10   2 7154.98 308.581   7
   8  10  -2 6931.16 339.905   1
  -8 -10  -2 7088.25 341.684  14
  -8 -10   2 7593.29 352.486  14
  -8  10   3 6.93919 140.491   7
  -8 -10  -3-288.901 171.240  14
  -8 -10   3 51.7113 162.367  14
  -8  10   4 9434.91 354.926   7
  -8 -10  -4 9324.92 381.997  14
  -8 -10   4 9203.41 376.263  14
  -8  10   5 2713.37 222.136   7
   8 -10   6 8318.11 373.547  21
  -8  10   6 8362.14 333.261  19
  -8  10   6 7788.91 342.395   7
   8 -10   7 4445.18 297.281  21
  -8  10   7 4877.99 298.027   8
  -8  10   7 4743.17 264.054  19
  -8  10   7 4450.26 268.799   7
   8 -10   8 3805.79 279.779  21
  -8  10   8 4025.47 275.059   8
  -8  10   8 3864.06 243.914  19
  -8  10   8 3904.96 250.302   7
   8 -10   9 123.255 145.800  21
  -8  10   9 377.892 137.005   8
  -8  10   9 208.136 142.084   7
  -8  10  10 1910.02 185.353   5
   8 -10  10 1571.93 206.140  21
  -8  10  10 1759.27 194.012   8
  -8  10  11-51.6717 110.304   5
   8 -10  11-308.817 152.792  21
   8  10  12-51.3381 111.812   6
  -8  10  12-115.552 119.129   5
   8 -10  12 163.766 133.299  21
   8  10  13-1.19441 100.277   6
  -8  10  13 145.261 101.991   5
  -8 -10  13-13.8765 117.703  10
   8 -10  13 158.282 123.798  21
   8  10  14-63.0917 96.0744   6
  -8  10  14 15.4933 93.2315   5
  -8 -10  14-179.805 118.629  10
   8 -10  14-35.9210 108.197  21
  -8  10  15 726.221 115.546   5
  -8 -10  15 645.248 120.715  10
   8 -10  15 589.770 121.552  21
  -8  11   0 2645.74 209.468   7
  -8 -11   0 2583.97 246.067  14
  -8  11   1 345.429 150.630   7
  -8 -11  -1 548.599 186.677  14
  -8 -11   1 153.200 168.934  14
  -8  11   2 257.230 137.716   7
  -8 -11  -2 210.400 167.122  14
  -8 -11   2 33.7142 159.557  14
  -8  11   3-59.4644 139.295   7
  -8 -11  -3-299.251 165.978  14
  -8 -11   3-130.701 158.669  14
  -8  11   4 151.127 150.727   7
  -8 -11   4-18.0450 168.277  14
  -8 -11  -4 143.397 166.262  14
  -8  11   5 74.3795 107.340  19
  -8  11   5-48.8787 139.993   7
   8 -11   6-65.7611 134.844  21
  -8  11   6-47.9982 117.159  19
  -8  11   6 60.1604 147.035   7
   8 -11   7-73.3133 138.724  21
  -8  11   7 155.814 114.797  19
  -8  11   7 66.1311 119.655   8
  -8  11   7 269.491 148.646   7
   8 -11   8 5.58084 142.341  21
  -8  11   8 0.55211 127.284   8
  -8  11   8 256.872 141.853   7
  -8 -11   8 166.565 152.575   3
   8 -11   9 118.844 143.819  21
  -8  11   9 298.098 135.098   8
  -8  11   9 234.697 133.305   7
  -8  11  10 28.9334 104.394   5
   8 -11  10-83.2614 148.201  21
  -8  11  10 31.4905 120.821   8
  -8  11  11 186.945 107.360   5
   8 -11  11 369.523 139.130  21
   8  11  12-96.2189 105.296   6
  -8  11  12 50.9221 94.5654   5
   8 -11  12 17.4483 121.259  21
   8  11  13 11.1459 95.0737   6
  -8  11  13 21.4251 90.6647   5
  -8 -11  13 179.061 116.613  10
   8 -11  13 13.7034 105.606  21
   8  11  14 2.48012 87.0739   6
  -8  11  14 59.1756 82.3520   5
  -8 -11  14 62.6425 101.896  10
   8 -11  14-56.7478 92.6599  21
  -8 -12   0 4001.13 277.175   3
  -8  12   0 4469.24 255.991   7
  -8 -12   0 4144.72 300.847  14
  -8 -12  -1 2998.94 246.759   3
  -8  12   1 3058.20 229.986   7
  -8 -12   1 2972.07 265.256  14
  -8 -12  -1 3017.30 268.130  14
  -8  12   2 2454.78 217.768   7
  -8 -12   2 1956.35 237.441  14
  -8 -12  -2 1886.55 236.185  14
  -8  12   3 3562.81 250.604   7
  -8  12   4 212.045 143.490   7
  -8 -12   4 205.508 161.041   3
  -8  12   5 97.7721 113.892  19
  -8  12   5 113.476 136.981   7
  -8 -12   5 185.019 162.446   3
  -8  12   6 3390.38 233.450  19
  -8 -12   6 3500.50 271.145   3
  -8  12   6 3042.96 239.657   7
  -8  12   7 2193.16 217.465   8
   8 -12   7 1955.13 215.937  21
  -8  12   7 2062.93 190.075  19
  -8  12   7 1907.37 196.474   7
  -8 -12   7 2090.21 223.978   3
   8 -12   8 1376.39 184.681  21
  -8  12   8 1476.20 183.145   8
  -8  12   8 1740.88 184.996   7
  -8 -12   8 1428.73 187.430   3
  -8  12   9 1682.07 191.140   8
  -8  12   9 1607.63 187.810   7
   8 -12   9 1507.31 198.583  21
  -8  12  10 407.818 116.948   5
   8 -12  10 360.775 144.759  21
  -8  12  10 285.801 120.770   8
   8  12  11 186.513 113.104   6
  -8  12  11 283.338 104.293   5
   8 -12  11 317.764 124.730  21
   8  12  12 230.098 95.3034   6
  -8  12  12 130.262 88.4334   5
  -8 -12  12 175.619 114.674  10
   8 -12  12 0.16841 103.912  21
   8  12  13 614.552 103.937   6
  -8  12  13 840.306 114.293   5
   8 -12  13 799.295 127.519  21
  -8 -12  13 759.074 120.707  10
  -8 -13   0 301.433 180.934   3
  -8  13   1 289.377 138.507   7
  -8 -13  -1 539.725 182.407   3
  -8 -13   1 327.489 169.333   3
  -8  13   2 25.2807 125.462   7
  -8 -13   2-19.1482 167.510   3
  -8  13   3-106.439 128.395   7
  -8 -13   3 235.797 169.757   3
  -8  13   4 50.8774 107.333  19
  -8  13   4 189.733 145.159   7
  -8 -13   4 58.2550 170.759   3
  -8  13   5 235.934 110.232  19
  -8  13   5-24.4679 144.469   7
  -8 -13   5 95.6251 164.112   3
  -8  13   6 90.9838 106.964  19
  -8  13   6 152.812 124.433   8
  -8  13   6 25.0696 133.004   7
  -8 -13   6 120.838 146.849   3
   8 -13   7-109.979 128.547  21
  -8  13   7 23.5808 107.484  19
  -8  13   7-94.9566 123.770   8
  -8  13   7-111.050 132.064   7
  -8 -13   7-84.2407 148.797   3
   8 -13   8 187.024 131.272  21
  -8  13   8 92.1606 112.786   8
  -8  13   8 218.024 134.448   7
  -8 -13   8 252.005 145.818   3
  -8  13   9 22.3890 94.1598   5
   8 -13   9-147.017 128.016  21
  -8  13   9 7.36679 97.3549   8
   8  13  10-32.7338 100.673   6
  -8  13  10 39.8417 98.7170   5
   8 -13  10 1.03990 111.693  21
   8  13  11 102.763 88.4476   6
  -8  13  11-17.9077 81.5464   5
   8 -13  11 23.8143 99.9189  21
   8  13  12-43.9808 80.1991   6
  -8 -14   0 7355.36 327.971   3
  -8 -14  -1 4681.87 280.211   3
  -8 -14   1 4005.02 276.701   3
  -8  14   1 4342.76 250.687   7
  -8  14   2 340.302 129.812   7
  -8 -14   2 322.560 168.832   3
  -8  14   3-83.9005 119.437   7
  -8 -14   3 62.6305 163.684   3
  -8  14   4 1714.42 168.048  19
  -8  14   4 1676.11 181.357   7
  -8 -14   4 1708.64 202.384   3
  -8  14   5 268.290 103.437  19
  -8  14   5 328.119 128.077   7
  -8 -14   5 330.809 150.206   3
  -8 -14   6 315.153 153.260   3
  -8  14   6 330.446 110.695  19
  -8  14   6 222.500 112.284   8
  -8  14   6 199.811 129.005   7
  -8  14   7 940.871 144.073   8
  -8 -14   7 1019.53 169.501   3
  -8  14   7 805.826 140.596   7
   8 -14   8-97.8106 110.948  21
  -8  14   8-57.2311 96.8671   8
  -8 -14   8 23.9702 119.956   3
   8  14   9 695.445 114.220   6
  -8  14   9 705.543 114.464   5
   8 -14   9 554.573 124.583  21
  -8  14   9 628.938 121.068   8
   8  14  10 717.139 108.817   6
  -8  14  10 540.717 104.357   5
   8 -14  10 518.071 119.338  21
  -8 -15   0 74.1587 133.653   3
  -8 -15  -1 16.8921 139.281   3
  -8 -15   1-15.3099 148.235   3
  -8  15   1 110.567 111.230   7
  -8 -15   2-135.228 138.809   3
  -8  15   2 77.1674 117.001   7
  -8  15   3-92.5850 96.4591  19
  -8 -15   3 0.98134 135.481   3
  -8  15   3-60.9262 114.807   7
  -8  15   4-3.05396 97.0799  19
  -8 -15   4 87.6141 132.486   3
  -8  15   4-50.4352 103.117   7
  -8  15   5-141.277 95.6456  19
  -8  15   5-80.6345 114.112   8
  -8 -15   5-109.408 126.000   3
  -8  15   5-165.788 112.937   7
  -8  15   6-48.9413 88.9597  19
  -8  15   6 74.7791 92.0930   8
  -8 -15   6 21.2142 120.024   3
  -8  15   6-169.080 106.387   7
  -8  15   7 42.8029 98.2202   8
  -8 -15   7 184.367 119.722   3
   8  15   8 55.0040 85.8630   6
  -8  15   8 130.914 83.7485   5
  -8  15   8-7.57128 85.2346   8
  -8 -16   0 237.538 133.479   3
  -8 -16   1-51.7509 122.880   3
  -8 -16   2 359.202 126.191   3
  -8  16   3 1122.52 118.832  19
  -8 -16   3 1030.20 149.923   3
  -8  16   3 1194.13 136.537   7
  -8  16   4 130.750 79.9709  19
  -8 -16   4-53.0301 109.284   3
  -8  16   4-34.0352 85.2353   8
  -8 -16   5 281.702 111.583   3
  -8  16   5 154.970 92.3008   8
   9   0   0-64.9829 100.706   1
   9   0  -1-56.3540 100.344   1
   9   0   1 25.3377 89.7151   1
   9   0  -2 31605.5 555.582   1
   9   0   2 31123.4 510.550   1
   9   0  -3-68.8236 105.798   1
   9   0  -4 6941.22 284.916   1
   9   0  -5-81.8046 110.050   1
   9   0  -6 7371.18 297.146   1
   9   0   7-84.7001 103.353  16
   9   0  -7-67.6495 100.391   1
   9   0  -8 27426.1 576.544   1
   9   0   8 25726.9 560.380  16
   9   0   9-113.061 101.357  16
   9   0  10 316.996 133.564  16
   9   0  11-24.3716 134.886  21
  -9   0  11 20.4873 136.231   8
  -9   0  11-252.309 155.412   9
  -9   0  12 4213.98 278.748   9
   9   0  12 4378.94 275.556   4
  -9   0  12 4253.83 279.647   8
   9   0  13-92.5464 138.003  11
  -9   0  13 29.8698 144.663   9
   9   0  13 140.186 129.492   4
  -9   0  13 2.39145 137.288   8
   9   0  14 2900.98 256.091  12
   9   0  14 2904.84 231.615  11
  -9   0  14 2585.96 231.494   9
   9   0  14 2853.24 231.430   4
   9   0  15 26.3913 134.920  12
   9   0  15 95.4995 134.806  11
  -9   0  15 115.502 134.658   9
   9   0  15 113.097 135.652   4
   9   0  16 282.597 133.443  12
   9   0  16 38.2500 126.260  11
  -9   0  16 105.824 118.281   9
   9   0  16 415.992 137.637   4
   9   0  17 41.7947 107.177  12
   9   0  17-101.764 103.057  11
  -9   0  17-91.5357 111.795   9
   9   0  17 176.819 120.962   4
   9   0  18 705.531 126.900  12
   9   0  18 568.539 117.585  11
  -9   0  18 360.327 106.726   9
   9  -1   0 15.4100 90.4033   1
   9   1   0 57.5443 93.5813   1
   9  -1   1 234.600 95.2914   1
   9   1  -1 226.152 103.711   1
   9   1   1 182.659 88.9369   1
   9  -1  -1 92.2874 94.9065   1
   9   1  -2 10127.6 322.019   1
   9   1   2 10795.3 304.849   1
   9  -1  -2 10769.8 328.539   1
   9  -1   2 10565.4 307.020   1
   9   1  -3 14381.2 385.929   1
   9  -1  -3 14837.6 390.074   1
   9   1  -4 17113.5 430.620   1
   9  -1  -4 17541.5 433.190   1
   9   1  -5 5922.74 269.301   1
   9  -1  -5 5745.93 265.090   1
   9   1  -6 25186.3 539.916   1
   9  -1  -6 25363.3 544.386   1
   9  -1  -7 252.012 109.758   1
   9   1  -7 309.264 116.758   1
   9   1   7 141.736 86.4971  16
   9   1  -8 582.947 129.647   1
   9   1   8 598.411 118.805  16
   9  -1   8 729.026 137.761  16
   9   1   9 3338.98 224.787  16
   9  -1   9 3659.71 240.769  16
   9   1  10 13324.0 446.297  16
   9  -1  10 14691.8 465.716  16
   9   1  11 1197.21 175.511   4
   9  -1  11 1286.71 190.548  21
  -9  -1  11 891.625 174.126   8
  -9  -1  11 979.787 184.793   9
  -9   1  11 932.497 175.829   8
  -9   1  11 1081.24 186.952   9
   9  -1  12 6613.24 337.720  21
  -9   1  12 6782.06 321.809   9
  -9  -1  12 6410.91 315.634   9
   9   1  12 6354.68 320.024   4
  -9   1  12 5929.77 328.042   8
  -9  -1  12 5549.17 318.269   8
  -9   1  13 964.024 182.065   9
   9   1  13 1161.45 184.365   4
  -9  -1  13 1120.12 181.043   9
   9  -1  13 940.513 185.672  21
  -9   1  13 1156.86 180.859   8
   9   1  14 326.860 153.991  12
   9  -1  14 199.093 139.335  11
  -9   1  14 416.895 153.870   9
  -9  -1  14 251.189 148.709   9
   9   1  14 163.787 143.283   4
   9   1  15 212.161 145.719  12
   9  -1  15-205.495 150.992  12
   9   1  15 101.018 126.224  11
   9  -1  15 69.9505 126.607  11
  -9   1  15 234.393 146.138   9
  -9  -1  15 85.0936 138.354   9
   9   1  15 184.369 133.195   4
   9   1  16 1130.43 171.497  12
   9  -1  16 953.777 158.743  12
   9   1  16 758.877 141.942  11
   9  -1  16 1127.05 164.522  11
  -9   1  16 1068.16 155.818   9
  -9  -1  16 900.710 147.821   9
   9   1  16 1391.41 176.178   4
   9   1  17 136.130 111.061  12
   9  -1  17 7.31601 108.983  12
   9   1  17 56.9488 109.216  11
   9  -1  17 70.6237 107.592  11
  -9   1  17 136.586 105.947   9
  -9  -1  17 174.535 107.452   9
   9  -1  17 196.941 112.733   4
   9   1  18 187.977 105.946  12
   9  -1  18 8.39365 96.1022  12
   9   1  18 147.766 96.3680  11
   9  -1  18 186.648 104.196  11
  -9   1  18 44.9052 92.7098   9
  -9  -1  18 142.403 96.8979   9
   9   2   0 34.8614 95.7109   1
   9   2   1 55960.8 698.184   1
   9   2  -1 57249.1 730.432   1
   9  -2  -1 56920.9 740.099   1
   9  -2  -2 75.2325 97.2053   1
   9   2   2-44.8188 95.5032   1
   9   2  -2-191.432 109.426   1
   9   2  -3 6220.19 267.056   1
   9  -2  -3 6149.10 264.614   1
   9   2  -4 3027.32 206.581   1
   9  -2  -4 3092.70 206.675   1
   9   2  -5 43780.2 698.050   1
   9  -2  -5 43097.4 680.965   1
   9   2  -6 80.7081 100.383   1
   9  -2  -6 225.421 102.625   1
   9   2  -7 7718.17 318.003   1
   9  -2  -7 7822.22 319.130   1
   9   2   7 7193.70 288.381  16
   9   2  -8 826.409 137.665   1
   9   2   8 895.110 135.594  16
   9  -2   8 1091.60 156.435  16
   9   2   9 9934.91 365.513  16
   9  -2   9 11028.7 396.419  16
   9  -2  10 25.3651 128.929  21
  -9  -2  10 60.4347 111.487   8
  -9   2  10 18.5566 102.747   8
   9   2  10-11.2208 100.641  16
   9  -2  10 38.1769 112.741  16
  -9   2  11 4422.30 273.223   9
  -9  -2  11 4588.57 278.244   9
  -9   2  11 4752.07 294.151   8
   9   2  11 4642.36 288.110   4
   9  -2  11 4884.81 295.985  21
   9   2  12 121.963 144.717   4
  -9   2  12 415.741 162.057   9
  -9  -2  12 266.409 161.392   9
  -9   2  12 302.982 143.247   8
   9  -2  12 342.257 177.311  21
   9   2  13 1433.73 194.736  12
   9   2  13 1491.02 191.724   4
  -9   2  13 1654.42 200.810   9
  -9  -2  13 1383.92 193.057   9
   9  -2  13 1451.26 196.619  21
  -9   2  13 1605.89 204.916   8
   9   2  14 547.815 159.100  12
   9  -2  14 758.513 159.932  11
  -9   2  14 688.945 158.674   9
   9   2  14 631.649 163.784   4
  -9  -2  14 667.701 163.868   9
   9  -2  14 503.244 154.709  21
   9   2  15 1868.67 203.253  12
   9  -2  15 1615.66 189.565  12
   9  -2  15 1588.82 188.437  11
  -9  -2  15 2073.05 205.329   9
   9   2  15 1827.15 201.300   4
  -9   2  15 1582.42 188.222   9
   9   2  16 175.407 120.352  12
   9  -2  16 246.682 129.862  12
   9   2  16-1.14371 114.268  11
   9  -2  16 117.887 117.296  11
   9   2  16 442.862 147.515   4
  -9   2  16 225.837 127.564   9
  -9  -2  16 36.0764 118.604   9
   9   2  17 30.4853 104.452  12
   9  -2  17 241.416 114.238  12
   9   2  17 138.932 106.649  11
   9  -2  17 91.4514 99.4104  11
  -9   2  17 177.217 113.914   9
  -9  -2  17 41.8131 111.434   9
   9  -2  18 271.307 98.0645  11
  -9   2  18 144.836 100.677   9
  -9  -2  18 136.975 96.2977   9
   9   3   0-45.3741 99.2998   1
   9   3   1 6574.26 256.419   1
   9   3  -1 6795.00 272.019   1
   9   3  -2 16154.7 414.623   1
   9   3  -3 47124.4 709.255   1
   9  -3  -4 171.195 118.868   1
   9   3  -4 203.963 113.182   1
   9   3  -5 32256.0 609.425   1
   9  -3  -5 32268.2 607.437   1
   9   3  -6 3353.42 222.489   1
   9  -3  -6 3612.86 230.768   1
   9   3  -7 1775.62 176.718   1
   9  -3  -7 1944.28 182.650   1
   9   3  -8 880.454 145.683   1
   9  -3   9 10435.9 395.378  16
   9  -3  10-54.9866 133.400  21
   9   3  10-50.4843 135.819   4
  -9   3  10 8.00789 123.347   8
  -9   3  10-59.7222 111.151   9
   9   3  11 1125.77 176.374   4
  -9   3  11 1292.16 185.527   9
  -9  -3  11 1173.17 184.301   9
   9  -3  11 1342.65 198.357  21
  -9   3  11 1076.44 177.785   8
   9   3  12-0.51776 142.274  12
  -9   3  12 125.149 114.465   5
   9   3  12 48.5794 132.402   4
   9  -3  12 21.9096 145.277  21
  -9   3  12 67.6005 144.634   9
  -9  -3  12 199.323 157.377   9
  -9   3  12 278.769 150.526   8
   9  -3  13 1436.73 210.582  21
   9   3  13 1346.98 195.203  12
   9   3  13 1594.75 201.514   4
  -9   3  13 1242.61 185.202   9
  -9  -3  13 1632.43 197.739   9
   9   3  14-31.1359 133.099  12
   9   3  14 133.432 133.281   4
  -9   3  14 92.4025 135.323   9
  -9  -3  14-125.326 132.766   9
   9  -3  14 112.698 135.343  21
   9   3  15 332.788 144.307  12
   9  -3  15-115.735 134.407  12
   9  -3  15 400.841 143.469  11
  -9   3  15 148.188 134.324   9
  -9  -3  15 193.210 131.980   9
   9   3  16-26.8991 117.651  12
   9  -3  16-38.4191 116.169  12
   9  -3  16 104.422 113.250  11
  -9   3  16-171.154 120.289   9
  -9  -3  16 74.5678 117.328   9
   9   3  17 1031.30 143.958  12
   9  -3  17 999.439 139.677  11
  -9   3  17 1000.93 142.446   9
  -9  -3  17 811.930 134.773   9
   9  -3  18 67.1174 93.7879  11
   9   4   0 36.2707 96.4789   1
   9   4   1 19036.9 429.083   1
   9   4  -1 18972.5 443.351   1
   9   4  -2 10420.9 343.970   1
   9   4  -3 13120.5 393.176   1
   9   4  -4 12933.3 394.645   1
   9   4  -5 271.113 125.150   1
   9  -4  -5 475.764 133.852   1
   9   4  -6 10732.3 377.154   1
   9  -4  -6 11114.9 377.425   1
   9   4  -7 1547.76 170.485   1
   9  -4  -7 1433.71 165.348   1
   9   4  -8 6312.38 302.669   1
   9  -4   9 1726.39 186.936  16
   9  -4  10 21.6954 146.113  21
  -9   4  10 254.783 142.371   8
   9   4  11 2310.60 218.955  12
  -9  -4  11 1930.08 208.211   9
  -9   4  11 2420.57 231.686   8
   9  -4  11 2585.78 244.674  21
   9   4  12 2509.75 221.545  12
  -9   4  12 1923.15 189.917   5
   9  -4  12 2180.55 232.756  21
  -9  -4  12 2159.02 210.710   9
  -9   4  12 2171.68 221.589   8
   9   4  13 971.651 175.796  12
  -9   4  13 1061.27 159.192   5
  -9  -4  13 1260.13 177.594   9
   9  -4  13 1120.96 186.884  21
   9  -4  14 1765.24 201.063  21
   9   4  14 2166.88 214.970  12
  -9  -4  14 2160.58 209.357   9
   9   4  15 29.2703 126.079  12
   9  -4  15 13.9985 121.327  12
  -9  -4  15 77.4067 130.881   9
   9  -4  15 340.415 137.853  21
   9   4  16 191.654 122.280  12
   9  -4  16 152.671 118.618  11
  -9  -4  16 58.2498 108.975   9
   9  -4  17 129.262 96.4483  11
  -9  -4  17-10.8057 102.833   9
   9   5   0 12.5856 97.8568   1
   9   5   1 5585.33 246.159   1
   9   5  -1 5218.57 255.542   1
   9   5  -2 29176.8 571.778   1
   9   5  -3 10726.0 356.995   1
   9   5  -4 15645.5 437.396   1
   9   5  -5 2828.96 214.706   1
   9   5  -6 3115.36 224.927   1
   9  -5  -6 3591.82 240.892   1
   9   5  -7 492.523 131.786   1
   9   5  -8-89.5587 116.904   1
   9  -5   9-207.671 160.694  21
  -9   5   9-198.221 130.951   8
  -9   5  10 5579.34 310.926   8
   9  -5  10 5166.02 324.488  21
   9   5  11 268.755 143.881  12
  -9   5  11 132.370 127.799   5
  -9  -5  11 22.5676 138.877   9
   9  -5  11 241.645 167.893  21
  -9   5  11 36.1718 131.097   8
   9   5  12 2198.99 214.232  12
  -9   5  12 1906.21 191.671   5
  -9  -5  12 2094.60 202.559   9
   9  -5  12 2502.82 241.087  21
  -9   5  12 2112.30 206.918   8
   9   5  13 215.605 135.308  12
  -9   5  13 211.013 124.156   5
  -9  -5  13 278.559 136.315   9
   9  -5  13 314.590 159.198  21
   9   5  14 176.707 135.525  12
  -9   5  14 206.211 127.157   5
  -9  -5  14 99.2159 143.968  10
  -9  -5  14 205.798 133.367   9
   9  -5  14 11.3598 133.937  21
   9   5  15-126.089 128.483  12
  -9  -5  15-41.0719 137.019  10
  -9  -5  15-77.9428 123.085   9
   9  -5  15 5.47941 126.139  21
   9   5  16-125.285 113.343  12
   9  -5  16 243.446 111.051  11
  -9  -5  16 230.651 124.497  10
  -9  -5  16-119.311 108.568   9
   9  -5  17-128.545 97.8228  11
   9   6   0 80.3148 95.4433   1
   9   6   1 17368.3 433.145   1
   9   6  -1 17529.9 452.295   1
   9   6  -2 4338.24 240.738   1
   9   6  -3 4372.73 255.127   1
   9   6  -4 11792.3 397.467   1
   9   6  -5 18335.9 494.897   1
   9   6  -6 9881.06 386.087   1
   9   6  -7 251.997 124.792   1
   9  -6   8 3282.55 257.418  21
  -9   6   8 3505.54 244.753   8
  -9   6   9 3241.22 251.048   8
   9  -6   9 3443.79 272.925  21
   9  -6  10 168.108 157.316  21
  -9   6  10 56.2840 137.686   8
  -9   6  11 1831.16 190.661   5
  -9   6  11 2211.01 219.551   8
   9  -6  11 2203.17 229.201  21
   9  -6  12-72.4638 138.953  21
  -9   6  12-14.7604 114.533   5
  -9   6  12 33.2711 115.384   8
   9   6  13 311.528 140.492  12
  -9   6  13 443.908 139.093   5
   9  -6  13 208.116 139.494  21
   9   6  14 1940.90 195.173  12
  -9   6  14 1747.10 180.187   5
  -9  -6  14 1610.08 192.460  10
   9  -6  14 1789.76 201.449  21
  -9  -6  15 1093.93 172.009  10
   9  -6  15 965.917 154.378  21
   9  -6  16 170.437 103.498  11
  -9  -6  16-39.2701 111.636  10
   9  -6  16-196.728 115.361  21
   9  -6  17 7.13121 89.3602  11
   9   7   0-74.6505 123.844   1
   9   7  -1 183.102 116.036   1
   9   7  -2 18398.5 488.319   1
   9   7  -3 6546.41 309.770   1
   9   7  -4 19436.6 520.921   1
   9   7  -5 4365.89 270.786   1
   9   7  -6 2056.20 198.845   1
   9  -7   7 120.200 140.019  21
  -9   7   7 170.901 133.773   8
   9  -7   8 2402.00 235.754  21
  -9   7   8 2406.92 223.537   8
  -9   7   9 3033.13 247.735   8
   9  -7   9 2520.59 244.662  21
  -9   7  10 1498.52 174.696   5
   9  -7  10 1197.28 194.676  21
  -9   7  10 1402.29 193.068   8
  -9   7  11 370.466 133.107   5
   9  -7  11 140.053 147.836  21
  -9   7  11 599.439 157.998   8
   9  -7  12 19.5265 138.681  21
  -9   7  12-106.940 116.786   5
  -9   7  12 254.749 140.065   8
  -9   7  13 852.016 146.494   5
   9  -7  13 823.213 171.963  21
  -9   7  14 204.096 111.693   5
  -9  -7  14 89.1115 129.227  10
   9  -7  14 40.9244 123.151  21
  -9  -7  15-80.4514 127.716  10
   9  -7  15 136.787 117.712  21
   9  -7  16 164.394 105.090  21
   9  -7  16 6.16284 95.6865  11
  -9  -7  16 133.689 108.099  10
   9   8   0-27.1358 111.476   1
   9   8  -1 15196.6 456.691   1
   9   8  -2 4822.73 277.237   1
   9   8  -3 2611.96 216.487   1
   9   8  -4 132.859 136.069   1
  -9   8   5 6831.79 320.221   8
  -9   8   5 6429.22 293.052   7
   9   8  -5 6042.18 318.369   1
   9  -8   6 330.938 140.354  21
  -9   8   6 651.882 153.955   8
  -9   8   6 284.784 138.507   7
   9  -8   7 1202.28 194.750  21
  -9   8   7 1080.51 177.224   8
   9  -8   8 2871.17 252.213  21
  -9   8   8 2084.64 219.807   8
   9  -8   9 2013.84 235.535  21
  -9   8   9 2885.64 252.608   8
  -9   8  10 25.0800 109.593   5
   9  -8  10 96.0212 151.451  21
  -9   8  10 27.0918 128.662   8
  -9   8  11 1843.87 181.514   5
   9  -8  11 1946.74 222.823  21
  -9   8  11 1907.66 200.011   8
  -9   8  12 171.259 108.343   5
   9  -8  12 592.126 166.285  21
   9  -8  13 316.419 143.111  21
  -9   8  13 470.734 121.699   5
  -9   8  14 183.865 110.418   5
   9  -8  14 242.943 128.074  21
  -9  -8  14-10.1353 128.774  10
  -9   8  15 494.593 109.028   5
  -9  -8  15 462.956 125.815  10
   9  -8  15 251.521 116.163  21
   9  -8  16 15.4981 88.7562  11
   9   9   0 87.6578 114.287   1
  -9  -9   0 153.162 126.223  14
   9   9  -1 1458.00 184.983   1
  -9  -9  -1 1526.66 190.713  14
  -9  -9   1 1731.66 198.090  14
   9   9  -2 1039.90 163.467   1
  -9   9   2 1369.34 172.834   7
  -9  -9  -2 1426.24 185.649  14
  -9  -9   2 1391.88 181.168  14
  -9   9   3 5685.37 290.005   7
  -9  -9  -3 6035.36 311.487  14
  -9  -9   3 6146.47 310.163  14
  -9   9   4-8.92176 140.319   7
  -9  -9  -4 126.727 159.172  14
  -9  -9   4 310.267 164.809  14
  -9   9   5 6050.00 319.716   8
  -9   9   5 5172.86 285.218   7
   9  -9   6 41.3813 141.636  21
  -9   9   6-73.8816 125.395   8
  -9   9   6 249.808 148.252   7
   9  -9   7 89.6582 163.854  21
  -9   9   7 577.207 159.471   8
  -9   9   7 244.125 163.462   7
   9  -9   8 271.035 175.934  21
  -9   9   8 479.304 159.400   8
  -9   9   9 512.880 142.699   5
   9  -9   9 552.442 169.491  21
  -9   9   9 749.860 168.634   8
  -9   9  10 732.789 143.396   5
   9  -9  10 650.745 171.324  21
  -9   9  10 837.640 177.826   8
  -9   9  11 3785.82 234.927   5
  -9   9  11 4344.53 261.184   8
   9  -9  11 4545.82 289.650  21
  -9   9  12 256.172 110.326   5
   9  -9  12 408.789 142.232  21
   9   9  13 1142.06 144.548   6
  -9   9  13 989.361 140.523   5
   9  -9  13 949.656 163.178  21
  -9   9  14 226.591 96.9463   5
  -9  -9  14 221.086 125.290  10
   9  -9  14 213.816 116.759  21
  -9  -9  15-39.1215 96.2730  10
   9  -9  15 143.067 107.970  21
  -9  10   0-155.949 136.722   7
  -9 -10   0-245.867 180.754  14
  -9  10   1 152.138 134.079   7
  -9 -10  -1 542.288 175.526  14
  -9 -10   1 81.6573 157.049  14
  -9  10   2 4556.23 266.917   7
  -9 -10  -2 4722.33 311.249  14
  -9 -10   2 4610.13 296.272  14
  -9  10   3-0.56764 143.222   7
  -9 -10  -3 136.920 167.306  14
  -9 -10   3 188.842 178.073  14
  -9  10   4 3526.63 242.880   7
  -9 -10  -4 3315.60 270.891  14
  -9 -10   4 3808.49 271.734  14
  -9  10   5 1693.10 205.306   7
   9 -10   6 586.035 158.876  21
  -9  10   6 595.739 149.745   8
  -9  10   6 646.939 162.932   7
   9 -10   7 360.204 155.422  21
  -9  10   7 625.309 162.971   8
  -9  10   7 261.894 139.593   7
   9 -10   8 4789.79 305.717  21
  -9  10   8 4973.45 295.018   8
  -9  10   9 1195.00 155.396   5
   9 -10   9 1522.63 201.209  21
  -9  10   9 1232.03 174.245   8
  -9  10  10-55.6778 103.066   5
   9 -10  10 1.32866 131.666  21
  -9  10  11 389.535 118.123   5
   9 -10  11 267.138 137.639  21
  -9  10  11 309.521 118.042   8
   9  10  12 1373.96 154.169   6
  -9  10  12 909.443 137.604   5
   9 -10  12 1094.72 165.609  21
   9  10  13 0.33115 100.212   6
  -9  10  13-28.4475 99.6301   5
  -9 -10  13-37.4949 112.753  10
   9 -10  13 132.433 113.834  21
   9  10  14 76.9092 89.6316   6
  -9  10  14 312.902 99.7664   5
   9 -10  14 349.622 113.372  21
  -9 -10  14 101.306 100.538  10
  -9  11   0 75.6626 130.870   7
  -9 -11   0-31.6661 180.759  14
  -9  11   1 913.303 161.425   7
  -9 -11  -1 738.936 193.721  14
  -9 -11   1 758.516 201.878  14
  -9  11   2 802.516 162.461   7
  -9 -11  -2 623.207 180.128  14
  -9 -11   2 578.519 179.053  14
  -9  11   3 287.575 144.162   7
  -9 -11  -3-81.4005 164.288  14
  -9 -11   3 318.817 173.868  14
  -9  11   4 3040.36 229.551   7
  -9 -11  -4 3034.44 263.340  14
  -9 -11   4 3434.87 273.696  14
  -9  11   5 680.357 169.935   7
  -9  11   6 2333.70 220.814   8
  -9  11   6 1957.74 204.467   7
   9 -11   7 68.0240 133.504  21
  -9  11   7 249.328 128.589   8
  -9  11   7 325.714 149.680   7
   9 -11   8 73.7137 135.071  21
  -9  11   8 232.874 135.792   8
  -9 -11   8-97.5526 151.040   3
  -9  11   9 113.433 111.667   5
   9 -11   9-112.713 130.898  21
  -9  11   9 113.425 124.332   8
  -9  11  10 2750.13 199.970   5
   9 -11  10 2589.77 220.727  21
  -9  11  10 2797.60 217.197   8
  -9  11  11 267.664 110.606   5
  -9  11  11 292.742 123.570   8
   9 -11  11 326.465 129.796  21
   9  11  12 1937.63 167.027   6
  -9  11  12 1838.53 161.449   5
   9 -11  12 1904.34 177.401  21
   9  11  13-39.9804 84.2754   6
  -9  11  13 35.4032 84.7922   5
   9 -11  13 112.326 103.446  21
  -9 -11  13 117.494 107.069  10
  -9  12   0-96.7340 127.410   7
  -9 -12   0 26.9232 168.093  14
  -9 -12  -1 4938.16 285.773   3
  -9  12   1 5275.70 274.031   7
  -9 -12   1 5091.59 311.776  14
  -9 -12  -1 5051.64 313.205  14
  -9  12   2 322.113 151.273   7
  -9 -12   2 190.770 167.820  14
  -9 -12  -2 548.400 195.046  14
  -9  12   3 58.4863 135.175   7
  -9 -12   3-231.168 168.749  14
  -9 -12  -3 62.8510 165.610  14
  -9  12   4 180.456 141.710   7
  -9  12   5 3859.50 264.754   8
  -9 -12   5 3863.58 276.290   3
  -9  12   5 3663.26 253.813   7
  -9  12   6 104.075 123.789   8
  -9  12   6-128.638 152.020   7
  -9 -12   6 182.093 151.635   3
  -9  12   7 276.908 125.213   8
  -9 -12   7 205.722 146.982   3
  -9  12   8 158.022 103.799   5
   9 -12   8-41.7663 129.780  21
  -9  12   8-92.0188 119.868   8
  -9 -12   8-81.4462 144.037   3
  -9  12   9 684.636 124.668   5
   9 -12   9 838.465 154.816  21
  -9  12   9 907.059 154.918   8
  -9  12  10 59.3810 89.3693   5
   9 -12  10-188.023 117.450  21
  -9  12  10 53.0018 103.590   8
   9  12  11 454.699 108.963   6
  -9  12  11 402.918 102.579   5
   9 -12  11 518.734 125.843  21
   9  12  12 83.6259 86.7498   6
  -9  12  12 153.147 84.5848   5
  -9 -12  12 301.308 114.964  10
   9 -12  12 310.991 111.082  21
  -9 -13   0-29.9271 155.466   3
  -9  13   1 2098.39 197.046   7
  -9 -13  -1 1810.70 200.816   3
  -9 -13   1 1585.64 207.890   3
  -9  13   2 89.5000 126.858   7
  -9 -13   2-36.3945 151.262   3
  -9  13   3 2332.43 211.041   7
  -9 -13   3 2484.43 235.137   3
  -9  13   4 1513.22 173.676   7
  -9 -13   4 1583.78 205.408   3
  -9  13   5 329.569 131.097   8
  -9  13   5 575.695 149.121   7
  -9 -13   5 515.300 160.601   3
  -9  13   6 1281.03 169.045   8
  -9  13   6 1337.51 166.426   7
  -9 -13   6 1339.78 198.862   3
  -9  13   7 169.833 110.764   8
  -9 -13   7 367.265 163.731   3
  -9  13   8-13.3688 95.4671   5
   9 -13   8 101.074 112.688  21
  -9  13   8 145.687 114.118   8
  -9 -13   8 129.410 128.855   3
  -9  13   9 364.817 103.536   5
   9 -13   9 412.023 127.048  21
  -9  13   9 623.565 126.086   8
   9  13  10 546.782 105.012   6
  -9  13  10 418.777 99.2230   5
   9 -13  10 316.058 113.167  21
  -9  13  10 251.410 100.931   8
   9  13  11 30.2008 80.0954   6
  -9 -14   0-96.0565 144.820   3
  -9 -14  -1 154.617 137.299   3
  -9 -14   1-143.463 147.299   3
  -9 -14   2 2435.58 224.851   3
  -9  14   2 2621.95 197.777   7
  -9  14   3 57.9946 123.395   7
  -9 -14   3 276.402 142.555   3
  -9  14   4-5.36922 104.229   8
  -9  14   4 110.701 113.467   7
  -9 -14   4 165.757 151.936   3
  -9  14   5 265.330 112.012   8
  -9 -14   5 255.288 143.265   3
  -9  14   6 318.646 109.606   8
  -9 -14   6 106.585 123.711   3
  -9  14   7 131.448 95.6096   8
  -9 -14   7 463.862 137.410   3
  -9  14   8 839.969 113.831   5
  -9  14   8 807.596 125.524   8
  -9 -14   8 1028.13 142.833   3
   9  14   9-168.937 88.2907   6
  -9 -15   0-172.437 124.960   3
  -9 -15   1 537.931 141.226   3
  -9 -15   2 405.271 144.806   3
  -9  15   3 1262.51 145.543   8
  -9 -15   3 1220.34 159.402   3
  -9  15   4 0.49241 95.6196   8
  -9 -15   4-15.9528 121.534   3
  -9  15   5 37.3039 87.5787   8
  -9 -15   5 437.452 131.656   3
  -9  15   6-7.19454 85.2626   8
  -9 -15   6 3.61443 106.004   3
  -9 -16   0 119.092 104.212   3
  -9 -16   1 445.641 124.712   3
  -9  16   1 234.342 90.0723   8
  -9 -16   2 162.094 105.743   3
  -9  16   2 47.8062 83.9443   8
  -9 -16   3-142.108 112.615   3
  -9  16   3-106.979 87.4073   8
  10   0   0 135423. 1183.39   1
  10   0  -1 76.7633 105.297   1
  10   0   1 203.926 110.981   1
  10   0  -2 1485.02 162.963   1
  10   0   2 1254.33 137.053   1
  10   0  -3-20.5355 111.272   1
  10   0  -4 26232.2 557.283   1
  10   0  -5-125.252 120.299   1
  10   0  -6 602.313 130.392   1
  10   0  -7-179.644 118.873   1
  10   0   7-55.3182 100.193  16
  10   0  -8 20104.1 527.148   1
  10   0   8 19283.0 517.917  16
  10   0   9 111.386 117.562  21
 -10   0   9 7.98615 113.667   8
  10   0   9-121.883 109.371  16
 -10   0  10 22134.0 593.338   8
 -10   0  11-63.6937 139.648   8
 -10   0  11 151.781 148.447   9
 -10   0  12 851.187 168.200   9
 -10   0  12 469.934 160.040   8
 -10   0  13-65.0391 142.577   9
  10   0  14 11500.0 403.848  12
 -10   0  14 9991.33 376.870   9
  10   0  15-80.7082 131.877  12
 -10   0  15-51.7023 121.396   9
  10   0  16 29.4818 112.150  12
  10   0  16-20.1261 99.9603  11
 -10   0  16-12.2699 109.493   9
  10   0  17 114.112 103.827  12
  10   0  17-167.328 105.665  11
 -10   0  17 78.4368 101.627   9
  10   1   0 10121.9 330.447   1
  10  -1   0 10453.8 348.294   1
  10  -1  -1 740.928 130.690   1
  10   1   1 800.125 122.775   1
  10   1  -1 631.411 121.583   1
  10  -1   1 565.073 110.489   1
  10  -1  -2 254.484 107.828   1
  10   1   2 161.391 96.5352   1
  10   1  -2 259.289 109.171   1
  10  -1   2 293.100 100.609   1
  10   1  -3 2292.55 185.010   1
  10  -1  -3 2097.15 184.633   1
  10  -1  -4 432.680 129.981   1
  10   1  -4 391.948 121.783   1
  10  -1  -5 28.7916 113.073   1
  10   1  -5 13.4731 110.033   1
  10   1  -6 2722.84 206.261   1
  10  -1  -6 2768.18 209.379   1
  10   1   6 2538.18 184.275  16
  10  -1  -7 1997.64 190.470   1
  10   1  -7 1906.03 189.021   1
  10   1   7 2069.78 190.413  16
  10  -1  -8 1722.87 188.881   1
  10   1  -8 1313.49 180.383   1
  10   1   8 1649.37 174.336  16
  10  -1   8 1691.53 183.629  16
 -10  -1   9 1321.82 176.899   8
 -10   1   9 769.547 157.318   8
  10  -1   9 1246.11 174.990  21
  10   1   9 878.832 144.863  16
  10  -1   9 962.469 154.205  16
 -10  -1  10 6619.76 343.219   8
 -10   1  10 6513.43 339.476   8
  10  -1  10 7147.58 347.788  21
  10  -1  11 181.762 159.362  21
  10   1  11-19.5637 124.043   4
 -10  -1  11 98.0724 144.917   9
 -10  -1  11 31.4608 137.537   8
 -10   1  11-83.3333 150.497   8
 -10   1  11 45.6090 144.683   9
  10   1  12 224.511 122.946   4
 -10   1  12 422.886 149.105   9
 -10  -1  12 208.512 138.956   9
 -10   1  12 122.021 127.141   8
  10   1  13 150.552 143.591  12
  10   1  13 1.72244 126.703   4
 -10   1  13 53.4291 139.127   9
 -10  -1  13 64.9868 139.121   9
 -10   1  13 127.529 136.159   8
  10   1  14 1301.67 183.334  12
  10  -1  14 1323.93 184.587  12
  10  -1  14 1398.25 184.386  11
 -10   1  14 1508.78 196.530   9
 -10  -1  14 1281.72 189.275   9
  10   1  15 345.225 136.661  12
  10  -1  15 47.6452 122.916  12
  10  -1  15 281.116 136.714  11
 -10   1  15 100.705 125.999   9
 -10  -1  15 313.644 140.792   9
  10   1  16-49.2619 112.153  12
  10  -1  16-46.0669 109.071  12
  10  -1  16 102.052 107.785  11
 -10   1  16 45.2423 106.736   9
 -10  -1  16 127.155 110.619   9
  10   1  17 207.176 101.864  12
  10  -1  17-6.27484 102.234  12
  10  -1  17 174.503 103.152  11
 -10   1  17 139.367 101.128   9
 -10  -1  17 43.0146 101.181   9
  10   2   0 5982.75 265.045   1
  10  -2   0 6046.60 265.563   1
  10   2   1 5605.35 248.576   1
  10   2  -1 5451.80 261.542   1
  10  -2  -1 5657.09 267.313   1
  10  -2   1 5921.83 263.194   1
  10  -2   2 706.656 125.055   1
  10   2  -2 491.925 124.169   1
  10  -2  -2 660.768 128.965   1
  10   2  -3 17545.3 456.022   1
  10  -2  -3 17562.8 460.246   1
  10  -2  -4 251.386 125.970   1
  10   2  -4 285.438 123.285   1
  10   2  -5 8708.90 340.970   1
  10  -2  -5 8430.51 338.551   1
  10   2  -6 385.580 134.068   1
  10  -2  -6 506.167 131.162   1
  10   2  -7 53932.9 849.924   1
  10  -2  -7 53687.3 835.155   1
  10   2  -8 3754.42 254.389   1
  10  -2   8 3986.91 257.132  16
  10  -2   9 428.583 149.853  21
 -10  -2   9 310.023 142.457   8
 -10   2   9 242.843 135.530   8
  10  -2  10 1814.41 221.380  21
 -10   2  10 1589.81 197.209   8
 -10  -2  10 1384.33 196.497   8
  10  -2  11 1286.21 197.630  21
 -10   2  11 908.717 173.868   9
 -10   2  11 936.362 177.627   8
 -10  -2  11 1260.82 193.038   9
 -10   2  12 793.702 168.396   9
 -10  -2  12 641.291 170.060   9
 -10   2  12 978.407 178.609   8
  10  -2  12 1034.28 192.322  21
  10   2  13 37.9658 136.674  12
 -10   2  13-68.1062 131.021   9
 -10  -2  13 81.0307 130.730   9
 -10   2  13 13.0191 128.700   8
  10  -2  13 145.754 135.869  21
  10   2  14 2313.68 216.332  12
  10  -2  14 2704.21 220.462  11
 -10   2  14 2215.49 209.496   9
 -10  -2  14 2376.67 212.207   9
  10   2  15 3013.77 227.250  12
  10  -2  15 3200.13 233.462  12
  10  -2  15 3262.09 227.391  11
 -10   2  15 2828.73 215.638   9
 -10  -2  15 2750.25 211.285   9
  10   2  16 125.129 114.895  12
  10  -2  16 26.9521 108.659  12
  10  -2  16 221.781 113.212  11
 -10   2  16 271.786 118.341   9
 -10  -2  16 20.4250 108.519   9
  10   2  17 943.214 135.055  12
  10  -2  17 972.338 134.369  12
  10  -2  17 786.971 129.413  11
 -10   2  17 594.587 123.738   9
 -10  -2  17 806.220 125.462   9
  10   3   0 18282.9 450.999   1
  10   3   1 2307.55 181.615   1
  10   3  -1 2458.56 194.076   1
  10  -3  -1 2418.69 192.056   1
  10   3  -2 515.655 122.713   1
  10  -3  -2 491.275 135.994   1
  10   3  -3 5156.84 266.754   1
  10  -3  -3 5482.20 274.931   1
  10   3  -4 11072.8 377.221   1
  10  -3  -4 11253.6 387.126   1
  10   3  -5 3072.50 227.572   1
  10  -3  -5 3075.58 218.049   1
  10  -3  -6-53.8259 102.918   1
  10   3  -6 65.6640 117.716   1
  10   3  -7 7720.20 339.292   1
  10  -3  -7 7850.23 340.752   1
  10   3  -8 4128.61 266.837   1
  10  -3   9 412.234 152.626  21
 -10   3   9 369.875 137.413   8
  10  -3  10 403.429 158.635  21
 -10   3  10 155.333 141.167   9
 -10   3  10 544.056 155.050   8
 -10   3  11 2.07365 138.321   9
  10  -3  11 83.2734 147.215  21
 -10   3  11 91.8752 142.975   8
 -10  -3  11 132.694 150.681   9
  10   3  12-89.6020 138.828  12
  10  -3  12 71.5916 144.336  21
 -10   3  12-15.1392 140.716   9
 -10  -3  12 263.352 144.062   9
 -10   3  12 336.401 143.380   8
  10  -3  13 265.661 149.946  21
  10   3  13 8.11005 134.394  12
 -10   3  13 125.228 134.257   9
 -10  -3  13 168.033 138.405   9
 -10   3  13 224.943 133.163   8
  10   3  14 95.5141 130.692  12
 -10   3  14-210.477 130.342   9
 -10  -3  14 37.8631 125.495   9
  10  -3  14 12.9641 131.249  21
  10   3  15 368.276 137.500  12
  10  -3  15 580.727 145.791  12
  10  -3  15 342.544 137.997  11
 -10   3  15 306.949 144.091   9
 -10  -3  15 18.5013 122.504   9
  10   3  16-61.7010 109.765  12
  10  -3  16 210.128 121.285  12
  10  -3  16 204.990 107.154  11
 -10   3  16-91.3317 114.741   9
 -10  -3  16-84.9178 109.661   9
  10   3  17 77.3701 95.5496  12
  10  -3  17 164.110 96.8867  12
  10  -3  17 131.131 95.3974  11
 -10   3  17-0.69973 97.5530   9
 -10  -3  17 147.543 93.0112   9
  10   4   0 58903.9 811.183   1
  10   4   1 3649.43 217.320   1
  10   4  -1 3630.49 223.557   1
  10   4  -2 53.8029 101.017   1
  10   4  -3 3391.38 229.885   1
  10   4  -4 19720.2 510.904   1
  10  -4  -4 19502.2 508.850   1
  10   4  -5 3051.48 223.461   1
  10  -4  -5 3420.37 238.951   1
  10   4  -6 1622.60 184.224   1
  10  -4  -6 1616.47 182.041   1
  10   4  -7 13365.3 439.040   1
  10  -4  -7 14012.2 443.596   1
  10  -4   8 2141.69 214.799  21
 -10   4   8 1890.56 204.048   8
  10  -4   9 646.713 171.801  21
 -10   4   9 380.309 135.462   8
 -10   4  10 4430.15 290.122   8
  10  -4  10 4253.04 291.305  21
  10   4  11 152.309 145.135  12
  10  -4  11-139.063 151.677  21
 -10  -4  11-125.606 147.206   9
 -10   4  11-35.8062 123.064   8
  10   4  12 680.472 155.117  12
 -10  -4  12 719.107 160.754   9
  10  -4  12 1035.29 194.133  21
 -10   4  12 896.287 165.573   8
  10   4  13 364.885 145.703  12
 -10  -4  13 518.981 148.475   9
 -10   4  13 658.839 152.477   8
  10  -4  13 380.927 149.899  21
  10   4  14 4057.81 259.959  12
 -10  -4  14 4217.51 246.806   9
  10  -4  14 4287.86 270.619  21
  10   4  15 2090.25 193.961  12
  10  -4  15 2120.84 191.783  12
  10  -4  15 2284.87 197.589  11
 -10  -4  15 1783.54 182.725   9
  10   4  16 59.6851 106.478  12
  10  -4  16-56.4101 102.069  12
  10  -4  16 132.547 103.615  11
 -10  -4  16 4.29989 103.797   9
  10  -4  17 226.104 95.2810  11
  10   5   0 34846.8 637.180   1
  10   5   1 694.435 124.733   1
  10   5  -1 649.170 133.886   1
  10   5  -2 273.632 117.028   1
  10   5  -3 126.641 117.673   1
  10   5  -4 8579.22 355.862   1
  10   5  -5 256.462 127.721   1
  10  -5  -5-37.9119 119.041   1
  10   5  -6 260.754 126.319   1
  10  -5  -6 216.109 126.306   1
  10   5  -7-13.8148 113.113   1
  10  -5  -7-165.543 116.251   1
  10  -5   7-3.30930 116.379  21
 -10   5   7 2.17761 102.115   8
  10  -5   8 196.795 149.265  21
 -10   5   8-110.211 129.178   8
  10  -5   9 690.483 182.138  21
 -10   5   9 334.483 142.988   8
 -10   5  10 2500.59 235.291   8
 -10  -5  10 2103.87 205.044   9
  10  -5  10 1995.87 220.829  21
  10  -5  11-144.216 152.330  21
 -10  -5  11-186.630 139.903   9
 -10   5  11 1.60863 130.942   8
  10   5  12 25.1337 124.203  12
 -10  -5  12 65.1035 133.179   9
  10  -5  12 256.306 162.233  21
 -10   5  12-92.6270 134.544   8
  10   5  13-85.7388 128.254  12
 -10  -5  13-102.546 127.486   9
  10  -5  13-148.360 144.823  21
 -10   5  13-13.6017 115.813   8
  10   5  14 309.004 134.228  12
  10  -5  14 107.810 133.694  21
 -10  -5  14 416.120 139.447   9
  10   5  15 295.698 129.066  12
 -10  -5  15-97.4148 115.513   9
  10  -5  15 197.970 117.234  21
  10  -5  16 168.646 102.510  11
  10   6   0 59189.1 844.663   1
  10   6  -1 2326.66 198.421   1
  10   6  -2 1593.86 174.941   1
  10   6  -3 12386.1 423.669   1
  10   6  -4 11348.3 404.209   1
  10   6  -5 1857.47 195.730   1
 -10   6   6 2715.30 216.056   8
  10  -6   6 2685.50 225.584  21
 -10   6   6 2709.03 216.612  20
  10  -6  -6 2680.95 220.653   1
  10  -6   7 4653.14 295.066  21
 -10   6   7 4733.37 293.095   8
 -10   6   7 4877.84 293.501  20
  10  -6   8 2879.52 249.760  21
 -10   6   8 2493.90 233.364   8
  10  -6   9 171.739 145.390  21
 -10   6   9 179.078 132.092   8
  10  -6  10 1625.60 212.742  21
 -10   6  10 2149.81 220.300   8
  10  -6  11 164.070 154.537  21
 -10   6  11 226.783 146.181   8
  10  -6  12 772.438 169.909  21
 -10   6  12 437.584 135.191   8
  10  -6  13 976.829 180.572  21
 -10   6  13 837.933 157.643   8
  10   6  14 2238.21 195.364  12
 -10  -6  14 2136.66 199.487  10
  10  -6  14 2020.10 205.171  21
 -10  -6  15 144.706 119.932  10
  10  -6  15 272.957 124.342  21
  10  -6  16 199.410 103.791  11
  10   7   0 1649.80 176.994   1
  10   7  -1 63.8640 114.908   1
  10   7  -2 1386.97 178.094   1
  10   7  -3 5084.95 298.711   1
  10   7  -4 91.6410 120.975   1
 -10   7   5 214.932 138.503   8
  10  -7   6 949.341 178.825  21
 -10   7   6 683.349 155.609  20
 -10   7   6 799.093 163.940   8
 -10   7   7 4990.39 296.116  20
  10  -7   7 4534.87 289.412  21
 -10   7   7 4947.83 297.457   8
  10  -7   8 89.4178 155.059  21
 -10   7   8-134.068 138.153   8
  10  -7   9-110.938 144.959  21
 -10   7   9 17.4781 134.004   8
  10  -7  10 1094.81 192.131  21
 -10   7  10 1001.31 174.554   8
  10  -7  11 406.784 158.663  21
 -10   7  11 274.715 131.847   8
  10  -7  12 183.692 142.931  21
 -10   7  12-121.763 130.588   8
 -10   7  13 278.042 112.804   5
  10  -7  13 74.4674 127.198  21
 -10  -7  14 95.0468 120.356  10
  10  -7  14 55.2007 116.827  21
 -10  -7  15 87.8456 114.231  10
  10  -7  15 230.000 119.740  21
 -10  -8   0 2603.14 231.868  14
  10   8   0 2233.73 209.736   1
  10   8   0 2203.28 220.712   2
 -10  -8  -1 4718.84 289.202  14
 -10  -8   1 4875.05 292.952  14
  10   8  -1 4906.47 293.055   2
  10   8  -1 4244.86 275.141   1
  10   8   1 4463.28 277.465   2
  10   8   2 131.623 128.797   2
 -10  -8  -2 176.875 157.141  14
 -10  -8   2 328.774 152.394  14
 -10   8   3 7612.63 345.794   8
 -10  -8  -3 7498.91 349.670  14
 -10  -8   3 7738.82 345.375  14
 -10   8   4 1182.67 178.427   8
 -10  -8  -4 1127.63 187.680  14
 -10  -8   4 1210.63 202.315  14
 -10   8   5 2917.11 240.563   8
 -10   8   6 8810.83 378.331   8
 -10   8   6 9136.97 389.544  20
  10  -8   6 8318.38 369.377  21
  10  -8   7 13351.8 469.647  21
 -10   8   7 13953.6 474.285   8
  10  -8   8 1063.26 183.373  21
 -10   8   8 1233.92 188.135   8
  10  -8   9 15.4570 141.606  21
 -10   8   9 100.399 125.979   8
  10  -8  10 590.148 169.992  21
 -10   8  10 515.688 148.310   8
  10  -8  11 75.1182 143.892  21
 -10   8  11 85.7340 120.512   8
  10  -8  12-99.0937 135.324  21
 -10   8  12-63.9086 126.520   8
 -10   8  13 62.2705 99.2597   5
  10  -8  13 38.4811 117.383  21
 -10  -8  14-15.6653 110.868  10
  10  -8  14 159.463 109.019  21
 -10  -8  15 1013.51 137.726  10
  10  -8  15 1080.30 135.659  21
 -10  -9   0 7709.08 367.638  14
 -10  -9  -1-38.0135 164.667  14
 -10  -9   1 108.337 164.829  14
 -10  -9  -2 49.7183 164.349  14
 -10  -9   2-58.3198 176.021  14
 -10   9   3 791.480 155.259   8
 -10  -9  -3 688.838 187.606  14
 -10  -9   3 971.161 193.949  14
 -10   9   4 207.389 133.192   8
 -10  -9  -4 210.828 172.129  14
 -10  -9   4 171.008 171.731  14
 -10   9   5 328.844 139.971   8
 -10   9   6 824.656 166.402  20
 -10   9   6 728.507 162.072   8
  10  -9   7 420.428 163.739  21
 -10   9   7 599.733 164.479   8
  10  -9   8-350.532 161.937  21
 -10   9   8 90.5832 128.319   8
  10  -9   9 570.263 167.528  21
 -10   9   9 308.709 143.558   8
  10  -9  10 1751.48 208.777  21
 -10   9  10 1809.69 198.367   8
  10  -9  11 171.852 145.477  21
 -10   9  11 110.094 117.590   8
  10   9  12 121.020 106.863   6
 -10   9  12 16.5839 95.6417   5
  10  -9  12 241.988 132.028  21
 -10   9  12 123.787 110.331   8
 -10   9  13 156.250 93.8904   5
 -10  -9  13 109.032 115.109  10
  10  -9  13-164.508 112.481  21
 -10  -9  14 379.005 115.023  10
  10  -9  14 259.982 106.147  21
 -10 -10   0 11848.8 450.276  14
 -10 -10  -1 4391.84 303.946  14
 -10 -10   1 4477.85 308.265  14
 -10 -10  -2-43.3340 166.809  14
 -10 -10   2-73.5688 162.326  14
 -10  10   3 241.581 126.394   8
 -10 -10  -3 362.397 176.722  14
 -10 -10   3 217.118 183.358  14
 -10  10   4 705.827 157.607   8
 -10 -10  -4 238.799 161.951  14
 -10 -10   4 376.199 182.195  14
 -10  10   5 76.6194 132.714   8
 -10 -10   5 159.937 152.078  14
 -10  10   6 226.868 130.601  20
 -10  10   6 142.613 132.603   8
  10 -10   7 988.216 187.113  21
 -10  10   7 1235.91 179.419   8
  10 -10   8 1210.48 185.632  21
 -10  10   8 1133.08 179.912   8
  10 -10   9 3164.50 243.636  21
 -10  10   9 3264.59 238.903   8
  10 -10  10 3134.25 245.714  21
 -10  10  10 3335.73 232.062   8
  10 -10  11 332.018 136.867  21
 -10  10  11 488.817 137.832   8
  10  10  12 187.785 99.9859   6
 -10  10  12 27.4389 92.3099   5
  10 -10  12-78.1524 111.916  21
  10  10  13 1012.79 119.220   6
 -10  10  13 1056.99 122.840   5
 -10 -10  13 951.453 138.593  10
  10 -10  13 577.251 122.730  21
 -10 -11   0 223.015 174.010  14
 -10 -11  -1 95.1608 159.320  14
 -10 -11   1-101.649 158.771  14
 -10 -11  -2 198.376 174.325  14
 -10 -11   2-70.2166 166.237  14
 -10  11   3 96.3319 126.176   8
 -10 -11  -3 191.131 166.772  14
 -10 -11   3 400.275 167.709  14
 -10  11   4-89.1998 126.319   8
 -10 -11  -4-170.094 170.974  14
 -10 -11   4 10.6703 161.195  14
 -10  11   5 38.2730 128.511   8
 -10 -11   5-94.7996 159.684  14
 -10 -11  -5 74.7676 156.783  14
 -10  11   6 71.5950 125.445  20
 -10  11   6 60.1956 129.062   8
 -10  11   7 114.067 127.440   8
  10 -11   8 629.974 156.527  21
 -10  11   8 662.079 148.589   8
 -10 -11   8 932.482 171.551   3
  10 -11   9 1849.18 198.243  21
 -10  11   9 1517.50 183.786   8
  10 -11  10 334.704 136.527  21
 -10  11  10 524.190 135.175   8
  10 -11  11 0.92783 106.578  21
 -10  11  11 48.2262 100.911   8
  10  11  12-55.6670 87.1935   6
 -10  11  12 150.833 90.1670   5
  10 -11  12 143.538 106.879  21
 -10 -12   0 2655.07 256.680  14
 -10 -12   1 17.7508 170.412  14
 -10 -12  -1 160.974 170.327  14
 -10 -12  -1 15.0349 144.465   3
 -10 -12   2 2135.45 242.483  14
 -10 -12  -2 1906.52 231.098  14
 -10  12   3 1830.32 202.687   8
 -10 -12   3 1643.66 219.061  14
 -10 -12  -3 1602.13 221.732  14
 -10  12   4 124.946 121.051   8
 -10  12   5-51.4845 122.196   8
 -10 -12   5-27.0613 152.760   3
 -10  12   6 2975.62 226.764   8
 -10 -12   6 2881.35 233.889   3
 -10  12   7 2306.49 199.861   8
 -10 -12   7 2457.76 212.936   3
  10 -12   8 1936.28 188.552  21
 -10  12   8 1993.85 190.317   8
 -10 -12   8 2053.35 197.596   3
  10 -12   9-16.1557 105.682  21
 -10  12   9 287.924 122.430   8
  10 -12  10-156.913 107.305  21
 -10  12  10-47.9283 96.6173   8
  10 -12  11 102.974 99.4859  21
  10  12  11-57.9508 82.0753   6
 -10 -13   0 317.182 146.390   3
 -10 -13  -1-46.6771 136.403   3
 -10 -13   1-165.792 151.858   3
 -10  13   2 312.423 126.703   8
 -10 -13   2 19.1670 145.575   3
 -10  13   3-22.0716 109.152   8
 -10 -13   3-57.1032 147.748   3
 -10  13   4 893.359 148.674   8
 -10 -13   4 690.641 162.982   3
 -10  13   5 327.933 132.462   8
 -10 -13   5 353.232 150.418   3
 -10  13   6-13.3353 107.109   8
 -10 -13   6 212.380 146.911   3
 -10  13   7 358.607 118.635   8
 -10 -13   7 276.260 141.246   3
 -10  13   8 515.621 114.597   8
 -10 -13   8 365.620 130.574   3
  10 -13   9 134.363 104.015  21
 -10  13   9 204.555 96.6102   8
 -10 -14   0 1252.05 172.576   3
 -10  14   1 2206.16 192.402   8
 -10 -14   1 2010.65 190.980   3
 -10  14   2 175.112 103.219   8
 -10 -14   2 9.33618 130.844   3
 -10  14   3-86.9387 102.795   8
 -10 -14   3 42.3370 123.047   3
 -10  14   4 555.296 123.366   8
 -10 -14   4 777.210 154.888   3
 -10  14   5 438.280 115.679   8
 -10 -14   5 367.274 132.524   3
 -10  14   6 442.617 116.219   8
 -10 -14   6 444.686 131.148   3
 -10  14   7 698.789 117.085   8
 -10 -14   7 419.174 125.924   3
 -10  15   0 567.204 118.127   8
 -10 -15   0 514.697 130.640   3
 -10  15   1 355.286 109.652   8
 -10  15  -1 136.019 92.8459   8
 -10 -15   1 264.888 128.969   3
 -10  15   2 5.52976 90.5917   8
 -10 -15   2-122.904 114.328   3
 -10  15   3 14.3213 87.6213   8
 -10 -15   3-43.5920 112.115   3
 -10  15   4 151.553 91.9532   8
 -10 -15   4 226.427 109.266   3
 -10  15   5 275.069 90.4605   8
 -10 -15   5 94.2588 97.3048   3
  11   0   0-55.9727 106.323   1
  11   0  -1-33.1372 110.564   1
  11   0   1 61.3500 118.422   1
  11   0  -2 10360.3 373.008   1
  11   0  -3-70.9823 125.601   1
  11   0  -4 4640.10 273.544   1
  11   0  -5-163.006 130.546   1
  11   0  -6 1282.02 176.532   1
  11   0  -7-51.8261 117.022   1
  11   0   7 172.829 111.250  16
 -11   0   8 8245.85 372.075   8
 -11   0   9 157.046 135.849   8
 -11   0  10 61.4727 139.069   8
 -11   0  11-228.243 154.809   9
 -11   0  11 76.4745 138.631   8
 -11   0  12 6353.96 323.139   9
 -11   0  12 6783.16 344.836   8
 -11   0  13 89.7353 132.686   9
  11   0  14 201.633 139.692  12
 -11   0  14 132.725 130.093   9
  11   0  15 191.799 114.254  12
 -11   0  15-83.3339 120.864   9
  11   0  16-67.9463 98.2659  12
 -11   0  16 49.6938 97.1812   9
  11  -1   0 161.303 105.962   1
  11   1   0 176.381 109.022   1
  11   1   1 27126.8 559.504   1
  11   1  -1 27047.2 573.255   1
  11  -1  -1 26940.4 586.684   1
  11  -1   1 28327.2 579.148   1
  11   1  -2 1983.51 189.041   1
  11  -1  -2 2205.71 209.814   1
  11  -1   2 2060.88 183.861   1
  11   1  -3 17909.9 488.283   1
  11  -1  -3 18973.7 503.756   1
  11   1  -4 34908.5 687.398   1
  11  -1  -4 34582.8 683.269   1
  11  -1  -5 107.137 119.349   1
  11   1  -5-18.8598 110.236   1
  11   1  -6 7200.76 337.373   1
  11  -1  -6 7097.19 336.448   1
  11   1  -7 1360.42 195.941   1
  11  -1  -7 1177.75 166.107   1
 -11   1   8 11661.3 436.191   8
 -11  -1   8 11020.8 436.777   8
  11  -1   8 11469.3 433.951  21
  11  -1   9 242.126 148.506  21
 -11  -1   9 271.174 156.298   8
 -11   1   9 187.047 141.414   8
 -11  -1  10 988.101 189.803   8
 -11   1  10 853.659 165.860   8
 -11   1  11 2691.48 226.842   9
 -11   1  11 2373.91 233.333   8
 -11  -1  11 2297.86 215.625   9
 -11  -1  11 2260.43 227.932   8
 -11   1  12 65.4875 132.431   9
 -11   1  12 266.870 145.473   8
  11   1  13 531.629 153.030  12
 -11   1  13 825.586 160.944   9
 -11  -1  13 690.058 153.954   9
 -11   1  13 736.639 159.180   8
  11   1  14 886.080 157.598  12
  11  -1  14 1318.23 178.689  12
 -11   1  14 968.116 163.610   9
 -11  -1  14 1229.05 166.757   9
  11   1  15 365.007 129.955  12
  11  -1  15 470.592 136.654  12
 -11   1  15 107.601 107.996   9
 -11  -1  15 224.891 117.400   9
  11   1  16 163.036 108.809  12
  11  -1  16 45.6063 96.2091  12
 -11   1  16 84.8910 102.045   9
 -11  -1  16 295.255 114.359   9
  11  -2   0-15.1252 108.557   1
  11   2   0-118.794 130.947   1
  11   2   1 2091.88 183.174   1
  11   2  -1 2440.72 199.249   1
  11  -2  -1 2606.46 203.069   1
  11  -2   1 2461.04 194.175   1
  11  -2  -2 344.528 121.502   1
  11  -2   2 533.062 121.340   1
  11   2  -2 288.344 123.557   1
  11  -2  -3 56.7014 121.142   1
  11   2  -3-94.9482 114.827   1
  11   2  -4-112.093 118.719   1
  11  -2  -4-68.0268 131.269   1
  11   2  -5 17700.2 504.933   1
  11  -2  -5 18157.9 516.839   1
  11  -2  -6 103.548 125.990   1
  11   2  -6 346.657 134.486   1
  11   2  -7 3522.38 255.810   1
  11  -2  -7 3514.99 247.563   1
  11  -2   7 3543.13 248.777  21
 -11   2   7 3163.79 234.901   8
 -11  -2   7 3310.50 248.802   8
 -11   2   7 3375.84 252.810  20
  11  -2   8 713.479 169.851  21
 -11  -2   8 128.304 129.539   8
 -11   2   8 461.790 151.436  20
 -11   2   8 416.058 143.968   8
  11  -2   9 1555.93 201.179  21
 -11  -2   9 1164.97 187.526   8
 -11   2   9 1091.36 186.865   8
  11  -2  10 388.433 161.608  21
 -11   2  10 496.217 169.444   8
 -11   2  11 795.954 177.829   9
 -11  -2  11 514.273 172.317   9
 -11   2  11 181.172 147.731   8
  11  -2  11 745.171 188.561  21
 -11   2  12 361.922 149.059   9
 -11  -2  12 745.142 172.652   9
 -11   2  12 476.001 148.772   8
  11   2  13-130.422 129.325  12
 -11   2  13 31.8111 132.029   9
 -11  -2  13-53.2046 137.540   9
 -11   2  13 244.868 131.374   8
  11   2  14-135.585 128.261  12
 -11   2  14 221.812 134.006   9
 -11  -2  14-200.801 131.450   9
  11   2  15 978.143 150.301  12
  11  -2  15 1071.35 157.373  12
 -11   2  15 1168.68 152.849   9
 -11  -2  15 920.086 151.736   9
  11   2  16 228.261 109.468  12
  11  -2  16 86.2720 103.614  12
  11  -2  16 231.519 100.107  11
 -11   2  16 123.319 106.401   9
 -11  -2  16-12.9408 97.0242   9
  11   3   0 59.7821 113.324   1
  11  -3   0 126.835 110.928   1
  11   3   1 33631.4 632.191   1
  11   3  -1 33085.4 647.853   1
  11  -3  -1 32726.6 655.267   1
  11  -3   1 33291.5 646.320   1
  11   3  -2 1775.96 189.106   1
  11  -3   2 2004.01 190.015   1
  11  -3  -2 1619.30 176.637   1
  11   3  -3 26309.6 603.651   1
  11  -3  -3 25614.0 596.288   1
  11   3  -4 2287.29 214.717   1
  11  -3  -4 2424.31 213.960   1
  11   3  -5 35.9919 112.677   1
  11  -3  -5 149.078 120.585   1
  11   3  -6 2080.37 208.568   1
  11  -3  -6 2220.82 216.623   1
 -11   3   7 2534.00 227.126   8
 -11   3   7 2561.41 226.997  20
  11  -3   7 2725.45 244.037  21
  11  -3   8 707.075 176.536  21
 -11   3   8 423.090 145.720  20
 -11   3   8 581.549 168.153   8
  11  -3   9-168.329 155.980  21
 -11   3   9-31.3352 131.220   8
 -11   3  10 238.137 151.835   9
 -11   3  10 206.938 147.430   8
  11  -3  10 24.3719 143.575  21
 -11   3  11 10899.6 383.768   9
 -11  -3  11 10921.6 390.013   9
  11  -3  11 10889.6 437.099  21
 -11   3  11 10884.9 427.275   8
  11   3  12-140.450 134.582  12
 -11   3  12-1.00039 130.303   9
 -11  -3  12 149.132 135.667   9
 -11   3  12-77.7788 123.629   8
  11  -3  12-49.1498 144.125  21
  11   3  13 2038.45 194.443  12
 -11   3  13 2350.91 209.630   9
 -11  -3  13 2334.88 206.203   9
 -11   3  13 2498.47 225.895   8
  11   3  14 330.142 129.311  12
  11  -3  14 420.177 133.338  11
 -11   3  14 498.837 141.838   9
 -11  -3  14 582.008 144.400   9
 -11   3  14 693.728 149.636   8
  11   3  15 818.720 143.109  12
  11  -3  15 1345.10 163.672  12
  11  -3  15 978.675 144.902  11
 -11   3  15 1109.05 147.716   9
 -11  -3  15 876.100 143.621   9
  11   3  16 69.8210 94.4786  12
  11  -3  16-10.7688 100.020  12
  11  -3  16-126.542 101.232  11
 -11   3  16-18.3381 96.7084   9
 -11  -3  16 56.0748 92.6334   9
  11  -4   0-131.822 124.749   1
  11   4   0-173.692 114.926   1
  11  -4  -1 303.352 123.835   1
  11   4  -1 574.481 140.560   1
  11   4  -2 19548.2 520.454   1
  11  -4  -2 19439.7 526.957   1
  11   4  -3 310.043 121.795   1
  11  -4  -3 429.453 138.521   1
  11   4  -4 117.172 113.738   1
  11  -4  -4 52.7190 115.360   1
  11   4  -5 3180.98 244.900   1
  11  -4  -5 3481.43 245.996   1
  11  -4   6 2493.32 211.950  21
 -11   4   6 2550.53 219.996   8
 -11   4   6 2389.63 215.314  20
  11   4  -6 2077.36 201.924   2
  11  -4   7 240.900 149.756  21
 -11   4   7 166.177 136.432  20
 -11   4   7 151.637 134.869   8
 -11   4   8 2088.02 215.249  20
  11  -4   8 2176.43 222.818  21
 -11   4   8 2208.64 227.697   8
  11  -4   9 377.941 153.318  21
 -11   4   9 471.406 162.935   8
  11  -4  10 123.554 157.025  21
 -11   4  10-202.682 140.452   8
  11   4  11 209.025 138.115  12
 -11  -4  11 161.217 141.006   9
  11  -4  11 269.974 157.062  21
 -11   4  11 100.070 126.456   8
  11   4  12 1176.46 164.980  12
 -11  -4  12 1192.01 178.773   9
  11  -4  12 1096.17 182.010  21
 -11   4  12 1170.51 177.575   8
  11   4  13 420.480 137.573  12
 -11  -4  13 450.229 146.605   9
  11  -4  13 398.757 156.328  21
 -11   4  13 454.056 140.247   8
  11   4  14 364.711 133.120  12
 -11  -4  14 108.299 114.657   9
 -11   4  14 342.374 125.286   8
  11   4  15 524.005 128.514  12
  11  -4  15 272.849 116.224  12
  11  -4  15 370.083 124.876  11
 -11  -4  15 365.657 116.726   9
  11   4  16 5.01182 97.8860  12
  11  -4  16-35.6089 100.238  11
 -11  -4  16-33.9246 93.5377   9
  11   5   0-121.163 112.118   1
  11   5  -1-55.8248 120.654   1
  11   5  -2-77.5728 114.322   1
  11   5  -3 2700.92 228.953   1
  11  -5  -3 2957.60 231.599   1
  11   5  -4 19587.9 543.821   1
  11  -5  -4 20378.8 557.171   1
  11  -5   5 6017.51 303.097  21
 -11   5   5 6212.62 313.689   8
 -11   5   5 6149.50 320.546  20
  11   5  -5 5609.80 310.288   2
  11  -5   6 11042.5 422.191  21
 -11   5   6 11120.3 417.604   8
 -11   5   6 11248.2 430.729  20
  11  -5   7 29.2185 156.720  21
 -11   5   7 171.488 135.380  20
 -11   5   7-90.3325 135.359   8
  11  -5   8 6371.15 334.763  21
 -11   5   8 6364.63 334.044   8
 -11   5   8 5581.31 325.823  20
  11  -5   9 954.848 178.440  21
 -11   5   9 795.595 165.477   8
 -11  -5  10 285.528 142.741   9
  11  -5  10 283.531 157.292  21
 -11   5  10 156.992 126.794   8
 -11  -5  11 26.0610 124.890   9
  11  -5  11-133.291 141.918  21
 -11   5  11-7.06490 129.389   8
 -11  -5  12-166.086 127.908   9
  11  -5  12 259.603 134.448  21
 -11   5  12-49.9669 130.384   8
  11   5  13 150.503 123.145  12
 -11  -5  13-111.277 124.841   9
  11  -5  13 14.4710 131.114  21
 -11   5  13 15.7528 108.551   8
 -11  -5  14 1264.12 151.383   9
  11  -5  14 1318.44 166.529  21
  11   5  15 5.00158 101.323  12
  11  -5  15 14.8088 96.9223  12
  11  -5  15-78.5590 102.074  11
 -11  -5  15 100.439 101.658   9
  11   6   0 122.474 104.416   1
  11   6  -1 3488.39 246.886   1
  11   6  -2 9372.92 374.614   1
  11   6  -2 8512.71 381.085   2
  11   6  -3 2507.84 223.955   1
 -11   6   3 2357.36 201.731   8
 -11   6   3 2506.64 220.460  20
  11   6  -3 2461.55 233.032   2
  11   6   3 2182.72 225.580   2
  11   6  -4 678.038 180.424   2
 -11   6   4 595.058 156.645  20
 -11   6   4 460.166 139.037   8
 -11   6   5 4510.61 280.984   8
 -11   6   5 4694.82 299.854  20
  11  -6   6-18.6510 151.008  21
 -11   6   6 92.9867 136.311  20
 -11   6   6 15.0678 135.132   8
  11  -6   7 58.6600 142.033  21
 -11   6   7-137.774 145.511  20
 -11   6   7-113.390 135.779   8
  11  -6   8 386.678 156.050  21
 -11   6   8 482.641 149.430   8
  11  -6   9 23.2052 145.852  21
 -11   6   9-85.6005 132.508   8
  11  -6  10-181.024 157.786  21
 -11   6  10 200.873 131.874   8
  11  -6  11 459.869 161.732  21
 -11   6  11 145.660 129.783   8
  11  -6  12 715.458 163.312  21
 -11   6  12 485.490 139.774   8
 -11  -6  13-88.5677 132.269  10
  11  -6  13-163.135 130.210  21
 -11   6  13 88.1666 114.079   8
  11  -6  14 82.6751 117.751  21
  11  -6  15 274.103 106.593  11
  11   7   0 119.503 150.505   2
  11   7  -1 16436.0 514.081   2
  11   7   1 16145.6 503.922   2
 -11   7   2 5144.61 284.440   8
  11   7  -2 5199.05 318.421   2
  11   7   2 4869.24 297.179   2
 -11   7   3 6151.43 309.792   8
  11   7  -3 6307.79 348.104   2
  11   7   3 6342.72 328.583   2
 -11   7   4 8130.00 355.461   8
 -11   7   4 8205.57 380.672  20
 -11   7   5 4583.89 279.524   8
 -11   7   5 4274.50 292.639  20
  11  -7   6 2368.66 226.427  21
 -11   7   6 2642.55 241.981   8
 -11   7   6 2575.16 240.461  20
  11  -7   7 119.988 153.948  21
 -11   7   7 194.076 140.529  20
 -11   7   7 127.901 134.935   8
  11  -7   8 297.047 153.165  21
 -11   7   8 13.6272 123.624   8
  11  -7   9 314.787 148.933  21
 -11   7   9 643.057 153.148   8
  11  -7  10 644.220 163.837  21
 -11   7  10 1316.40 183.986   8
  11  -7  11 2499.26 230.671  21
 -11   7  11 2481.13 220.461   8
  11  -7  12 814.146 160.840  21
 -11   7  12 982.521 159.478   8
 -11  -7  13 138.533 122.066  10
 -11   7  13 348.249 125.481   8
  11  -7  13 379.912 135.985  21
 -11  -7  14 213.552 114.421  10
  11  -7  14 176.488 109.998  21
  11   8   0 93.7963 147.996   2
 -11  -8   0-162.971 173.500  14
  11   8   1 667.242 175.803   2
 -11  -8  -1 533.384 179.013  14
 -11  -8   1 456.011 165.358  14
  11   8   2 912.527 186.439   2
 -11   8   2 739.403 146.429   8
 -11  -8  -2 1038.74 198.507  14
 -11  -8   2 860.270 195.254  14
 -11   8   3 25.0903 130.256   8
 -11  -8  -3 190.255 177.181  14
 -11  -8   3 298.418 170.798  14
 -11   8   4 884.384 172.606   8
 -11  -8  -4 1033.01 188.098  14
 -11  -8   4 774.015 185.678  14
 -11   8   5 3720.29 270.484  20
 -11   8   5 3705.19 262.813   8
 -11   8   6 128.401 141.695  20
 -11   8   6 64.7660 129.235   8
  11  -8   7 38.5721 139.098  21
 -11   8   7-16.5229 126.613  20
 -11   8   7-64.4192 128.021   8
  11  -8   8 1226.70 188.260  21
 -11   8   8 1249.29 182.747   8
  11  -8   9 558.367 164.254  21
 -11   8   9 672.335 152.961   8
  11  -8  10-50.7650 132.869  21
 -11   8  10 82.7557 131.683   8
  11  -8  11-226.878 137.822  21
 -11   8  11-10.6644 124.502   8
  11  -8  12 166.282 121.373  21
 -11   8  12 117.180 106.526   8
 -11  -8  13 17.2680 110.436  10
  11  -8  13-9.03209 105.257  21
 -11   8  13-15.0917 95.6880   8
 -11  -8  14 363.776 112.850  10
  11  -8  14 192.868 98.8957  21
 -11  -9   0-89.2093 166.506  14
 -11   9   1 3298.12 241.408   8
 -11  -9  -1 3524.06 280.720  14
 -11  -9   1 3284.28 271.806  14
 -11   9   2 2726.84 225.589   8
 -11  -9  -2 2773.55 252.619  14
 -11  -9   2 2500.57 247.534  14
 -11   9   3 4731.93 290.669   8
 -11  -9  -3 4867.24 297.693  14
 -11  -9   3 4689.05 295.279  14
 -11   9   4 795.990 168.193   8
 -11  -9  -4 878.325 195.063  14
 -11  -9   4 672.616 194.131  14
 -11   9   5 2631.08 230.742   8
 -11   9   5 2656.76 239.242  20
 -11  -9   5 2750.62 246.473  14
 -11   9   6 267.603 145.796  20
 -11   9   6 152.472 128.368   8
  11  -9   7 430.001 152.925  21
 -11   9   7 434.370 150.753  20
 -11   9   7 286.233 134.529   8
  11  -9   8 4442.38 274.646  21
 -11   9   8 4568.82 279.228   8
  11  -9   9 1843.33 201.215  21
 -11   9   9 1424.75 187.202   8
  11  -9  10 57.4824 124.381  21
 -11   9  10 305.541 121.665   8
  11  -9  11 2127.13 191.604  21
 -11   9  11 1943.67 186.851   8
  11  -9  12-22.4725 107.300  21
 -11   9  12 470.830 118.881   8
 -11  -9  13 305.037 110.338  10
  11  -9  13 109.662 94.5223  21
 -11 -10   0 34.4025 178.165  14
 -11  10   1 42.7524 127.467   8
 -11 -10  -1-12.9114 168.665  14
 -11 -10   1 37.1049 169.545  14
 -11  10   2 81.3548 131.797   8
 -11 -10  -2 101.775 180.964  14
 -11 -10   2 61.9169 164.239  14
 -11  10   3-60.6201 129.891   8
 -11 -10  -3 199.098 169.063  14
 -11 -10   3 63.4153 170.404  14
 -11 -10  -4 281.005 152.836  14
 -11 -10   4 645.201 174.463  14
 -11  10   5 671.982 151.092  20
 -11  10   5 536.356 138.319   8
 -11 -10  -5 146.521 144.884  14
 -11 -10   5 564.156 165.789  14
 -11  10   6 118.058 127.605  20
 -11  10   6 92.6094 122.267   8
 -11  10   7 567.174 146.928   8
  11 -10   8 808.355 158.231  21
 -11  10   8 1013.36 163.681   8
  11 -10   9 383.720 138.348  21
 -11  10   9 164.731 124.088   8
  11 -10  10 69.9457 115.682  21
 -11  10  10 209.996 112.405   8
  11 -10  11 425.511 128.413  21
 -11  10  11 355.759 115.931   8
  11  10  12 228.693 87.8812   6
  11 -10  12 331.069 105.667  21
 -11  10  12 339.102 105.903   8
 -11 -11   0-82.0432 166.911  14
 -11  11   1 1264.11 172.634   8
 -11 -11  -1 1353.75 220.527  14
 -11 -11   1 1337.52 210.449  14
 -11  11   2 871.645 160.157   8
 -11 -11  -2 1001.78 189.223  14
 -11 -11   2 709.259 179.692  14
 -11  11   3 142.733 135.944   8
 -11 -11  -3 46.6781 148.511  14
 -11 -11   3 57.5984 147.010  14
 -11  11   4 4788.93 281.883   8
 -11 -11  -4 4635.02 296.872  14
 -11 -11   4 4607.03 292.547  14
 -11  11   5 3884.63 264.650   8
 -11  11   5 3582.93 259.267  20
 -11 -11   5 3547.79 258.774  14
 -11 -11  -5 3573.16 258.654  14
 -11  11   6 1464.35 177.749  20
 -11  11   6 1662.03 182.244   8
 -11  11   7 207.023 125.570   8
  11 -11   8 945.486 160.055  21
 -11  11   8 1247.96 162.330   8
 -11 -11   8 1432.96 180.012   3
  11 -11   9 1135.98 154.680  21
 -11  11   9 1296.70 159.510   8
  11 -11  10 684.497 132.016  21
 -11  11  10 868.849 131.669   8
  11  11  11 47.0414 85.8022   6
  11 -11  11 137.803 96.6870  21
 -11  11  11 304.672 104.136   8
 -11  12   0-64.0078 113.700   8
 -11 -12   0-128.951 163.048  14
 -11  12   1 245.190 116.082   8
 -11 -12   1 46.4955 150.172  14
 -11 -12  -1 333.604 160.873  14
 -11 -12  -1 491.881 163.147   3
 -11  12   2-24.3500 130.904   8
 -11 -12   2-79.6551 164.716  14
 -11 -12  -2-100.793 166.258  14
 -11  12   3 8.89317 107.577   8
 -11 -12   3-34.6681 161.648  14
 -11 -12  -3-54.7552 151.972  14
 -11  12   4 729.268 142.410   8
 -11  12   5 863.022 157.393  20
 -11  12   5 490.226 130.987   8
 -11 -12   5 743.934 172.453   3
 -11  12   6 58.5529 111.962   8
 -11 -12   6 342.763 145.937   3
 -11  12   7 76.5901 106.861   8
 -11 -12   7 144.323 129.955   3
 -11  12   8 48.9285 92.5851   8
 -11 -12   8-55.6724 113.262   3
  11 -12   9 15.3874 100.395  21
 -11  12   9 227.785 92.5980   8
 -11  13   0 9.21613 101.645   8
 -11 -13   0 211.630 141.825   3
 -11  13   1 1790.47 176.917   8
 -11 -13   1 1599.22 186.886   3
 -11  13   2 3081.87 213.073   8
 -11 -13   2 2600.06 216.244   3
 -11  13   3 911.782 145.515   8
 -11 -13   3 817.919 164.431   3
 -11  13   4 169.624 112.839  20
 -11  13   4 63.7676 105.806   8
 -11 -13   4 62.1460 134.334   3
 -11  13   5 40.3540 102.949  20
 -11  13   5 46.9861 98.0408   8
 -11 -13   5 76.3555 125.582   3
 -11  13   6 107.762 97.0580   8
 -11 -13   6 184.085 118.289   3
 -11  13   7 115.621 99.3177   8
 -11 -13   7 208.757 117.312   3
 -11  13   8-114.120 80.0251   8
 -11  14   0-62.1372 91.4079   8
 -11 -14   0-221.356 130.395   3
 -11  14   1-136.253 98.5539   8
 -11 -14   1-17.0801 120.114   3
 -11  14   2 295.407 105.628   8
 -11 -14   2 292.550 127.011   3
 -11  14   3 347.097 115.034  20
 -11  14   3 566.970 115.502   8
 -11 -14   3 517.782 127.891   3
 -11  14   4 149.810 103.312  20
 -11  14   4 149.465 99.2257   8
 -11 -14   4 88.9313 114.233   3
 -11  14   5 55.6267 83.0516   8
 -11 -14   5-126.501 105.611   3
  12   0   0 21963.7 539.581   1
  12   0   1-94.3392 108.055   1
  12   0  -1 12.7731 110.646   1
  12   0  -2 13094.1 438.408   1
  12   0  -3-198.871 129.855   1
  12   0  -4 327.086 145.673   1
  12   0   5 274.676 140.935   2
 -12   0   5 31.1533 113.143   8
  12   0   6 30299.7 664.349   2
 -12   0   6 30196.2 675.929   8
  12   0   7 57.9583 153.816   2
 -12   0   7-22.9949 129.553   8
  12   0   8 8028.66 360.702   2
 -12   0   8 8094.93 374.486   8
 -12   0   9-138.414 135.095   8
 -12   0  10 285.901 156.510   8
 -12   0  11-428.653 159.700   9
 -12   0  11 7.92019 121.119   8
 -12   0  12 337.236 135.949   9
 -12   0  13-74.9646 122.126   9
  12   0  14 908.856 144.759  12
 -12   0  14 816.624 141.816   9
  12   0  15-89.9952 107.503  12
 -12   0  15-128.472 106.258   9
  12   0  16 983.407 125.055  12
  12   1   0 6235.04 300.990   1
  12  -1   0 5864.53 295.661   1
  12   1   1 4526.82 267.702   1
  12   1  -1 4451.05 264.290   1
  12  -1  -1 4909.51 278.912   1
  12  -1   1 4775.74 263.966   1
  12   1  -2 4063.40 268.358   1
  12  -1  -2 4371.26 272.831   1
  12   1  -3 2724.97 228.209   1
  12  -1  -3 2550.02 220.284   1
  12   1  -4 8358.87 367.537   1
  12  -1  -4 8737.22 366.315   1
  12   1   5 233.526 142.558   2
 -12  -1   5 193.535 115.926   8
 -12   1   5 271.768 133.663  20
 -12   1   5 215.357 116.419   8
  12   1   6 6733.45 330.177   2
 -12  -1   6 6040.61 324.378   8
 -12   1   6 6408.85 333.868   8
 -12   1   6 6857.50 355.258  20
  12   1   7 1443.17 198.046   2
 -12  -1   7 1602.73 202.817   8
 -12   1   7 1259.92 186.185   8
 -12  -1   8 2017.77 222.175   8
 -12   1   8 2050.87 212.791   8
 -12  -1   9 1068.04 184.366   8
 -12   1   9 1476.51 206.098   8
 -12  -1  10 201.192 132.161   8
 -12   1  10 286.032 145.928   8
 -12   1  11 477.643 151.039   9
 -12  -1  11 122.530 132.590   9
 -12   1  11 413.835 157.436   8
 -12   1  12-88.8119 126.631   9
 -12  -1  12-90.0601 135.290   9
 -12   1  12-19.1709 122.367   8
  12   1  13 136.802 125.897  12
 -12   1  13 429.413 129.634   9
 -12  -1  13 152.235 129.607   9
  12   1  14 0.83908 115.800  12
  12  -1  14 379.109 129.574  12
 -12   1  14 169.333 114.712   9
 -12  -1  14-45.9230 115.227   9
  12   1  15-27.4901 100.942  12
  12  -1  15-19.2430 96.8917  12
 -12   1  15-161.479 104.607   9
 -12  -1  15-75.8668 106.773   9
  12   2   0 3069.55 229.277   1
  12  -2   0 2791.45 222.317   1
  12   2  -1 23159.1 574.543   1
  12  -2  -1 24033.3 589.366   1
  12  -2   1 23567.7 567.380   1
  12   2  -2 320.613 139.866   1
  12  -2  -2 336.596 136.543   1
  12   2  -3 2786.27 229.930   1
  12  -2  -3 3145.54 244.761   1
  12   2   4 313.052 134.323   2
  12  -2  -4 205.208 126.258   1
  12   2  -4-54.8854 137.722   1
 -12   2   4 39.8297 105.509  20
  12   2   5 3053.13 238.489   2
 -12   2   5 2891.39 228.048   8
 -12   2   5 3026.41 248.465  20
 -12  -2   5 2773.92 230.993   8
  12   2   6 1064.20 183.444   2
 -12  -2   6 812.087 158.983   8
 -12   2   6 1024.49 184.735  20
 -12   2   6 874.395 165.013   8
 -12  -2   7 3089.39 249.795   8
 -12   2   7 3363.47 259.472   8
 -12   2   7 3316.33 267.190  20
 -12   2   8 2922.93 250.202   8
 -12  -2   8 2514.67 248.488   8
 -12   2   9 3905.21 283.614   8
 -12   2  10 426.354 155.689   9
 -12   2  10-9.68601 137.388   8
 -12   2  11 1038.01 171.858   9
 -12   2  11 1070.59 181.482   8
 -12  -2  11 574.530 158.098   9
  12   2  12-87.8361 134.377  12
 -12   2  12-32.6965 129.880   9
 -12  -2  12-182.721 133.036   9
 -12   2  12 288.889 141.526   8
  12   2  13 2309.65 194.627  12
 -12   2  13 2295.77 196.228   9
 -12  -2  13 2665.07 205.493   9
 -12   2  13 2415.15 217.232   8
  12   2  14 201.350 113.025  12
  12  -2  14 479.070 130.319  12
 -12   2  14 313.503 125.215   9
 -12  -2  14 280.489 120.062   9
  12   2  15 1589.69 155.452  12
  12  -2  15 1681.79 154.737  12
 -12   2  15 1156.04 139.222   9
 -12  -2  15 1029.78 137.030   9
  12  -3   0 244.848 129.482   1
  12   3   0 16.2845 107.087   1
  12   3  -1 9983.25 382.689   1
  12  -3  -1 9808.45 384.444   1
  12  -3   1 9879.93 383.571   1
  12  -3  -2 213.346 123.911   1
  12  -3   2 129.000 112.740   1
  12   3  -2 210.200 122.792   1
  12   3   3 3467.07 243.240   2
  12   3  -3 3216.76 249.938   1
 -12   3   3 3665.10 254.306  20
  12  -3  -3 3377.43 251.914   1
  12   3  -4 8.26405 135.203   2
  12   3   4-69.3214 133.149   2
 -12   3   4 58.9859 145.091  20
 -12   3   4-78.2786 117.487   8
  12   3  -5-38.2984 137.572   2
  12   3   5-93.6823 148.650   2
  12  -3   5-134.939 142.411  21
 -12   3   5-83.2530 139.249  20
 -12   3   5-67.2237 136.231   8
  12   3   6 3212.42 246.197   2
  12  -3   6 3059.91 245.287  21
 -12   3   6 3269.34 249.599   8
 -12   3   6 3380.57 267.947  20
  12  -3   7 722.224 172.798  21
 -12   3   7 785.671 173.560  20
 -12   3   7 826.326 173.216   8
  12  -3   8 268.768 153.871  21
 -12   3   8 10.4231 124.709  20
 -12   3   8-165.831 134.467   8
  12  -3   9 5051.56 314.585  21
 -12   3   9 5008.86 309.112   8
 -12   3  10 1079.99 174.806   9
 -12   3  10 1005.80 178.352   8
  12  -3  10 1124.63 191.737  21
  12   3  11 69.4295 123.484  12
 -12   3  11 33.5201 125.482   9
 -12  -3  11 42.2612 126.030   9
 -12   3  11-94.4655 137.269   8
  12   3  12 38.4330 124.864  12
 -12   3  12-65.4657 120.357   9
 -12  -3  12-132.536 129.166   9
 -12   3  12 5.85744 117.281   8
  12   3  13 1336.11 166.331  12
 -12   3  13 1008.27 158.400   9
 -12  -3  13 1312.78 165.486   9
 -12   3  13 1665.19 182.949   8
  12   3  14 383.943 132.692  12
  12  -3  14 657.642 133.271  12
 -12   3  14 349.771 123.425   9
 -12  -3  14 501.991 124.283   9
  12   3  15 149.547 99.9897  12
  12  -3  15 18.1973 99.1521  12
 -12   3  15-30.8521 94.1782   9
 -12  -3  15-88.8887 99.5871   9
  12  -4   0 1598.18 189.123   1
  12   4   0 1453.60 178.169   2
  12   4   0 1461.51 179.901   1
  12   4  -1 6257.98 317.108   2
  12   4   1 5704.12 300.633   2
  12   4  -1 6106.04 312.801   1
 -12   4   1 5991.63 314.197  20
  12  -4  -1 6723.53 328.572   1
  12  -4   1 6255.85 312.264   1
  12  -4   2 851.295 151.675   1
  12   4  -2 520.645 152.664   2
  12   4   2 731.873 161.640   2
  12   4  -2 522.565 141.599   1
 -12   4   2 463.084 132.691  20
  12   4  -3-173.350 156.017   2
  12   4   3-48.5088 142.235   2
 -12   4   3-79.7966 137.994  20
 -12   4   3-100.446 118.943   8
  12   4  -4 1324.22 201.651   2
  12   4   4 1380.36 191.126   2
 -12   4   4 1322.72 191.266  20
 -12   4   4 1498.06 187.047   8
  12   4   5 3325.94 254.526   2
  12  -4   5 3176.01 242.770  21
 -12   4   5 3191.05 241.434   8
 -12   4   5 3116.97 254.438  20
  12   4  -5 3147.35 271.146   2
  12  -4   6 6051.38 321.074  21
 -12   4   6 5681.44 316.851   8
 -12   4   6 5334.17 323.234  20
  12   4  -6 4984.26 313.554   2
  12  -4   7 2235.42 229.154  21
 -12   4   7 2232.55 220.798   8
 -12   4   7 2028.28 221.349  20
  12  -4   8 1491.53 213.476  21
 -12   4   8 1000.64 180.911  20
 -12   4   8 1085.22 181.911   8
  12  -4   9 564.019 164.760  21
 -12   4   9 516.728 144.335   8
 -12  -4  10 105.529 134.638   9
  12  -4  10-186.727 145.270  21
 -12   4  10 122.567 128.123   8
 -12  -4  11-272.821 143.341   9
  12  -4  11-146.191 145.707  21
 -12   4  11 5.84658 120.582   8
  12   4  12 39.1976 115.649  12
 -12  -4  12 61.2374 126.934   9
 -12   4  12 73.0982 121.467   8
  12   4  13 1488.37 168.301  12
 -12  -4  13 1265.14 166.264   9
 -12   4  13 1297.41 165.132   8
  12   4  14 320.855 116.334  12
 -12  -4  14 612.189 127.626   9
 -12   4  14 559.718 122.345   8
  12   4  15 456.068 110.327  12
  12  -4  15 594.418 113.269  12
 -12  -4  15 561.559 115.502   9
 -12   5   0 3407.98 252.879  20
  12   5   0 3503.29 267.916   2
  12   5  -1 280.925 161.833   2
  12   5   1 122.597 148.504   2
 -12   5   1 228.666 138.687  20
 -12   5  -1 388.259 142.330  20
  12   5   2 4659.67 297.656   2
 -12   5   2 5225.68 305.452  20
 -12   5  -2 4795.92 283.202  20
  12   5  -2 5239.78 320.064   2
  12   5  -3 1563.42 213.962   2
  12   5   3 1418.07 197.845   2
 -12   5   3 1562.34 197.541  20
 -12   5   3 1121.24 165.481   8
  12   5   4 4623.30 292.245   2
 -12   5   4 4806.67 286.494   8
 -12   5   4 4580.59 292.824  20
  12   5  -4 4539.51 300.670   2
  12   5  -5 118.675 145.074   2
 -12   5   5-21.7550 141.621  20
 -12   5   5-96.3116 127.587   8
  12  -5   6 6879.07 336.264  21
 -12   5   6 7011.91 340.044   8
 -12   5   6 7113.16 359.887  20
  12  -5   7 522.124 157.737  21
 -12   5   7 454.129 157.921  20
 -12   5   7 484.191 154.899   8
 -12   5   8 40.1725 122.975  20
 -12   5   8 82.2460 132.307   8
  12  -5   9 83.8364 141.421  21
 -12   5   9 121.947 140.625   8
  12  -5  10 1704.59 202.975  21
 -12   5  10 1629.75 198.303   8
 -12  -5  10 1289.11 173.700   9
 -12  -5  11 313.264 135.218   9
  12  -5  11 136.769 134.110  21
 -12   5  11 364.537 140.274   8
 -12  -5  12 261.082 125.143   9
  12  -5  12 418.868 144.289  21
 -12   5  12 344.761 128.163   8
 -12  -5  13 65.3286 111.024   9
 -12   5  13 219.778 119.669   8
  12  -5  14 598.812 123.046  11
 -12   5  14 395.683 108.467   8
 -12   6   0 4362.61 290.046  20
  12   6   0 4091.29 288.289   2
 -12   6   1 4455.35 295.454  20
  12   6  -1 4324.28 298.829   2
  12   6   1 5147.53 312.008   2
  12   6  -2 953.632 203.721   2
  12   6   2 1358.75 204.448   2
 -12   6   2 1385.26 198.430  20
  12   6  -3 482.338 179.880   2
  12   6   3 496.523 169.102   2
 -12   6   3 857.881 186.051  20
 -12   6   3 782.523 158.998   8
  12   6   4 37.5173 140.309   2
 -12   6   4 149.152 143.818  20
 -12   6   4 190.558 126.906   8
  12   6  -4 59.5044 150.664   2
 -12   6   5 309.949 153.577  20
 -12   6   5 355.960 143.921   8
  12  -6   6 4236.65 282.311  21
 -12   6   6 4437.55 289.481   8
 -12   6   6 4446.02 291.857  20
  12  -6   7 766.732 177.610  21
 -12   6   7 1029.41 185.187  20
 -12   6   7 729.779 163.383   8
  12  -6   8 4188.00 275.443  21
 -12   6   8 3784.94 271.105   8
 -12   6   8 3611.16 259.055  20
  12  -6   9-179.323 141.697  21
 -12   6   9 79.6715 135.178   8
  12  -6  10 124.097 135.624  21
 -12   6  10 30.3369 127.318   8
  12  -6  11 471.327 146.382  21
 -12   6  11 308.514 131.063   8
  12  -6  12 562.245 142.245  21
 -12   6  12 553.523 140.815   8
 -12   6  13 281.302 109.195   8
  12  -6  14 770.743 121.875  11
 -12   6  14 651.045 113.260   8
  12   7   0 2156.01 244.690   2
  12   7  -1 4345.91 305.671   2
  12   7   1 4107.76 292.654   2
  12   7  -2 1282.69 209.202   2
  12   7   2 1043.66 197.913   2
 -12   7   2 1521.91 200.434  20
 -12   7   2 957.394 163.597   8
 -12   7   3 4774.96 282.599   8
 -12   7   3 4914.42 301.012  20
  12   7   3 4569.09 295.944   2
 -12   7   4 704.975 169.695  20
 -12   7   4 973.721 165.975   8
 -12  -7  -4 853.253 189.848  14
 -12  -7   4 1030.25 200.555  14
 -12   7   5-60.2981 134.119  20
 -12   7   5-144.356 127.296   8
 -12  -7   5-326.705 164.278  14
 -12   7   6 688.091 174.479  20
 -12   7   6 705.632 161.553   8
  12  -7   7 2074.24 214.375  21
 -12   7   7 1926.53 206.704  20
 -12   7   7 2034.17 215.289   8
  12  -7   8 176.958 142.187  21
 -12   7   8-129.201 124.781  20
 -12   7   8 11.3471 125.107   8
  12  -7   9 2185.42 216.322  21
 -12   7   9 2266.52 215.914   8
  12  -7  10 83.4704 125.420  21
 -12   7  10 65.0258 120.388   8
  12  -7  11-118.628 122.948  21
 -12   7  11-23.6890 116.587   8
  12  -7  12 186.688 115.264  21
 -12   7  12 198.341 116.108   8
 -12  -7  13 678.110 127.827  10
  12  -7  13 1072.48 139.758  21
 -12   7  13 1029.62 137.614   8
 -12  -8   0 389.984 192.283  14
  12   8   0 443.036 167.732   2
 -12  -8  -1 7021.18 362.551  14
 -12  -8   1 6440.50 344.575  14
  12   8   1 6476.54 352.428   2
  12   8   2 646.951 172.265   2
 -12   8   2 441.330 141.404   8
 -12  -8  -2 240.458 178.155  14
 -12  -8   2 475.963 180.190  14
 -12   8   3 78.5440 137.385  20
 -12   8   3 56.4801 118.974   8
 -12  -8  -3 213.597 179.218  14
 -12  -8   3 118.127 157.701  14
 -12   8   4 235.282 137.319  20
 -12   8   4 538.359 160.938   8
 -12  -8  -4 456.840 162.501  14
 -12  -8   4 532.050 179.265  14
 -12   8   5 585.170 175.089  20
 -12   8   5 708.373 161.851   8
 -12  -8   5 512.987 175.271  14
 -12   8   6 6.19087 138.401  20
 -12   8   6 21.7939 124.229   8
  12  -8   7 3277.70 244.379  21
 -12   8   7 2932.54 247.867   8
 -12   8   7 3248.15 243.481  20
  12  -8   8 1088.82 174.906  21
 -12   8   8 1365.85 175.697   8
  12  -8   9 1364.06 186.085  21
 -12   8   9 1548.23 189.062   8
  12  -8  10 158.520 123.387  21
 -12   8  10 191.575 125.471   8
  12  -8  11 62.1902 113.912  21
 -12   8  11-10.6647 109.954   8
  12  -8  12 352.298 113.339  21
 -12   8  12 171.910 96.3772   8
  12  -8  13 401.656 105.054  21
 -12  -9   0 7248.95 357.944  14
 -12  -9  -1-97.8897 158.467  14
 -12  -9   1 302.180 169.947  14
 -12   9   2 196.395 124.236   8
 -12  -9  -2 323.773 176.010  14
 -12  -9   2 299.559 184.506  14
 -12   9   3 330.904 142.562  20
 -12   9   3 170.165 122.029   8
 -12  -9  -3 21.6180 158.463  14
 -12  -9   3 61.6040 166.108  14
 -12   9   4 2282.14 212.747   8
 -12   9   4 2841.20 249.632  20
 -12  -9  -4 2680.02 248.992  14
 -12  -9   4 2396.38 230.906  14
 -12   9   5 149.469 129.839  20
 -12   9   5 33.1272 123.378   8
 -12  -9   5-298.167 160.654  14
 -12   9   6 2487.36 218.507   8
 -12   9   6 2710.97 231.003  20
 -12   9   7 181.327 126.176  20
 -12   9   7 64.4366 129.714   8
  12  -9   8 211.542 128.359  21
 -12   9   8 624.510 143.409   8
  12  -9   9 1231.52 171.038  21
 -12   9   9 1660.18 181.957   8
  12  -9  10 1371.07 161.715  21
 -12   9  10 1320.91 163.093   8
  12  -9  11 2.09588 104.360  21
 -12   9  11-9.73930 103.187   8
  12  -9  12 95.2822 96.1552  21
 -12   9  12 89.7074 89.8443   8
 -12 -10   0 2595.81 261.648  14
 -12 -10  -1 1674.23 221.063  14
 -12 -10   1 1578.23 219.656  14
 -12  10   2 1154.03 173.501   8
 -12 -10  -2 1001.70 198.748  14
 -12 -10   2 1619.28 208.476  14
 -12  10   3 1839.78 194.312   8
 -12  10   3 1747.75 207.045  20
 -12 -10  -3 1799.75 217.876  14
 -12 -10   3 1747.67 212.517  14
 -12  10   4 57.7976 130.105  20
 -12  10   4 67.8245 135.554   8
 -12 -10  -4 126.406 151.197  14
 -12 -10   4 54.7719 153.144  14
 -12  10   5 593.767 147.830  20
 -12  10   5 555.965 150.470   8
 -12 -10  -5 585.012 159.241  14
 -12 -10   5 641.220 159.688  14
 -12  10   6 2030.38 197.521   8
 -12  10   6 1922.81 200.043  20
 -12  10   7 2226.05 208.258   8
 -12  10   7 2557.89 204.687  20
 -12  10   8 1275.11 166.689   8
  12 -10   9 356.542 118.477  21
 -12  10   9 575.928 128.378   8
  12 -10  10 11.7170 109.884  21
 -12  10  10 6.33998 94.8089   8
  12 -10  11 118.867 96.4672  21
 -12  10  11 5.76049 82.8125   8
 -12 -11   0 560.518 172.242  14
 -12  11   1 442.709 126.908   8
 -12 -11  -1 55.4460 147.666  14
 -12 -11   1-32.6597 143.204  14
 -12  11   2 788.639 144.730   8
 -12 -11  -2 736.093 177.242  14
 -12 -11   2 635.079 175.192  14
 -12  11   3 3174.77 224.287   8
 -12  11   3 3399.83 250.311  20
 -12 -11  -3 2904.21 239.159  14
 -12 -11   3 3351.87 249.524  14
 -12  11   4 338.457 136.604  20
 -12  11   4 323.994 119.717   8
 -12 -11  -4 245.307 152.034  14
 -12 -11   4 180.380 148.503  14
 -12  11   5-115.388 121.660  20
 -12  11   5 61.3311 112.349   8
 -12 -11   5 91.9645 137.541  14
 -12  11   6 653.870 132.087  20
 -12  11   6 718.495 142.830   8
 -12  11   7 1547.58 164.598   8
 -12  11   8 157.376 97.7855   8
 -12 -11   8 370.556 127.729   3
 -12  11   9-10.9450 90.2766   8
 -12 -12   0 2485.71 210.913   3
 -12 -12   0 2378.58 227.959  14
 -12  12   1 555.610 137.022   8
 -12 -12   1 630.950 165.411  14
 -12 -12  -1 570.296 165.046  14
 -12  12   2 1052.40 158.460  20
 -12  12   2 699.231 137.072   8
 -12 -12   2 797.613 171.513  14
 -12 -12  -2 896.055 183.036  14
 -12  12   3 40.7899 107.856  20
 -12  12   3-41.5167 102.330   8
 -12  12   4 379.532 120.885  20
 -12  12   4 90.5395 105.381   8
 -12 -12   4 88.4451 135.118   3
 -12  12   5 43.6170 101.505  20
 -12  12   5 178.788 106.764   8
 -12 -12   5 261.742 141.798   3
 -12  12   6 287.218 110.717  20
 -12  12   6 116.325 98.2798   8
 -12 -12   6 197.982 120.523   3
 -12  12   7-95.1700 87.0112   8
 -12 -12   7-49.1175 117.030   3
 -12  12   8 1213.13 135.982   8
 -12 -13   0 1559.99 171.143   3
 -12  13   1 808.724 134.034  20
 -12  13   1 673.871 117.048   8
 -12 -13   1 797.706 144.614   3
 -12  13   2-19.6551 99.3962  20
 -12  13   2 2.15336 87.4056   8
 -12 -13   2-144.010 124.577   3
 -12  13   3 470.864 115.306  20
 -12  13   3 500.871 115.112   8
 -12 -13   3 627.239 139.936   3
 -12  13   4 498.384 120.158  20
 -12  13   4 450.446 105.743   8
 -12 -13   4 322.756 120.648   3
 -12  13   5 102.597 89.4287  20
 -12  13   5 219.681 99.6098   8
 -12 -13   5 112.705 107.173   3
 -12  13   6 447.361 102.396   8
 -12 -13   6 310.636 111.680   3
 -12  14   0-23.3439 82.6938  20
 -12  14   1 330.755 100.826  20
 -12  14  -1 453.340 104.947  20
  13   0   0 98.4473 141.605   2
 -13   0   0 170.899 125.883  20
  13   0  -1 50.9246 141.231   2
  13   0   1 116.365 148.900   2
 -13   0   1 108.219 123.252  20
  13   0  -2 596.351 181.073   2
  13   0   2 710.548 183.858   2
 -13   0   2 1060.09 187.152  20
  13   0   3-48.8463 153.037   2
  13   0   4 1299.65 197.880   2
  13   0   5 89.0901 148.241   2
 -13   0   5-55.7735 142.916   8
  13   0   6 1224.11 190.344   2
 -13   0   6 1050.39 179.079   8
  13   0   7 122.166 152.082   2
 -13   0   7 38.6943 143.671   8
  13   0   8 425.439 154.591   2
 -13   0   8 560.440 156.632   8
 -13   0   9-169.490 140.834   8
 -13   0  10 1337.37 190.419   8
 -13   0  11-295.493 144.758   9
 -13   0  12 702.400 153.128   9
  13   0  13-191.321 122.242  12
 -13   0  13 150.198 121.280   9
  13   0  14-230.766 108.065  12
 -13   0  14-88.4896 104.368   9
  13   1   0-42.9202 144.460   2
  13  -1   0 127.751 140.722   2
 -13   1   0-111.355 136.626  20
  13   1  -1 559.920 171.812   2
  13   1   1 779.596 185.302   2
  13  -1  -1 488.424 156.200   2
  13  -1   1 839.512 179.098   2
 -13   1   1 445.497 146.845  20
  13   1  -2 26710.4 628.208   2
  13  -1  -2 27178.6 620.685   2
  13   1   2 27220.2 634.746   2
  13  -1   2 26582.0 632.878   2
 -13   1   2 26675.5 644.537  20
  13   1  -3 1613.10 204.238   2
  13   1   3 1886.09 223.848   2
  13  -1   3 1739.65 209.197   2
 -13   1   3 1774.30 211.390  20
  13   1   4 2545.43 235.293   2
  13  -1   4 2768.64 244.676   2
 -13   1   4 2514.55 238.677  20
  13   1   5 9067.53 386.836   2
  13  -1   5 8338.30 382.904   2
 -13  -1   5 8601.46 373.809   8
 -13   1   5 8435.58 367.352   8
  13   1   6 174.064 149.605   2
  13  -1   6 170.422 158.862   2
 -13  -1   6-60.0060 138.964   8
 -13   1   6 104.960 132.711   8
  13   1   7 126.477 145.865   2
  13  -1   7 66.4752 148.339   2
 -13  -1   7 135.726 145.864   8
 -13   1   7 296.589 148.420   8
  13   1   8 233.005 151.886   2
  13  -1   8 426.836 159.952   2
 -13  -1   8 396.862 157.166   8
 -13   1   8 229.233 145.783   8
  13  -1   9 1634.19 198.899   2
 -13  -1   9 1804.14 202.593   8
 -13   1   9 1647.65 207.329   8
 -13   1  10 1054.34 171.945   9
 -13   1  10 1522.39 189.195   8
 -13   1  11-114.283 134.937   9
 -13  -1  11-9.83171 129.597   9
 -13   1  11-54.1867 125.997   8
  13   1  12 1702.25 177.369  12
 -13   1  12 2037.01 190.263   9
 -13  -1  12 1957.61 185.168   9
  13   1  13-65.0126 112.899  12
 -13   1  13 88.9919 111.137   9
 -13  -1  13 154.499 114.891   9
  13   1  14 40.5812 95.9852  12
  13  -1  14-107.181 101.713  12
 -13   1  14-129.965 110.137   9
 -13  -1  14-56.1405 104.466   9
  13   2   0-118.299 148.403   2
  13  -2   0-168.720 156.503   2
 -13   2   0 26.1437 130.590  20
  13   2  -1 147.091 147.873   2
  13   2   1 362.325 164.179   2
  13  -2  -1 587.137 155.932   2
  13  -2   1 746.857 179.384   2
 -13   2   1 606.027 152.232  20
  13   2  -2 583.067 162.133   2
  13   2   2 820.664 178.001   2
  13  -2   2 794.764 178.778   2
 -13   2   2 663.228 167.401  20
  13   2  -3 1290.44 199.542   2
  13   2   3 1120.17 183.607   2
 -13   2   3 1234.25 196.356  20
  13   2  -4-75.3255 150.373   2
  13   2   4-55.9001 148.408   2
 -13   2   4-82.5159 137.031  20
 -13   2   4 72.9561 124.125   8
  13   2   5 1195.94 188.648   2
 -13  -2   5 1112.91 182.547   8
 -13   2   5 1631.54 207.877  20
 -13   2   5 1475.66 192.045   8
  13   2   6 204.314 150.757   2
 -13   2   6 418.294 159.626  20
 -13   2   6 411.823 145.168   8
  13   2   7 109.105 144.762   2
 -13   2   7 508.844 151.887   8
 -13   2   8 452.563 146.923   8
 -13   2   9 556.186 159.865   8
  13  -2  10 215.810 132.509   2
 -13   2  10 295.611 135.449   9
 -13   2  10 384.004 141.877   8
 -13   2  11 590.512 146.954   9
 -13  -2  11 203.193 128.294   9
 -13   2  11 711.277 157.430   8
  13   2  12 477.808 129.777  12
 -13   2  12 743.650 151.927   9
 -13  -2  12 649.511 146.566   9
 -13   2  12 744.408 151.242   8
  13   2  13 177.165 111.926  12
 -13   2  13 127.377 113.724   9
 -13  -2  13 176.150 119.727   9
  13   2  14-27.9362 98.0770  12
  13  -2  14 223.442 106.910  12
 -13   2  14 69.4192 99.5622   9
 -13  -2  14-121.302 96.9445   9
  13   3   0-74.1108 161.686   2
  13  -3   0-20.5039 149.304   2
 -13   3   0 35.3303 128.799  20
  13   3  -1-52.6273 154.207   2
  13   3   1-114.892 147.923   2
  13  -3   1 47.2998 146.281   2
 -13   3   1 0.94063 142.145  20
 -13   3  -1 18.8540 131.932  20
  13   3  -2 24.0864 158.840   2
  13   3   2 68.5483 151.529   2
 -13   3   2-29.2304 139.117  20
  13   3   3 5004.90 303.774   2
 -13   3   3 4889.03 303.152  20
  13   3  -3 5104.25 312.456   2
  13   3  -4 346.495 169.434   2
  13   3   4 334.868 163.762   2
 -13   3   4 252.227 150.479  20
 -13   3   4 136.196 128.276   8
  13   3   5 15759.0 493.612   2
 -13   3   5 15625.5 491.437   8
 -13   3   5 15650.4 518.285  20
  13   3  -5 15430.8 499.176   2
  13   3   6 212.490 155.128   2
 -13   3   6 141.123 142.283  20
 -13   3   6 184.753 134.667   8
 -13   3   7 307.044 146.240  20
 -13   3   7 186.318 135.306   8
 -13   3   8 2480.73 228.958   8
 -13   3   9 1516.85 204.566   8
 -13   3  10-127.946 130.860   9
 -13  -3  10-56.4545 132.923   9
 -13   3  10 35.5024 118.925   8
  13   3  11 25.5510 115.224  12
 -13   3  11 98.7111 120.603   9
 -13  -3  11-123.676 136.849   9
 -13   3  11 217.078 125.265   8
  13   3  12 1413.83 165.280  12
 -13   3  12 1408.44 159.298   9
 -13  -3  12 1399.62 165.776   9
 -13   3  12 1518.72 178.715   8
  13   3  13 1164.21 149.581  12
 -13   3  13 783.752 131.270   9
 -13  -3  13 854.673 141.513   9
 -13   3  13 891.517 145.515   8
  13   3  14-58.7821 98.4224  12
  13  -3  14-126.650 97.5008  12
 -13   3  14 36.1208 91.6121   9
 -13  -3  14-181.762 105.327   9
  13   4   0-127.279 157.146   2
  13  -4   0-342.234 158.460   2
 -13   4   0-54.4622 144.040  20
  13   4  -1 44.7556 156.824   2
  13   4   1-107.745 158.456   2
 -13   4   1-26.1535 133.523  20
 -13   4  -1-109.291 129.075  20
  13   4  -2 32.1893 150.527   2
  13   4   2-17.8579 148.896   2
 -13   4   2-179.629 149.621  20
  13   4  -3 260.069 166.094   2
  13   4   3 250.980 158.344   2
 -13   4   3 203.993 146.621  20
  13   4  -4 257.638 164.735   2
  13   4   4 69.7699 155.148   2
 -13   4   4 142.543 144.196  20
 -13   4   4 150.806 134.185   8
  13   4  -5 209.629 152.298   2
  13   4   5 448.048 162.583   2
 -13   4   5 354.317 152.451  20
 -13   4   5 379.009 145.304   8
 -13   4   6 163.796 156.835  20
 -13   4   6 97.2409 126.335   8
 -13   4   7-87.6122 136.389  20
 -13   4   7-129.425 128.403   8
 -13   4   8 251.381 139.116  20
 -13   4   8 48.5799 130.945   8
 -13   4   9 202.287 135.392   8
 -13  -4  10 427.052 135.065   9
 -13   4  10 681.552 160.466   8
 -13  -4  11-27.1460 126.897   9
 -13   4  11 303.808 126.175   8
 -13  -4  12 82.0075 109.111   9
 -13   4  12 160.569 124.370   8
 -13  -4  13 37.7763 101.933   9
 -13   4  13 106.822 112.848   8
  13  -4  14 72.5822 94.7006  12
  13   5   0 60.6140 152.306   2
 -13   5   0 59.8564 133.442  20
  13   5  -1 414.654 179.632   2
  13   5   1 463.608 168.498   2
 -13   5   1 550.996 168.423  20
 -13   5  -1 341.274 144.883  20
 -13   5   2 13517.4 476.911  20
  13   5  -2 14003.1 491.302   2
  13   5   2 14096.1 477.343   2
  13   5  -3 1242.24 209.110   2
  13   5   3 1339.68 198.384   2
 -13   5   3 1435.19 206.507  20
  13   5  -4-97.0628 156.258   2
  13   5   4 111.292 149.828   2
 -13   5   4-34.9487 154.523  20
 -13   5   4-66.5699 134.391   8
  13   5   5 262.065 154.619   2
 -13   5   5-42.6843 141.838  20
 -13   5   5 137.695 133.447   8
  13   5  -5-40.1559 148.385   2
  13  -5   6 960.931 165.792  21
 -13   5   6 1102.62 188.651  20
 -13   5   6 834.202 167.642   8
  13  -5   7 292.764 142.374  21
 -13   5   7 363.489 148.307  20
  13  -5   8 1630.86 195.681  21
 -13   5   8 1095.90 179.103  20
 -13   5   8 1341.41 182.119   8
  13  -5   9-226.602 145.930  21
 -13   5   9 141.899 135.754   8
 -13  -5  10 2582.16 197.190   9
 -13   5  10 2890.02 228.018   8
 -13  -5  11 604.193 134.522   9
 -13   5  11 497.419 133.103   8
 -13  -5  12 3468.64 200.063   9
 -13   5  12 3602.27 226.853   8
 -13  -5  13 306.531 107.728   9
 -13   5  13 289.447 108.457   8
  13   6   0 22.2791 154.344   2
 -13   6   0-116.932 150.244  20
  13   6  -1-11.6416 147.666   2
  13   6   1-67.1320 148.941   2
 -13   6   1 118.153 138.478  20
 -13   6  -1 159.076 134.167  20
  13   6  -2 867.555 194.876   2
  13   6   2 718.748 177.264   2
 -13   6   2 726.542 163.090  20
 -13   6  -2 624.216 152.082  20
  13   6  -3-23.1289 150.710   2
  13   6   3-51.7599 146.410   2
 -13   6   3-79.8445 139.617  20
 -13   6   3 64.6723 111.594   8
  13   6   4 647.000 159.994   2
 -13   6   4 608.141 167.694  20
 -13   6   4 565.738 153.151   8
 -13   6   5-103.531 145.633  20
 -13   6   5 109.740 128.730   8
 -13   6   6 368.247 159.698  20
 -13   6   6 372.017 152.201   8
  13  -6   7 362.710 141.860  21
 -13   6   7 354.358 144.806  20
 -13   6   7 385.000 145.513   8
  13  -6   8-178.857 142.478  21
 -13   6   8-291.695 135.761  20
 -13   6   8-114.590 124.457   8
  13  -6   9 49.6150 133.072  21
 -13   6   9 30.9726 114.746   8
  13  -6  10 40.8295 137.658  21
 -13   6  10 187.557 116.984   8
 -13   6  11 78.4618 119.325   8
 -13   6  12 197.681 118.364   8
 -13   6  13 209.957 97.6616   8
  13   7   0 28.5683 153.152   2
 -13   7   0-37.2348 142.943  20
  13   7  -1 489.361 168.717   2
  13   7   1 318.104 162.481   2
 -13   7   1 393.624 155.999  20
 -13   7  -1 333.629 147.932  20
  13   7   2 82.3969 141.356   2
 -13   7   2-63.4804 131.112  20
 -13   7  -2 84.2778 121.934  20
  13   7  -2 32.4864 144.398   2
  13   7   3 298.851 157.812   2
 -13   7   3 35.9602 132.281  20
 -13   7   3 26.1219 119.184   8
 -13  -7  -3 15.2230 166.670  14
 -13  -7   3-195.239 174.298  14
 -13   7   4 3700.30 258.712   8
 -13   7   4 3479.32 261.778  20
 -13  -7  -4 3489.55 257.888  14
 -13  -7   4 3244.69 254.048  14
 -13   7   5 4984.57 286.306   8
 -13   7   5 4644.50 297.873  20
 -13  -7   5 4957.31 290.325  14
 -13   7   6 4240.98 265.429   8
 -13   7   6 4114.47 272.011  20
  13  -7   7 1320.89 185.222  21
 -13   7   7 1228.99 179.853  20
 -13   7   7 1125.05 174.656   8
  13  -7   8 67.9775 124.074  21
 -13   7   8-26.8135 119.906  20
 -13   7   8 134.653 123.380   8
  13  -7   9 1774.11 187.975  21
 -13   7   9 2217.56 207.178   8
  13  -7  10 1452.62 166.322  21
 -13   7  10 1852.45 177.734   8
 -13   7  11-16.3313 110.295   8
 -13   7  12 861.079 130.230   8
 -13   8   0 60.7283 138.708  20
 -13  -8   0-10.0028 173.912  14
 -13   8   1 393.120 154.186  20
 -13   8  -1 561.270 149.885  20
 -13  -8  -1 680.384 181.862  14
 -13  -8   1 232.151 153.884  14
 -13   8   2 450.261 160.138  20
 -13   8  -2 478.778 152.294  20
 -13  -8  -2 452.803 180.094  14
 -13  -8   2 269.708 172.354  14
  13   8   2 397.957 168.181   2
 -13   8   3 315.777 151.586  20
 -13   8  -3 364.810 133.343  20
 -13   8   3 238.288 130.332   8
 -13  -8  -3 274.988 163.686  14
 -13  -8   3 285.472 169.389  14
  13   8   3 308.914 151.286   2
 -13   8   4 115.167 127.551  20
 -13   8   4-55.4416 122.169   8
 -13  -8  -4-70.0327 163.766  14
 -13  -8   4-210.872 157.165  14
 -13   8   5 632.333 154.815  20
 -13   8   5 658.511 146.177   8
 -13  -8   5 843.705 179.177  14
 -13   8   6-57.4963 128.077  20
 -13   8   6 5.07262 115.341   8
 -13   8   7 63.7321 118.957  20
 -13   8   7-3.21689 116.965   8
  13  -8   8 30.7688 122.244  21
 -13   8   8 10.5968 116.665  20
 -13   8   8-83.6392 120.968   8
  13  -8   9-13.2515 116.368  21
 -13   8   9 149.483 110.452   8
  13  -8  10-170.591 112.591  21
 -13   8  10 56.1789 97.0651   8
 -13   8  11 105.796 93.1356   8
 -13   9   0-8.43360 121.665  20
 -13  -9   0 131.684 170.665  14
 -13   9   1 507.967 145.898  20
 -13   9  -1 813.905 165.452  20
 -13  -9  -1 518.500 183.895  14
 -13  -9   1 766.849 194.228  14
 -13   9   2 4384.93 294.426  20
 -13   9  -2 4769.37 282.295  20
 -13  -9  -2 5034.84 294.621  14
 -13  -9   2 4707.12 287.621  14
 -13   9   3 6297.15 297.879   8
 -13   9   3 6140.18 327.584  20
 -13   9  -3 6516.39 315.708  20
 -13  -9  -3 6126.48 318.220  14
 -13  -9   3 6432.83 320.631  14
 -13   9   4 1101.11 184.942  20
 -13   9   4 1028.19 165.257   8
 -13  -9  -4 930.490 178.625  14
 -13  -9   4 912.588 179.660  14
 -13   9   5 2279.89 203.603   8
 -13   9   5 2292.45 213.852  20
 -13  -9   5 2133.89 214.247  14
 -13   9   6 1375.09 171.882  20
 -13   9   6 1178.41 165.339   8
 -13   9   7-137.811 123.423  20
 -13   9   7 242.963 116.713   8
 -13   9   8 699.996 140.236   8
  13  -9   9 659.955 123.612  21
 -13   9   9 754.416 133.292   8
  13  -9  10 21.4237 101.233  21
 -13   9  10 65.1822 87.6755   8
 -13  10   0-66.0526 121.928  20
 -13 -10   0 99.2877 155.140  14
 -13  10   1 32.6463 121.106  20
 -13  10  -1 8.49244 113.833  20
 -13 -10  -1-56.0459 147.683  14
 -13 -10   1 111.346 153.843  14
 -13  10   2 40.6629 131.009  20
 -13  10  -2-64.0225 115.060  20
 -13  10   2 70.1596 116.577   8
 -13 -10  -2-99.1686 158.579  14
 -13 -10   2 122.717 154.914  14
 -13  10   3 330.825 132.290  20
 -13  10  -3 13.5041 111.680  20
 -13  10   3 17.4512 107.186   8
 -13 -10  -3 122.532 151.024  14
 -13 -10   3 138.718 157.575  14
 -13  10   4 164.053 127.073  20
 -13  10   4 46.3931 107.665   8
 -13 -10  -4 243.179 144.571  14
 -13 -10   4 438.826 150.977  14
 -13  10   5 589.764 142.583  20
 -13  10   5 381.124 117.269   8
 -13 -10   5 564.305 151.878  14
 -13  10   6 194.142 115.884  20
 -13  10   6 377.500 115.231   8
 -13  10   7 102.906 101.170  20
 -13  10   7 154.590 105.179   8
 -13  10   8 418.595 114.631   8
 -13  10   9-20.1889 87.1134   8
 -13  11   0-157.000 113.429  20
 -13 -11   0 30.0807 138.567  14
 -13  11  -1 2002.72 199.481  20
 -13  11   1 1490.36 178.979  20
 -13 -11  -1 1521.48 197.945  14
 -13 -11   1 1611.80 194.673  14
 -13  11   2 3019.07 204.967   8
 -13  11   2 3278.12 235.182  20
 -13  11  -2 3062.23 224.624  20
 -13 -11  -2 3054.74 227.349  14
 -13 -11   2 3492.95 234.394  14
 -13  11   3 1539.86 174.227  20
 -13  11  -3 1456.33 170.588  20
 -13  11   3 1275.02 152.817   8
 -13 -11  -3 963.498 167.410  14
 -13 -11   3 1299.16 174.590  14
 -13  11   4 875.018 145.358  20
 -13  11   4 746.207 143.372   8
 -13 -11  -4 791.536 149.741  14
 -13 -11   4 996.072 160.947  14
 -13  11   5 1296.63 159.453  20
 -13  11   5 1115.81 148.728   8
 -13  11   6-110.784 100.544  20
 -13  11   6 111.032 99.4593   8
 -13  11   7-128.923 95.3070   8
 -13 -11   7 199.263 119.645   3
 -13  11   8-43.5627 82.6106   8
 -13  12   0-9.94379 99.0073  20
 -13 -12   0 14.0493 114.146  14
 -13 -12   0-101.982 116.879   3
 -13  12   1 67.6485 103.566  20
 -13  12  -1 52.9868 107.618  20
 -13 -12   1 141.228 128.711   3
 -13  12   2 28.3143 91.8802  20
 -13  12  -2-29.1161 96.7782  20
 -13  12   2 66.9535 90.2043   8
 -13 -12   2-33.1335 113.427   3
 -13  12   3 83.6518 92.3239  20
 -13  12  -3 220.721 107.107  20
 -13  12   3-9.58943 93.1228   8
 -13 -12   3 57.0910 115.363   3
 -13  12   4 12.8881 100.920  20
 -13  12  -4 93.4794 92.1947  20
 -13  12   4 93.9729 94.8718   8
 -13 -12   4 287.811 118.686   3
 -13  12   5 90.5895 93.5151  20
 -13 -12   5 317.997 115.952   3
 -13  12   6 52.6067 82.5036   8
 -13 -12   6-111.661 101.817   3
 -13  13   0 157.904 90.0998  20
 -13  13   1 336.021 97.0279  20
 -13  13  -1 253.620 94.7624  20
 -13  13   2 91.4708 87.0239  20
  14   0   0 394.749 158.967   2
  14   0  -1 119.704 157.008   2
  14   0   1 1.63688 150.983   2
  14   0  -2 9266.57 396.081   2
  14   0   2 9047.11 389.907   2
  14   0   3 261.910 155.940   2
  14   0   4 268.731 155.695   2
  14   0   5 240.142 168.892   2
 -14   0   5 53.9123 134.707   8
  14   0   6 14100.6 480.785   2
 -14   0   6 13309.6 463.069   8
  14   0   7-84.8026 139.036   2
 -14   0   7-76.4886 133.674   8
  14   0   8 5453.19 304.927   2
 -14   0   8 5688.84 309.729   8
 -14   0   9 6.87319 121.254   8
 -14   0  10 441.517 138.395   9
 -14   0  11 252.541 127.751   9
  14   0  12 277.070 112.274  12
 -14   0  12 394.971 122.546   9
  14   0  13-97.3484 95.5258  12
 -14   0  13-195.266 104.635   9
  14   1   0 5046.43 307.434   2
  14  -1   0 5391.29 310.927   2
 -14   1   0 5601.34 310.321  20
  14   1  -1-174.728 167.163   2
  14   1   1 128.696 150.565   2
  14  -1  -1 199.735 160.686   2
  14  -1   1-75.3654 154.638   2
 -14   1   1 261.556 138.357  20
  14   1  -2 587.632 176.767   2
  14  -1  -2 758.957 180.879   2
  14   1   2 606.412 171.471   2
  14  -1   2 441.283 169.840   2
 -14   1   2 780.093 171.821  20
  14   1  -3 3338.88 263.926   2
  14   1   3 3473.28 269.455   2
  14  -1   3 3568.89 274.727   2
  14  -1   4 2314.12 242.101   2
  14   1   4 2355.24 225.981   2
  14   1   5 1007.07 187.177   2
  14  -1   5 1051.50 181.440   2
 -14   1   5 1081.44 176.578   8
  14   1   6 296.544 145.360   2
  14  -1   6 365.420 155.888   2
 -14  -1   6 566.982 155.988   8
 -14   1   6 555.965 160.276   8
  14   1   7 1968.62 216.492   2
  14  -1   7 2072.76 212.539   2
 -14   1   7 1912.96 210.153   8
  14   1   8 32.2364 142.631   2
  14  -1   8 187.925 144.641   2
 -14   1   8 341.141 152.923   8
  14  -1   9 36.5305 132.838   2
 -14   1   9 44.7967 129.002   8
 -14   1  10 455.010 141.249   9
 -14  -1  10 732.363 157.410   9
 -14   1  10 681.683 150.168   8
 -14   1  11 2.29410 117.320   9
 -14  -1  11 449.110 128.069   9
  14   1  12 83.9784 109.632  12
 -14   1  12 124.771 109.900   9
 -14  -1  12 246.494 115.887   9
  14   1  13 239.625 101.496  12
  14  -1  13 180.450 97.6787  12
 -14   1  13-49.9661 102.539   9
 -14  -1  13 273.277 106.387   9
  14  -2   0 2526.84 237.947   2
  14   2   0 2469.28 237.660   2
 -14   2   0 2426.28 224.290  20
  14   2  -1 12338.7 456.781   2
  14   2   1 12312.1 450.283   2
  14  -2  -1 12139.8 431.910   2
  14  -2   1 12219.4 443.050   2
 -14   2   1 11822.5 445.064  20
  14   2  -2 1048.23 191.414   2
  14   2   2 914.652 186.529   2
  14  -2   2 804.118 174.746   2
 -14   2   2 945.179 176.073  20
  14   2  -3 1769.90 216.546   2
  14   2   3 1493.22 210.165   2
  14  -2   3 1630.06 203.944   2
 -14   2   3 1835.59 218.750  20
  14   2  -4 204.463 148.497   2
  14   2   4-136.244 154.356   2
  14  -2   4 1.29268 142.700   2
 -14   2   4 79.5819 135.336  20
  14   2   5 833.673 178.203   2
  14  -2   5 839.660 180.179   2
 -14   2   5 553.903 151.967   8
  14  -2   6 2265.66 229.375   2
  14   2   6 2177.58 221.386   2
 -14   2   6 2539.67 223.826   8
  14   2   7 41.8603 132.138   2
  14  -2   7-50.2834 139.113   2
 -14   2   7 127.686 138.257   8
  14  -2   8 429.494 151.955   2
 -14   2   8 705.581 153.106   8
  14  -2   9 3816.84 250.169   2
 -14   2   9 3776.03 261.525   8
  14  -2  10 193.477 122.769   2
 -14  -2  10-59.8375 122.375   9
 -14   2  10 106.552 117.031   8
  14   2  11-4.33629 110.218  12
 -14   2  11 113.419 114.165   9
 -14  -2  11-108.796 121.665   9
 -14   2  11-59.9745 113.839   8
  14   2  12-219.487 116.002  12
 -14   2  12 37.0125 105.140   9
 -14  -2  12 161.258 116.143   9
  14  -2  13 1598.86 147.697  12
  14   2  13 1450.31 141.551  12
 -14   2  13 1357.43 136.691   9
 -14  -2  13 1067.61 129.976   9
  14   3   0-193.404 156.195   2
  14  -3   0-235.490 154.280   2
 -14   3   0-37.5092 137.491  20
  14   3  -1 317.751 161.730   2
  14   3   1 60.7241 146.273   2
  14  -3   1 247.250 161.696   2
 -14   3   1 278.306 142.133  20
  14   3  -2-45.9667 152.823   2
  14   3   2-62.4720 171.688   2
  14  -3   2 33.4724 148.875   2
 -14   3   2 96.2246 136.621  20
  14   3   3 8252.50 380.211   2
  14  -3   3 7902.79 369.637   2
 -14   3   3 8024.36 380.676  20
  14   3  -3 7558.40 374.158   2
  14   3  -4 193.884 157.617   2
  14   3   4-132.637 149.249   2
  14  -3   4 96.3751 148.877   2
 -14   3   4 88.2517 144.988  20
  14   3  -5-25.4371 141.842   2
  14   3   5 172.351 154.654   2
 -14   3   5 207.121 138.939  20
 -14   3   5-11.4719 137.056   8
  14   3   6 927.427 175.064   2
 -14   3   6 852.497 169.407   8
 -14   3   7 2611.72 235.624   8
  14  -3   8 624.066 158.407   2
 -14   3   8 743.537 160.653   8
  14  -3   9-99.8844 136.395   2
 -14   3   9-270.478 129.354   9
 -14   3   9-67.9703 126.937   8
  14  -3  10 1039.59 158.012   2
 -14   3  10 895.892 139.928   9
 -14  -3  10 891.740 152.725   9
 -14   3  10 1133.37 167.549   8
 -14   3  11-25.2312 108.966   9
 -14  -3  11 191.677 118.216   9
 -14   3  11 58.5400 114.982   8
 -14   3  12-2.83251 100.940   9
 -14  -3  12 81.9713 105.145   9
 -14   3  12 4.40972 93.9234   8
 -14  -3  13 184.260 95.2147   9
  14   4   0 304.785 161.727   2
  14  -4   0 44.3443 135.628   2
 -14   4   0 182.439 132.855  20
  14  -4   1 3833.23 273.243   2
 -14   4   1 4012.53 276.352  20
 -14   4  -1 4094.14 275.536  20
  14   4  -1 4123.26 293.201   2
  14   4   1 3980.33 294.911   2
  14   4  -2 1428.59 211.720   2
  14   4   2 1385.79 207.808   2
  14  -4   2 1188.92 195.758   2
 -14   4   2 1417.43 199.534  20
  14   4  -3 138.967 156.771   2
  14   4   3 299.910 155.987   2
 -14   4   3 89.4789 154.538  20
  14   4  -4 1577.61 207.146   2
  14   4   4 1491.15 208.594   2
 -14   4   4 1674.85 218.167  20
  14   4  -5 1157.21 192.911   2
  14   4   5 1623.92 201.077   2
 -14   4   5 1550.22 209.744  20
 -14   4   5 1636.65 188.500   8
  14   4   6 2163.26 212.028   2
 -14   4   6 2362.26 212.382   8
 -14   4   6 2259.12 229.051  20
 -14   4   7 399.258 141.332   8
 -14   4   8 1888.21 198.737   8
 -14   4   9 1164.85 160.981   8
  14  -4  10 243.868 125.303   2
 -14  -4  10 84.1578 110.903   9
 -14   4  10 329.251 121.785   8
  14  -4  11-93.0865 107.861   2
 -14  -4  11-67.1753 105.094   9
 -14   4  11-110.593 103.457   8
 -14  -4  12 158.099 105.995   9
 -14   4  12 382.853 108.316   8
  14   5   0 1842.07 229.831   2
 -14   5   0 1749.36 202.860  20
  14   5  -1 987.601 192.455   2
  14   5   1 1276.47 199.779   2
  14  -5   1 1567.68 203.732   2
 -14   5   1 1354.24 193.670  20
 -14   5  -1 1140.58 176.664  20
  14   5  -2 352.782 166.642   2
  14   5   2 297.019 168.526   2
 -14   5   2 299.527 140.729  20
  14   5  -3 167.839 144.692   2
  14   5   3 28.4678 140.790   2
 -14   5   3 122.002 136.363  20
  14   5  -4 640.818 168.647   2
  14   5   4 577.768 161.039   2
 -14   5   4 666.878 162.764  20
 -14   5   4 539.201 139.618   8
  14   5   5 199.889 141.050   2
 -14   5   5 301.295 142.931  20
 -14   5   5 78.3958 123.069   8
 -14   5   6 981.569 177.101  20
 -14   5   6 1325.73 179.412   8
 -14   5   7 302.996 147.471  20
 -14   5   7 239.970 129.392   8
 -14   5   8 289.415 139.202   8
 -14  -5   9-71.6097 114.606   9
 -14   5   9 142.756 111.488   8
 -14  -5  10 1512.06 156.020   9
 -14   5  10 1789.20 176.668   8
  14  -5  11 342.035 122.007   2
 -14  -5  11 204.247 107.776   9
 -14   5  11 458.425 122.190   8
 -14   5  12 340.660 108.941   8
  14   6   0 10.6445 144.214   2
 -14   6   0 13.0208 122.547  20
  14   6  -1 848.675 183.207   2
  14   6   1 983.527 184.632   2
 -14   6   1 1090.58 178.794  20
 -14   6  -1 1203.53 174.397  20
 -14   6   2 2332.97 228.250  20
 -14   6  -2 2603.54 225.659  20
  14   6  -2 2454.51 249.364   2
  14   6   2 2426.96 240.429   2
  14   6   3 1143.50 184.328   2
 -14   6   3 1233.53 198.085  20
  14   6  -3 1103.64 192.639   2
  14   6   4 1108.02 181.271   2
 -14   6   4 842.098 168.358  20
 -14   6   4 1037.96 165.845   8
 -14   6   5 119.890 138.044  20
 -14   6   5 44.0397 114.536   8
 -14  -6   5 108.253 148.117  14
 -14   6   6 3402.32 247.429   8
 -14   6   6 3365.86 249.598  20
 -14   6   7 307.400 131.221  20
 -14   6   7 192.710 124.062   8
 -14   6   8 3851.94 242.231   8
 -14   6   9 523.727 136.977   8
 -14   6  10 78.9607 104.735   8
  14  -6  11 17.0571 98.5463   2
 -14   6  11 181.277 98.7152   8
  14   7   0-25.1253 152.753   2
 -14   7   0 150.077 129.697  20
 -14  -7   0 70.4984 169.471  14
  14   7   1 713.443 179.317   2
 -14   7   1 832.305 164.954  20
 -14   7  -1 1035.29 161.674  20
 -14  -7  -1 867.972 191.758  14
 -14  -7   1 983.320 190.578  14
  14   7  -1 904.541 179.163   2
  14   7   2 166.048 154.227   2
 -14   7   2 102.968 133.045  20
 -14   7  -2 211.434 121.474  20
 -14  -7  -2-24.4542 178.025  14
 -14  -7   2-193.040 174.071  14
 -14   7   3 2519.59 224.379  20
 -14  -7  -3 3057.90 249.392  14
 -14  -7   3 2673.04 245.647  14
  14   7   3 2676.46 238.644   2
  14   7   4 513.903 155.137   2
 -14   7   4 284.965 133.377  20
 -14   7   4 564.635 147.531   8
 -14  -7  -4 483.005 158.939  14
 -14  -7   4 852.975 177.951  14
 -14   7   5 748.047 159.880  20
 -14   7   5 732.744 145.870   8
 -14  -7   5 632.375 160.588  14
 -14   7   6-60.7536 115.189  20
 -14   7   6 47.3409 113.728   8
 -14   7   7 1375.37 168.301  20
 -14   7   7 1308.37 166.210   8
 -14   7   8 625.747 132.922  20
 -14   7   8 402.096 123.107   8
 -14   7   9 525.594 129.157   8
 -14   7  10 662.310 123.716   8
 -14   7  11 357.943 103.237   8
 -14   8   0 767.604 161.813  20
 -14  -8   0 785.231 194.958  14
 -14   8   1 5716.74 308.888  20
 -14   8  -1 5525.82 301.915  20
 -14  -8  -1 5422.66 300.991  14
 -14  -8   1 6461.01 322.507  14
 -14   8   2 50.2111 131.588  20
 -14   8  -2 298.147 136.760  20
 -14  -8  -2 149.267 169.019  14
 -14  -8   2 219.168 165.586  14
 -14   8   3 292.584 132.903  20
 -14  -8  -3 110.493 147.622  14
 -14  -8   3 272.583 164.113  14
 -14   8   4-141.258 118.508  20
 -14   8   4 61.1351 103.046   8
 -14  -8  -4 119.751 142.400  14
 -14  -8   4 46.0433 141.867  14
 -14   8   5 573.593 157.123  20
 -14   8   5 501.070 141.776   8
 -14  -8   5 713.222 161.707  14
 -14   8   6-25.3744 116.770  20
 -14   8   6-169.535 125.740   8
 -14   8   7 259.638 120.211  20
 -14   8   7 132.746 106.709   8
 -14   8   8 54.8327 100.293  20
 -14   8   8 66.3161 94.8019   8
 -14   8   9 1042.42 133.894   8
 -14   8  10 296.521 97.7473   8
 -14   9   0 311.853 132.085  20
 -14  -9   0 263.725 153.173  14
 -14   9   1 984.526 164.571  20
 -14   9  -1 786.639 150.268  20
 -14  -9  -1 819.198 182.843  14
 -14  -9   1 788.158 174.406  14
 -14   9   2 131.644 115.178  20
 -14   9  -2 267.160 126.829  20
 -14  -9  -2 276.624 147.820  14
 -14  -9   2 339.667 148.370  14
 -14   9   3 64.6169 120.897  20
 -14  -9  -3-70.2741 135.883  14
 -14  -9   3 44.1873 133.849  14
 -14   9   4 2235.13 188.890   8
 -14   9   4 2366.53 207.981  20
 -14  -9   4 2418.61 208.174  14
 -14  -9  -4 2179.10 200.483  14
 -14   9   5 522.621 130.892  20
 -14   9   5 637.200 126.168   8
 -14  -9   5 896.679 154.743  14
 -14   9   6 527.884 124.238  20
 -14   9   6 778.069 129.944   8
 -14   9   7 58.0363 96.2883  20
 -14   9   7 41.2553 95.9261   8
 -14   9   8 17.8246 86.9172   8
 -14   9   9-26.6151 79.1167   8
 -14  10   0-38.0052 108.885  20
 -14 -10   0 20.5211 139.491  14
 -14  10   1 1277.37 164.223  20
 -14  10  -1 1298.10 162.960  20
 -14 -10  -1 1111.81 176.347  14
 -14 -10   1 1114.88 172.059  14
 -14  10   2 1382.63 160.616  20
 -14  10  -2 1492.74 168.786  20
 -14 -10  -2 1231.85 180.557  14
 -14 -10   2 1344.21 182.400  14
 -14  10   3 159.710 105.864  20
 -14  10  -3 13.2660 108.678  20
 -14  10   3-123.827 103.641   8
 -14 -10  -3 78.4400 136.103  14
 -14 -10   3 355.528 134.810  14
 -14  10   4 148.126 104.087  20
 -14  10   4 220.224 106.862   8
 -14 -10  -4 105.160 136.863  14
 -14 -10   4-75.1659 126.767  14
 -14  10   5 594.356 131.429  20
 -14  10   5 1065.64 139.497   8
 -14  10   6 1678.79 157.742   8
 -14  10   6 1659.24 159.198  20
 -14  10   7 656.430 114.648   8
 -14  11   0 959.457 143.918  20
 -14 -11   0 967.562 159.284  14
 -14  11   1 1184.64 151.208  20
 -14  11  -1 1085.05 143.352  20
 -14 -11  -1 949.223 152.028  14
 -14 -11   1 917.880 158.651  14
 -14  11   2 15.7726 94.4497  20
 -14  11  -2-71.8241 96.7907  20
 -14 -11  -2-223.494 117.468  14
 -14 -11   2 158.707 117.184  14
 -14  11   3 1548.26 143.344   8
 -14  11  -3 1599.23 156.675  20
 -14  11   3 1346.42 151.529  20
 -14 -11  -3 1161.88 157.831  14
 -14 -11   3 1316.76 163.905  14
 -14  11   4 120.370 93.8619  20
 -14  11   4 167.398 93.2490   8
 -14  11   5-91.6462 95.2343  20
 -14  11   5-85.2665 86.9649   8
 -14  12   0 981.263 123.708  20
 -14  12   1 166.292 91.1456  20
  15   0   0 71.4971 148.864   2
  15   0  -1-116.034 152.901   2
  15   0   1 33.3424 141.912   2
  15   0  -2 3036.26 251.230   2
  15   0   2 3141.83 261.681   2
  15   0   3-222.168 151.318   2
  15   0   4 9515.18 401.239   2
  15   0   5-20.3703 135.044   2
  15   0   6 4205.29 269.161   2
 -15   0   6 3550.34 247.076   8
  15   0   7 17.0071 136.286   2
  15   0   8 3415.64 240.522   2
  15   0   9-137.437 119.241   2
 -15   0  10 803.594 140.295   9
 -15   0  11-31.5316 96.9504   9
 -15   0  12 42.0408 90.1484   9
  15   1   0-58.5473 145.717   2
  15  -1   0 88.4125 140.399   2
  15   1  -1 951.662 192.602   2
  15   1   1 748.911 177.036   2
  15  -1  -1 817.530 176.607   2
  15  -1   1 801.082 176.107   2
  15   1  -2-223.373 148.801   2
  15  -1  -2-30.2251 139.050   2
  15   1   2 112.603 147.577   2
  15  -1   2-78.5950 160.829   2
  15   1  -3 812.158 180.504   2
  15   1   3 765.750 180.804   2
  15  -1   3 704.019 172.825   2
  15   1   4 7041.22 345.820   2
  15  -1   4 7195.28 353.490   2
  15   1   5-64.4620 141.998   2
  15  -1   5 102.593 138.554   2
  15  -1   6 2173.30 217.295   2
  15   1   6 1789.55 209.610   2
 -15   1   6 1906.34 192.350   8
  15   1   7 1229.21 177.404   2
  15  -1   7 1243.02 178.390   2
 -15   1   7 1128.47 170.564   8
  15   1   8 1129.95 169.424   2
  15  -1   8 1288.85 169.693   2
 -15   1   8 967.919 159.447   8
  15  -1   9 133.436 126.707   2
 -15   1   9-125.142 122.784   9
 -15   1  10 1215.00 153.297   9
 -15  -1  10 1067.05 145.332   9
  15   1  11 1221.25 139.113  12
 -15  -1  11 1412.21 151.345   9
 -15   1  11 1538.31 147.784   9
  15  -1  12 69.4591 89.7909  12
 -15  -1  12 9.41964 84.6766   9
  15   2   0-77.9691 152.365   2
  15  -2   0 151.166 140.805   2
 -15   2   0-22.6529 119.722  20
  15   2   1 2732.77 246.188   2
  15  -2  -1 2834.88 242.696   2
  15  -2   1 2606.08 237.222   2
  15   2  -1 2451.65 242.514   2
  15   2  -2 481.933 162.698   2
  15   2   2 470.473 166.950   2
  15  -2   2 223.361 150.336   2
  15   2   3 2725.44 244.966   2
  15  -2   3 2987.84 253.678   2
  15   2  -3 2962.20 249.714   2
  15   2  -4 718.915 172.040   2
  15   2   4 567.134 165.912   2
  15  -2   4 606.418 162.220   2
  15   2   5 1358.50 188.172   2
  15  -2   5 1370.02 185.394   2
  15   2   6 286.358 153.952   2
  15  -2   6 114.694 137.255   2
 -15   2   6 210.912 127.312   8
  15   2   7 479.968 143.417   2
  15  -2   7 660.933 160.272   2
 -15   2   7 378.183 135.624   8
  15  -2   8-82.2123 124.477   2
 -15   2   8 158.970 116.951   8
  15  -2   9 357.657 139.698   2
 -15   2   9 305.440 127.229   9
 -15   2   9 319.038 115.412   8
  15  -2  10-75.7864 108.010   2
 -15  -2  10 121.639 111.864   9
 -15   2  11 1810.63 158.438   9
 -15  -2  11 1918.11 158.928   9
  15   3   0 233.525 160.647   2
  15  -3   0-9.35602 133.611   2
 -15   3   0-11.2938 127.175  20
  15  -3   1 2990.48 250.244   2
 -15   3   1 3152.40 246.434  20
  15   3  -1 2593.97 245.081   2
  15   3   1 2794.69 257.626   2
  15   3  -2 473.657 165.722   2
  15   3   2 828.051 182.380   2
  15  -3   2 801.310 183.155   2
 -15   3   2 520.308 150.673  20
  15   3   3 8046.03 365.688   2
  15  -3   3 8322.78 373.728   2
 -15   3   3 8160.27 372.112  20
  15   3  -3 7818.78 370.843   2
  15   3  -4 435.128 165.423   2
  15   3   4 628.652 171.502   2
  15  -3   4 793.592 180.482   2
  15   3   5-69.6179 148.315   2
  15  -3   5-25.0045 137.845   2
  15   3   6-117.827 137.977   2
  15  -3   6 34.9327 136.250   2
 -15   3   6-20.0508 117.156   8
  15   3   7 29.9532 126.571   2
  15  -3   7 459.443 145.186   2
 -15   3   7 302.267 132.303   8
  15  -3   8 485.535 148.085   2
 -15   3   8 325.987 125.094   8
  15  -3   9-103.200 121.913   2
 -15   3   9 159.640 109.701   9
 -15  -3   9-231.393 132.043   9
 -15   3   9 0.09347 110.438   8
  15  -3  10 41.7798 105.550   2
 -15   3  10 162.080 114.079   9
 -15  -3  10 115.605 108.259   9
 -15   3  10 35.4150 92.0541   8
 -15  -3  11 2566.09 170.940   9
  15   4   0-30.3790 140.091   2
  15  -4   0-65.9114 130.207   2
 -15   4   0-74.2394 122.878  20
  15   4  -1 1060.99 192.068   2
  15   4   1 942.023 183.525   2
  15  -4   1 1157.71 180.315   2
 -15   4   1 1307.78 187.161  20
 -15   4  -1 1405.12 176.914  20
  15  -4   2 5643.63 305.161   2
 -15   4   2 5510.11 309.621  20
  15   4  -2 5169.43 316.589   2
  15   4   2 4978.30 301.019   2
  15   4  -3 525.937 157.125   2
  15   4   3 530.911 158.476   2
  15  -4   3 555.270 168.205   2
 -15   4   3 507.855 160.571  20
  15  -4   4 2317.10 220.704   2
 -15   4   4 2577.21 228.472  20
  15   4  -4 2222.30 221.365   2
  15   4   4 2421.34 225.609   2
  15   4   5 463.254 152.885   2
  15  -4   5 474.524 152.813   2
 -15   4   5 490.308 149.216  20
 -15   4   5 634.057 139.199   8
  15   4   6 1405.48 182.374   2
  15  -4   6 1092.33 173.243   2
 -15   4   6 1007.83 158.379   8
  15  -4   7 7.66359 122.364   2
 -15   4   7 64.0563 112.442   8
  15  -4   8 1179.17 159.440   2
 -15   4   8 1099.18 156.746   8
  15  -4   9 202.043 125.209   2
 -15  -4   9-72.0609 106.003   9
 -15   4   9-34.2704 96.7019   8
  15  -4  10 49.0116 108.832   2
 -15  -4  10 174.871 105.522   9
 -15   4  10 0.66416 94.3390   8
 -15  -4  11 427.135 107.934   9
 -15   4  11 405.293 104.289   8
  15   5   0-18.4669 147.684   2
 -15   5   0-125.036 129.906  20
  15   5  -1-175.419 149.340   2
  15   5   1-2.03392 141.365   2
  15  -5   1-103.786 135.474   2
 -15   5   1-68.1057 120.870  20
 -15   5  -1 6.66957 123.118  20
  15   5  -2 162.996 141.875   2
  15   5   2 137.111 141.929   2
  15  -5   2 214.681 145.896   2
 -15   5   2 89.9421 124.101  20
  15   5  -3 90.8854 139.456   2
  15   5   3 249.330 140.975   2
  15  -5   3 130.068 132.292   2
 -15   5   3-68.1395 125.145  20
  15  -5   4 5580.49 297.113   2
 -15   5   4 5702.77 308.705  20
  15   5   4 5351.41 298.433   2
  15   5   5 1613.56 187.495   2
  15  -5   5 1220.10 178.419   2
 -15   5   5 1522.26 186.827  20
 -15   5   5 1546.00 178.769   8
  15  -5   6 1751.32 190.378   2
 -15   5   6 1712.65 180.155   8
  15  -5   7 159.037 132.680   2
 -15   5   7 84.6622 115.237   8
  15  -5   8 1280.08 161.366   2
 -15   5   8 1382.58 159.547   8
  15  -5   9 242.809 111.889   2
 -15  -5   9-54.1873 106.156   9
 -15   5   9 73.0676 105.790   8
  15  -5  10 664.512 126.708   2
 -15  -5  10 606.283 114.032   9
 -15   5  10 624.942 124.152   8
  15   6   0 101.416 140.260   2
 -15   6   0-304.461 145.294  20
  15   6  -1 691.439 171.347   2
  15   6   1 331.772 148.532   2
 -15   6   1 416.060 137.951  20
 -15   6  -1 624.049 142.693  20
  15   6   2 1464.91 201.538   2
  15  -6   2 1421.37 177.332   2
 -15   6   2 1572.84 188.419  20
  15   6   3 667.689 160.175   2
  15  -6   3 605.321 150.922   2
 -15   6   3 857.625 159.316  20
 -15  -6  -3 707.428 165.747  14
 -15  -6   3 347.492 146.276  14
  15   6   4 661.038 155.016   2
  15  -6   4 1172.47 171.139   2
 -15   6   4 1288.93 178.692  20
 -15  -6  -4 1198.21 178.471  14
 -15  -6   4 1060.33 188.144  14
  15  -6   5 467.184 143.264   2
 -15   6   5 698.739 151.706  20
 -15   6   5 472.472 122.735   8
 -15  -6   5 522.193 156.547  14
  15  -6   6 509.138 136.501   2
 -15   6   6 406.650 128.634  20
 -15   6   6 627.142 137.809   8
  15  -6   7-112.992 114.204   2
 -15   6   7 225.329 117.407   8
  15  -6   8 604.604 129.910   2
 -15   6   8 652.168 134.378   8
  15  -6   9 141.676 101.775   2
 -15   6   9 106.078 87.9420   8
 -15   6  10 228.068 93.5246   8
 -15   7   0 30.8959 117.674  20
 -15  -7   0 30.8731 141.339  14
 -15   7   1 511.295 141.666  20
 -15   7  -1 784.490 144.771  20
 -15  -7  -1 1011.12 188.297  14
 -15  -7   1 761.216 178.953  14
  15  -7   2 768.594 150.236   2
 -15   7   2 1092.35 166.958  20
 -15  -7  -2 1081.69 178.308  14
 -15  -7   2 1211.17 179.046  14
  15   7   2 1158.01 179.466   2
  15  -7   3 1800.18 188.860   2
 -15   7   3 1757.51 191.757  20
 -15  -7  -3 1811.56 193.597  14
 -15  -7   3 1720.22 193.453  14
  15   7   3 1570.22 181.048   2
  15  -7   4 1402.89 176.862   2
 -15   7   4 1391.93 173.445  20
 -15  -7  -4 1626.66 185.020  14
 -15  -7   4 1704.38 191.984  14
  15   7   4 1618.82 182.745   2
 -15   7   5 32.9531 122.743  20
 -15   7   5 116.111 108.041   8
 -15  -7   5 166.918 126.965  14
 -15   7   6-8.41112 100.276  20
 -15   7   6 30.6998 97.5401   8
 -15   7   7 484.335 115.643   8
  15  -7   8 111.779 98.5070   2
 -15   7   8 41.0938 94.7143   8
  15  -7   9 129.175 96.8390   2
 -15   7   9-66.0297 84.5994   8
 -15   8   0 97.2459 118.839  20
 -15  -8   0 89.6082 142.438  14
 -15   8   1 1422.41 166.491  20
 -15   8  -1 1005.02 148.965  20
 -15  -8  -1 929.031 169.093  14
 -15  -8   1 1124.91 175.316  14
 -15   8   2 689.868 138.962  20
 -15   8  -2 499.965 127.142  20
 -15  -8  -2 328.240 135.523  14
 -15  -8   2 455.832 146.920  14
  15  -8   3 744.095 137.034   2
 -15   8   3 977.343 157.123  20
 -15  -8  -3 822.781 155.829  14
 -15  -8   3 886.034 161.689  14
  15  -8   4 102.172 111.472   2
 -15   8   4 115.942 107.578  20
 -15  -8  -4 424.955 137.632  14
 -15  -8   4 158.443 131.743  14
  15  -8   5 83.7763 108.217   2
 -15   8   5 215.907 105.625  20
 -15   8   5 133.110 101.671   8
 -15   8   6-42.5156 102.131  20
 -15   8   6-20.6152 99.9050   8
  15  -8   7 237.300 102.342   2
 -15   8   7 223.219 103.948   8
  15  -8   8 146.054 95.6694   2
 -15   8   8 249.083 88.9870   8
 -15   9   0-13.4910 100.295  20
 -15  -9   0-128.674 139.803  14
 -15   9   1 190.483 113.828  20
 -15   9  -1 227.788 111.102  20
 -15  -9  -1 107.284 119.951  14
 -15  -9   1 216.922 123.450  14
 -15   9   2 1046.49 148.619  20
 -15   9  -2 801.827 130.134  20
 -15  -9  -2 1154.39 164.231  14
 -15  -9   2 685.918 144.358  14
 -15   9   3 995.008 149.410  20
 -15  -9  -3 1028.09 150.082  14
 -15  -9   3 1333.18 163.403  14
  15  -9   4 705.920 130.193   2
 -15   9   4 934.239 141.186  20
 -15  -9  -4 1178.53 161.660  14
 -15  -9   4 1057.51 155.985  14
  15  -9   5 456.964 117.497   2
 -15   9   5 525.764 114.014  20
 -15   9   5 414.410 113.400   8
  15  -9   6 145.180 110.257   2
 -15   9   6 165.794 94.5818  20
 -15   9   6 325.697 102.363   8
 -15  10   0-182.602 96.0891  20
 -15 -10   0 44.3437 108.230  14
 -15  10   1-41.9289 90.0969  20
 -15  10  -1 50.2978 92.6719  20
 -15 -10  -1 281.616 121.833  14
 -15 -10   1 241.317 122.491  14
 -15  10   2 116.578 91.9664  20
 -15  10  -2 246.591 98.2144  20
 -15 -10  -2 65.8339 107.602  14
 -15 -10   2 34.5628 107.189  14
 -15  10   3 165.234 90.3759  20
 -15 -10  -3 199.209 117.505  14
 -15 -10   3 105.913 116.550  14
 -15  10   4 1267.68 135.476  20
  16   0   0 8122.20 358.600   2
  16   0  -1-8.57506 130.799   2
  16   0   1 31.9881 137.075   2
  16   0  -2 687.621 160.869   2
  16   0   2 830.014 164.901   2
  16   0   3 251.021 141.859   2
  16   0   4 3672.13 254.253   2
  16   0   5 267.366 135.864   2
  16   0   6 422.165 138.540   2
  16   0   7 109.696 118.374   2
  16   0   8 306.116 118.126   2
 -16   0   9 63.9773 99.3857   9
 -16   0  10 1643.66 146.531   9
  16   1   0 130.981 144.144   2
  16  -1   0-100.380 133.140   2
  16   1  -1 695.334 160.586   2
  16   1   1 526.168 158.009   2
  16  -1  -1 573.055 143.969   2
  16  -1   1 394.410 142.227   2
  16   1  -2 488.509 145.730   2
  16  -1  -2 462.693 146.619   2
  16   1   2 387.238 150.427   2
  16  -1   2 586.907 148.858   2
  16   1  -3-166.502 137.898   2
  16   1   3 101.452 129.773   2
  16  -1   3 93.4770 129.600   2
  16   1   4 364.727 143.730   2
  16  -1   4 414.708 145.573   2
  16   1   5 36.4919 121.041   2
  16  -1   5 169.396 127.305   2
  16   1   6 941.086 159.595   2
  16  -1   6 816.501 149.459   2
  16   1   7-133.582 114.964   2
  16  -1   7-11.9492 116.223   2
  16   1   8 178.315 110.184   2
  16  -1   8 342.582 123.822   2
  16  -1   9 287.565 116.231   2
 -16   1   9 224.433 111.650   9
 -16  -1   9 357.030 112.814   9
 -16   1  10 81.5749 96.3429   9
 -16  -1  10 421.590 109.992   9
  16  -2   0 3398.52 244.665   2
  16   2   0 2902.34 240.306   2
  16   2  -1 47.3643 138.200   2
  16   2   1-3.47816 129.121   2
  16  -2  -1 52.3600 126.431   2
  16  -2   1 9.50342 132.016   2
  16   2  -2 218.131 138.692   2
  16   2   2 305.282 144.487   2
  16  -2   2 324.951 139.263   2
  16   2   3 7252.94 346.929   2
  16  -2   3 6801.24 325.539   2
  16   2  -3 7290.02 334.478   2
  16   2  -4 765.470 154.635   2
  16   2   4 828.522 161.366   2
  16  -2   4 822.660 163.097   2
  16   2   5 1140.29 170.428   2
  16  -2   5 977.858 168.969   2
  16   2   6 365.223 137.641   2
  16  -2   6 477.663 144.057   2
  16   2   7 5692.52 269.018   2
  16  -2   7 5412.16 269.367   2
 -16   2   7 4785.53 254.596   8
  16  -2   8 53.7775 105.499   2
 -16   2   8 38.6403 103.648   9
  16  -2   9 63.0184 102.963   2
 -16   2   9-187.370 107.499   9
 -16  -2   9-139.912 99.6430   9
 -16  -2  10 136.649 91.5780   9
  16   3   0 344.808 147.008   2
  16  -3   0 164.154 124.508   2
  16   3  -1 1617.29 192.687   2
  16   3   1 1751.36 200.282   2
  16  -3   1 1937.04 198.512   2
  16   3  -2 29.8128 133.574   2
  16   3   2-169.218 138.815   2
  16  -3   2 138.118 129.302   2
  16   3  -3 76.3093 126.595   2
  16   3   3 51.6903 132.582   2
  16  -3   3 62.7268 127.930   2
  16   3  -4 223.991 137.396   2
  16   3   4 508.238 147.352   2
  16  -3   4 317.055 135.569   2
  16   3   5 11.4621 125.293   2
  16  -3   5-10.2823 120.891   2
  16   3   6 37.2908 120.005   2
  16  -3   6 185.121 118.414   2
 -16   3   6 189.334 119.157   8
  16   3   7 45.8098 118.602   2
  16  -3   7 138.959 119.571   2
 -16   3   7-14.8128 95.9842   8
  16  -3   8 9.36498 107.001   2
 -16   3   8-12.8561 99.4880   8
  16  -3   9 285.425 109.489   2
 -16  -3   9-12.9787 95.4348   9
 -16   4   0 4101.81 255.123  20
  16   4   0 3679.28 258.843   2
  16   4  -1 418.039 152.188   2
  16   4   1 429.492 146.373   2
  16  -4   1 593.967 145.918   2
 -16   4   1 333.052 126.229  20
  16   4  -2 267.113 135.823   2
  16   4   2-106.617 127.642   2
  16  -4   2 296.169 141.150   2
  16  -4   3 2048.11 196.156   2
  16   4  -3 1794.11 202.699   2
  16   4   3 1945.16 210.505   2
  16  -4   4 2104.40 193.042   2
  16   4   4 2700.65 216.867   2
  16   4   5 388.315 139.509   2
  16  -4   5 451.423 141.663   2
  16   4   6 221.742 118.068   2
  16  -4   6 12.4312 121.528   2
 -16   4   6 142.089 105.380   8
  16  -4   7 2152.29 181.309   2
 -16   4   7 2079.91 175.023   8
  16  -4   8 80.2373 97.8928   2
 -16  -4   8 132.592 102.739   9
 -16   4   8 210.581 103.881   8
  16  -4   9 249.027 102.057   2
 -16   4   9 132.579 89.4120   8
  16   5   0 55.7940 129.922   2
 -16   5   0-9.32760 112.694  20
  16   5  -1-3.84261 128.413   2
  16   5   1 7.44586 134.154   2
  16  -5   1 64.9438 122.076   2
 -16   5   1 50.0119 115.252  20
  16   5   2 411.413 134.170   2
  16  -5   2 176.815 127.363   2
 -16   5   2 411.272 140.227  20
  16   5  -2 179.432 134.471   2
  16   5   3-68.1614 124.868   2
  16  -5   3-23.0708 120.933   2
 -16   5   3 293.575 131.334  20
  16   5   4 565.613 139.312   2
  16  -5   4 750.905 142.565   2
 -16  -5  -4 844.309 164.748  14
 -16  -5   4 495.271 145.517  14
  16   5   5-160.942 122.143   2
  16  -5   5 138.234 119.869   2
 -16  -5   5 201.636 128.570  14
  16  -5   6 431.121 124.409   2
 -16   5   6 538.792 122.703   8
  16  -5   7 5.00355 106.523   2
 -16   5   7-26.5208 100.558   8
  16  -5   8 483.553 116.266   2
 -16   5   8 300.575 101.270   8
 -16   6   0 5060.94 265.780  20
 -16  -6   0 5438.97 288.601  14
  16   6   0 5278.91 280.882   2
 -16   6   1 568.123 131.040  20
 -16   6  -1 764.346 136.773  20
 -16  -6  -1 597.288 159.266  14
 -16  -6   1 790.039 166.502  14
  16   6   1 791.202 153.497   2
  16   6   2 961.532 154.533   2
  16  -6   2 502.295 126.537   2
 -16   6   2 725.903 136.583  20
 -16  -6  -2 965.587 168.989  14
 -16  -6   2 913.298 154.504  14
  16   6   3 1631.28 178.181   2
  16  -6   3 1520.90 167.597   2
 -16   6   3 1739.62 176.969  20
 -16  -6  -3 1821.27 189.591  14
 -16  -6   3 1575.42 184.090  14
  16   6   4 337.170 124.704   2
  16  -6   4 536.822 125.370   2
 -16   6   4 568.990 127.471  20
 -16  -6  -4 374.011 133.330  14
  16  -6   5-12.9333 109.797   2
  16  -6   6-59.9199 104.313   2
 -16   6   6 29.4652 91.7475   8
  16  -6   7 687.716 119.809   2
 -16   6   7 523.248 111.552   8
 -16   7   0 311.118 113.986  20
 -16  -7   0 307.723 136.903  14
 -16   7   1 32.8291 96.1969  20
 -16   7  -1 52.5070 102.221  20
 -16  -7  -1 53.1848 127.236  14
 -16  -7   1 195.070 131.385  14
 -16   7   2 147.060 101.974  20
 -16  -7  -2-8.71322 130.789  14
 -16  -7   2-7.74583 126.691  14
  16  -7   3 182.871 114.516   2
 -16   7   3 222.280 109.996  20
 -16  -7  -3 160.020 129.095  14
 -16  -7   3 205.465 128.708  14
  16  -7   4-229.460 113.600   2
 -16   7   4 119.726 96.8956  20
 -16  -7  -4-23.6271 129.687  14
 -16  -7   4 45.9182 118.155  14
  16  -7   5-49.7132 97.9124   2
  16  -7   6 70.7721 94.0973   2
 -16   8   0 39.0489 93.1081  20
 -16  -8   0 47.3397 117.294  14
 -16   8   1-16.6030 93.6359  20
 -16   8  -1 151.444 96.7869  20
 -16  -8  -1 77.3238 112.297  14
 -16  -8   1-33.3006 109.494  14
 -16   8   2 110.331 96.9370  20
 -16  -8  -2-36.8552 117.156  14
 -16  -8   2 29.9540 114.899  14
 -16   8   3 1761.36 158.246  20
 -16  -8  -3 1830.41 163.637  14
 -16  -8   3 1764.73 165.243  14
 -16   8   4 313.787 100.871  20
 -16  -9   0 101.085 101.987  14
 -16  -9  -1 398.167 117.038  14
 -16  -9   1 344.805 106.198  14
  17   0   0-147.925 136.038   2
  17   0  -1-10.8800 120.573   2
  17   0   1-134.927 117.907   2
  17   0   2 5341.62 274.986   2
  17   0  -2 4729.91 260.804   2
  17   0   3-145.870 113.861   2
  17   0   4 150.638 115.868   2
  17   0   5 196.240 114.339   2
  17   0   6 6.33648 106.267   2
  17   0   7-93.3641 105.795   2
  17   1   0-197.845 126.029   2
  17  -1   0 207.236 126.139   2
  17   1  -1 308.140 131.151   2
  17   1   1-62.0222 119.380   2
  17  -1  -1-108.335 120.669   2
  17  -1   1-71.9243 117.672   2
  17   1  -2 470.682 139.872   2
  17   1   2 672.604 141.490   2
  17  -1   2 565.586 141.700   2
  17   1  -3 284.064 121.676   2
  17   1   3 27.6011 116.555   2
  17  -1   3 263.462 125.569   2
  17   1   4 1359.59 166.841   2
  17  -1   4 1200.60 154.465   2
  17   1   5 349.428 122.815   2
  17  -1   5 389.587 126.313   2
  17   1   6 241.754 113.614   2
  17  -1   6 229.791 112.859   2
  17   1   7-14.0103 98.0594   2
  17  -1   7-46.6280 96.3090   2
  17   2   0-46.9539 113.016   2
  17  -2   0-122.115 120.288   2
  17   2  -1 517.665 136.688   2
  17   2   1 299.740 137.896   2
  17  -2   1 452.750 129.872   2
  17   2  -2 618.716 137.689   2
  17   2   2 1017.77 156.940   2
  17  -2   2 978.314 156.249   2
  17   2  -3 172.478 116.852   2
  17   2   3-116.069 115.883   2
  17  -2   3 68.8988 113.649   2
  17   2   4 48.6727 108.777   2
  17  -2   4 207.955 121.904   2
  17  -2   5 4309.17 235.662   2
  17   2   5 3840.18 223.807   2
  17   2   6-7.44822 105.939   2
  17  -2   6 254.078 113.853   2
  17  -2   7 63.9258 96.4090   2
  17   3   0 65.1595 122.477   2
  17  -3   0-28.1348 108.236   2
  17   3  -1 83.8918 123.220   2
  17   3   1-8.36677 114.167   2
  17  -3   1 71.0205 116.517   2
  17   3  -2 66.3667 113.727   2
  17   3   2 36.6012 112.190   2
  17  -3   2-60.5176 118.624   2
  17   3   3 1581.96 168.510   2
  17  -3   3 1514.07 168.921   2
  17   3  -3 1802.27 184.299   2
  17   3   4 115.580 109.262   2
  17  -3   4-21.3585 104.306   2
  17   3   5 1424.52 157.044   2
  17  -3   5 1617.47 161.325   2
  17   3   6 120.613 108.213   2
  17  -3   6 3.54075 99.7576   2
  17  -3   7-32.7136 90.4574   2
  17   4   0 65.7702 112.869   2
  17   4  -1 84.4977 113.381   2
  17   4   1 95.7499 118.185   2
  17  -4   1 345.886 116.761   2
  17  -4   2 2635.39 199.321   2
  17   4  -2 2710.64 203.053   2
  17   4   2 2566.59 202.850   2
  17   4   3-161.133 114.807   2
  17  -4   3 211.869 110.091   2
  17  -4   4 515.420 119.403   2
 -17  -4  -4 247.951 126.051  14
 -17  -4   4 318.250 117.162  14
  17   4   5 529.637 127.364   2
  17  -4   5 695.144 123.698   2
  17  -4   6 117.910 91.9524   2
 -17  -5   0 48.2860 118.482  14
  17   5   0 156.729 109.084   2
  17   5   1 181.155 118.013   2
 -17  -5  -1 189.653 118.063  14
 -17  -5   1 129.966 118.160  14
  17   5   2 721.985 132.201   2
  17  -5   2 646.475 124.236   2
 -17  -5  -2 950.183 144.771  14
 -17  -5   2 830.393 144.247  14
  17   5   3 134.845 104.744   2
  17  -5   3 217.721 113.184   2
 -17  -5  -3 248.973 121.009  14
 -17  -5   3 206.453 119.879  14
  17   5   4 1093.76 143.110   2
  17  -5   4 1476.79 153.714   2
 -17  -5  -4 1439.61 148.267  14
 -17  -5   4 1268.30 145.998  14
  17  -5   5 28.6062 91.3991   2
 -17  -6   0 116.274 115.789  14
 -17  -6  -1 241.574 119.081  14
 -17  -6   1 266.390 115.725  14
 -17  -6  -2 765.066 134.003  14
 -17  -6   2 788.784 135.416  14
 -17  -6  -3-1.87916 105.074  14
 -17  -6   3 178.383 112.698  14
 -17  -7   0-158.685 104.050  14
  18   0   0-204.974 108.047   2
  18   0  -1-102.345 106.893   2
  18   0   1-106.976 103.368   2
  18   0   2 651.733 123.475   2
  18   0   3-211.084 103.993   2
  18   0   4 488.729 106.905   2
  18   1   0 97.5240 102.439   2
  18  -1   0-121.166 102.746   2
  18   1  -1 27.1118 100.136   2
  18   1   1 53.0725 95.7734   2
  18  -1  -1 29.0151 97.5491   2
  18  -1   1-87.7295 101.796   2
  18   1  -2-1.46058 99.8626   2
  18   1   2 123.806 96.2651   2
  18  -1   2-103.905 102.945   2
  18   1   3-85.8463 94.0111   2
  18  -1   3-90.4136 102.184   2
  18   2   0 203.044 109.576   2
  18  -2   0-178.684 104.384   2
  18   2  -1 1893.30 171.316   2
  18   2   1 1854.82 162.497   2
  18  -2   1 1757.39 158.528   2
  18   2   2 206.325 110.527   2
  18  -2   2 71.9135 94.1193   2
  18   2   3 527.917 110.763   2
  18  -2   3 445.045 113.781   2
  18   3   0 79.3326 96.8519   2
  18   3   1 832.848 124.933   2
  18   3  -1 898.643 131.696   2
  18   3   2-118.822 94.8780   2
   0   0   0    0.00    0.00   0
TITL exp_567_JW_5ClbIm in Pbca
REM Pbca (#61 in standard setting)
CELL 1.54184  15.725985  16.018414  18.161731  90.0000  90.0000  90.0000
ZERR   20.00   0.000822   0.001093   0.001009   0.0000   0.0000   0.0000
LATT  1
SYMM -x+1/2,-y, z+1/2
SYMM -x, y+1/2,-z+1/2
SYMM  x+1/2,-y+1/2,-z
SFAC C H N Cl Zn
UNIT 149.60 94.80 80.00 7.40 20.00
TREF
HKLF 4
END
;
_shelx_hkl_checksum              412
loop_
_space_group_symop_operation_xyz
'x, y, z'
'-x+1/2, -y, z+1/2'
'x+1/2, -y+1/2, -z'
'-x, y+1/2, -z+1/2'
'-x, -y, -z'
'x-1/2, y, -z-1/2'
'-x-1/2, y-1/2, z'
'x, -y-1/2, z-1/2'
loop_
_atom_site_label
_atom_site_type_symbol
_atom_site_fract_x
_atom_site_fract_y
_atom_site_fract_z
_atom_site_U_iso_or_equiv
_atom_site_adp_type
_atom_site_occupancy
_atom_site_site_symmetry_order
_atom_site_calc_flag
_atom_site_refinement_flags_posn
_atom_site_refinement_flags_adp
_atom_site_refinement_flags_occupancy
_atom_site_disorder_assembly
_atom_site_disorder_group
Zn1 Zn 0.30911(5) 0.35723(5) 0.09849(5) 0.0769(3) Uani 1 1 d . . . . .
Zn2 Zn 0.49584(5) 0.66387(5) 0.18221(5) 0.0749(3) Uani 1 1 d . . . . .
N2 N 0.4487(3) 0.1914(3) 0.2224(3) 0.0830(14) Uani 1 1 d . . . . .
N6 N 0.0707(3) 0.2596(3) 0.1447(3) 0.0773(13) Uani 1 1 d . . . . .
N1 N 0.3746(3) 0.2613(3) 0.1402(3) 0.0789(13) Uani 1 1 d . . . . .
N5 N 0.1864(3) 0.3324(3) 0.1136(3) 0.0799(14) Uani 1 1 d . . . . .
N3 N 0.3412(4) 0.4582(4) 0.1553(3) 0.0870(15) Uani 1 1 d . . . . .
C4 C 0.4006(4) 0.5125(4) 0.1403(4) 0.0819(17) Uani 1 1 d . . . . .
H4 H 0.430190 0.511534 0.095992 0.098 Uiso 1 1 calc R U . . .
N4 N 0.4163(3) 0.5682(3) 0.1909(3) 0.0810(14) Uani 1 1 d . . . . .
C1 C 0.4151(4) 0.2624(4) 0.2035(4) 0.0829(17) Uani 1 1 d . . . . .
H1 H 0.419460 0.310156 0.232351 0.100 Uiso 1 1 calc R U . . .
C7 C 0.1558(4) 0.2619(4) 0.1398(3) 0.0746(15) Uani 1 1 d . . . . .
H7 H 0.190294 0.217371 0.153626 0.090 Uiso 1 1 calc R U . . .
C3 C 0.4267(7) 0.1401(5) 0.1667(5) 0.125(3) Uani 1 1 d . . . . .
H3 H 0.439419 0.083447 0.163820 0.150 Uiso 1 1 calc R U . . .
C6 C 0.3182(7) 0.4807(6) 0.2247(5) 0.143(4) Uani 1 1 d . . . . .
H6 H 0.277279 0.453693 0.252939 0.171 Uiso 1 1 calc R U . . .
C2 C 0.3837(6) 0.1836(5) 0.1163(5) 0.120(3) Uani 1 1 d . . . . .
H2 H 0.363467 0.162862 0.071820 0.144 Uiso 1 1 calc R U . . .
C5 C 0.3627(7) 0.5467(6) 0.2464(5) 0.139(4) Uani 1 1 d . . . . .
H5 H 0.357995 0.573492 0.291618 0.167 Uiso 1 1 calc R U . . .
N7A N 0.3394(4) 0.3732(4) -0.0060(3) 0.0928(16) Uani 0.829(8) 1 d . . P A 1
N8A N 0.4138(4) 0.3640(4) -0.1107(3) 0.0919(16) Uani 0.829(8) 1 d . . P A 1
C14A C 0.4090(4) 0.3499(5) -0.0389(4) 0.0717(19) Uani 0.829(8) 1 d . . P A 1
H14A H 0.453232 0.324454 -0.013322 0.086 Uiso 0.829(8) 1 calc R U P A 1
C15A C 0.3327(9) 0.3879(13) -0.1288(7) 0.176(7) Uani 0.829(8) 1 d . . P A 1
H15A H 0.311643 0.397761 -0.175855 0.211 Uiso 0.829(8) 1 calc R U P A 1
C16A C 0.2901(9) 0.3942(15) -0.0658(9) 0.220(11) Uani 0.829(8) 1 d . . P A 1
H16A H 0.233590 0.410937 -0.062602 0.264 Uiso 0.829(8) 1 calc R U P A 1
C8A C 0.1161(5) 0.3791(5) 0.0979(5) 0.107(3) Uani 0.603(8) 1 d . . P B 1
H8A H 0.116550 0.432373 0.077472 0.128 Uiso 0.603(8) 1 calc R U P B 1
C9A C 0.0462(5) 0.3359(5) 0.1168(5) 0.099(2) Uani 0.603(8) 1 d . . P B 1
H9A H -0.009531 0.354408 0.111799 0.119 Uiso 0.603(8) 1 calc R U P B 1
C8B C 0.1161(5) 0.3791(5) 0.0979(5) 0.107(3) Uani 0.397(8) 1 d . . P B 2
C9B C 0.0462(5) 0.3359(5) 0.1168(5) 0.099(2) Uani 0.397(8) 1 d . . P B 2
C10 C -0.0373(11) 0.3620(10) 0.0974(8) 0.075(4) Uiso 0.397(8) 1 d . . P B 2
H10 H -0.086152 0.331599 0.108209 0.090 Uiso 0.397(8) 1 calc R U P B 2
C13 C 0.1124(11) 0.4566(10) 0.0526(8) 0.080(4) Uiso 0.397(8) 1 d . . P B 2
H13 H 0.160799 0.483255 0.034956 0.096 Uiso 0.397(8) 1 calc R U P B 2
C11 C -0.0378(12) 0.4426(11) 0.0581(9) 0.088(5) Uiso 0.397(8) 1 d . . P B 2
Cl1 Cl -0.118600 0.469300 0.044300 0.318(9) Uiso 0.397(8) 1 d . . P B 2
C12 C 0.0288(12) 0.4863(12) 0.0386(9) 0.092(5) Uiso 0.397(8) 1 d . . P B 2
H12 H 0.021360 0.537493 0.015232 0.110 Uiso 0.397(8) 1 calc R U P B 2
N7B N 0.3394(4) 0.3732(4) -0.0060(3) 0.0928(16) Uani 0.171(8) 1 d D . P A 2
N8B N 0.4138(4) 0.3640(4) -0.1107(3) 0.0919(16) Uani 0.171(8) 1 d D . P A 2
C14B C 0.3849(8) 0.3309(17) -0.0505(9) 0.0717(19) Uani 0.171(8) 1 d D . P A 2
H14B H 0.397587 0.275496 -0.039748 0.086 Uiso 0.171(8) 1 calc R U P A 2
C19 C 0.340(2) 0.5998(16) -0.1255(19) 0.136 Uiso 0.171(8) 1 d G U P A 2
C20 C 0.3831(19) 0.528(2) -0.1469(14) 0.129(18) Uiso 0.171(8) 1 d G . P A 2
H20 H 0.413124 0.527458 -0.191051 0.154 Uiso 0.171(8) 1 calc R U P A 2
C15B C 0.3815(15) 0.4576(16) -0.1025(14) 0.071(10) Uani 0.171(8) 1 d G . P A 2
C16B C 0.3366(16) 0.4586(16) -0.0365(13) 0.080(11) Uani 0.171(8) 1 d G . P A 2
C17 C 0.2933(18) 0.530(2) -0.0151(15) 0.127(18) Uiso 0.171(8) 1 d G . P A 2
H17 H 0.263314 0.530972 0.029028 0.152 Uiso 0.171(8) 1 calc R U P A 2
C18 C 0.295(2) 0.6009(16) -0.060(2) 0.14(2) Uiso 0.171(8) 1 d G . P A 2
H18 H 0.265994 0.648805 -0.045212 0.166 Uiso 0.171(8) 1 calc R U P A 2
Cl2 Cl 0.342700 0.668015 -0.181600 0.34(2) Uiso 0.171(8) 1 d . . P A 2
C2S C 0.385571 0.623075 -0.097095 0.231 Uiso 0.389(9) 1 d . U P C 3
H2S1 H 0.379280 0.581093 -0.059769 0.347 Uiso 0.389(9) 1 calc R U P C 3
H2S2 H 0.398631 0.596913 -0.143287 0.347 Uiso 0.389(9) 1 calc R U P C 3
H2S3 H 0.430846 0.660316 -0.083743 0.347 Uiso 0.389(9) 1 calc R U P C 3
C1S C 0.302164 0.713021 -0.137766 0.231 Uiso 0.389(9) 1 d . U P C 3
H1S H 0.263590 0.727006 -0.174568 0.278 Uiso 0.389(9) 1 calc R U P C 3
O1S O 0.376005 0.750863 -0.086349 0.231 Uiso 0.389(9) 1 d . U P C 3
N1S N 0.325212 0.658916 -0.102300 0.231 Uiso 0.389(9) 1 d . U P C 3
C3S C 0.265800 0.676600 -0.042000 0.231 Uiso 0.389(9) 1 d . U P C 3
H3S1 H 0.218689 0.708448 -0.060463 0.347 Uiso 0.389(9) 1 calc R U P C 3
H3S2 H 0.245383 0.625017 -0.021711 0.347 Uiso 0.389(9) 1 calc R U P C 3
H3S3 H 0.294455 0.707904 -0.004369 0.347 Uiso 0.389(9) 1 calc R U P C 3
loop_
_atom_site_aniso_label
_atom_site_aniso_U_11
_atom_site_aniso_U_22
_atom_site_aniso_U_33
_atom_site_aniso_U_23
_atom_site_aniso_U_13
_atom_site_aniso_U_12
Zn1 0.0595(5) 0.0763(5) 0.0948(6) 0.0085(4) -0.0014(4) -0.0053(4)
Zn2 0.0619(5) 0.0762(6) 0.0867(6) -0.0008(4) -0.0090(4) 0.0002(4)
N2 0.084(3) 0.078(3) 0.087(3) -0.004(3) -0.016(3) -0.001(3)
N6 0.061(3) 0.072(3) 0.099(3) 0.010(3) 0.007(3) 0.002(2)
N1 0.076(3) 0.080(3) 0.081(3) 0.001(3) -0.011(3) 0.001(3)
N5 0.058(3) 0.075(3) 0.107(4) 0.012(3) 0.003(3) -0.001(2)
N3 0.074(3) 0.083(3) 0.104(4) 0.003(3) 0.011(3) -0.004(3)
C4 0.076(4) 0.079(4) 0.090(4) -0.004(3) 0.009(3) -0.011(3)
N4 0.075(3) 0.075(3) 0.092(3) -0.004(3) 0.004(3) -0.004(3)
C1 0.079(4) 0.077(4) 0.094(4) -0.004(3) -0.012(4) 0.001(3)
C7 0.061(3) 0.075(4) 0.088(4) 0.008(3) -0.001(3) 0.003(3)
C3 0.160(9) 0.082(5) 0.134(7) -0.015(5) -0.063(7) 0.023(5)
C6 0.159(9) 0.121(7) 0.149(8) -0.035(6) 0.079(7) -0.065(6)
C2 0.152(8) 0.084(5) 0.123(6) -0.021(4) -0.065(6) 0.016(5)
C5 0.169(9) 0.116(6) 0.134(7) -0.029(6) 0.065(7) -0.050(7)
N7A 0.066(3) 0.119(5) 0.093(4) 0.021(3) 0.004(3) 0.017(3)
N8A 0.070(3) 0.111(4) 0.095(4) 0.017(3) -0.004(3) 0.015(3)
C14A 0.049(4) 0.088(5) 0.078(4) 0.001(4) -0.020(3) -0.005(3)
C15A 0.105(9) 0.31(2) 0.112(8) 0.048(11) 0.005(7) 0.096(12)
C16A 0.095(9) 0.42(3) 0.142(11) 0.108(16) 0.031(9) 0.122(15)
C8A 0.068(4) 0.089(5) 0.164(8) 0.034(5) 0.008(4) 0.006(4)
C9A 0.070(4) 0.092(5) 0.136(6) 0.022(4) 0.009(4) 0.013(4)
C8B 0.068(4) 0.089(5) 0.164(8) 0.034(5) 0.008(4) 0.006(4)
C9B 0.070(4) 0.092(5) 0.136(6) 0.022(4) 0.009(4) 0.013(4)
N7B 0.066(3) 0.119(5) 0.093(4) 0.021(3) 0.004(3) 0.017(3)
N8B 0.070(3) 0.111(4) 0.095(4) 0.017(3) -0.004(3) 0.015(3)
C14B 0.049(4) 0.088(5) 0.078(4) 0.001(4) -0.020(3) -0.005(3)
C15B 0.054(18) 0.09(2) 0.07(2) 0.028(18) -0.005(16) 0.047(17)
C16B 0.043(17) 0.08(2) 0.12(3) 0.02(2) -0.010(19) 0.024(16)
loop_
_atom_type_symbol
_atom_type_description
_atom_type_scat_dispersion_real
_atom_type_scat_dispersion_imag
_atom_type_scat_source
C C 0.0181 0.0091 'International Tables Vol C Tables 4.2.6.8 and 6.1.1.4'
H H 0.0000 0.0000 'International Tables Vol C Tables 4.2.6.8 and 6.1.1.4'
N N 0.0311 0.0180 'International Tables Vol C Tables 4.2.6.8 and 6.1.1.4'
Zn Zn -1.5491 0.6778 'International Tables Vol C Tables 4.2.6.8 and 6.1.1.4'
Cl Cl 0.3639 0.7018 'International Tables Vol C Tables 4.2.6.8 and 6.1.1.4'
O O 0.0492 0.0322 'International Tables Vol C Tables 4.2.6.8 and 6.1.1.4'
loop_
_geom_angle_atom_site_label_1
_geom_angle_atom_site_label_2
_geom_angle_atom_site_label_3
_geom_angle
_geom_angle_site_symmetry_1
_geom_angle_site_symmetry_3
N7B Zn1 N3 109.5(3) . .
N7A Zn1 N3 109.5(3) . .
N7B Zn1 N5 113.1(2) . .
N7A Zn1 N5 113.1(2) . .
N3 Zn1 N5 109.7(2) . .
N7B Zn1 N1 109.9(2) . .
N7A Zn1 N1 109.9(2) . .
N3 Zn1 N1 107.4(2) . .
N5 Zn1 N1 107.1(2) . .
N8A Zn2 N6 109.2(2) 5_665 7_665
N8A Zn2 N4 109.3(2) 5_665 .
N6 Zn2 N4 107.0(2) 7_665 .
N8A Zn2 N2 107.9(2) 5_665 4_655
N6 Zn2 N2 111.1(2) 7_665 4_655
N4 Zn2 N2 112.2(2) . 4_655
C1 N2 C3 103.3(6) . .
C1 N2 Zn2 127.1(5) . 4_645
C3 N2 Zn2 129.1(5) . 4_645
C7 N6 C9B 103.3(5) . .
C7 N6 C9A 103.3(5) . .
C7 N6 Zn2 124.9(4) . 7_655
C9A N6 Zn2 131.8(5) . 7_655
C1 N1 C2 104.2(6) . .
C1 N1 Zn1 124.8(5) . .
C2 N1 Zn1 130.8(5) . .
C7 N5 C8B 104.5(5) . .
C7 N5 C8A 104.5(5) . .
C7 N5 Zn1 125.1(4) . .
C8B N5 Zn1 130.3(5) . .
C8A N5 Zn1 130.3(5) . .
C4 N3 C6 101.9(6) . .
C4 N3 Zn1 128.1(5) . .
C6 N3 Zn1 129.1(5) . .
N4 C4 N3 116.4(6) . .
C4 N4 C5 103.4(6) . .
C4 N4 Zn2 126.3(4) . .
C5 N4 Zn2 130.3(5) . .
N2 C1 N1 114.6(6) . .
N5 C7 N6 114.3(5) . .
C2 C3 N2 109.0(7) . .
C5 C6 N3 110.3(7) . .
N1 C2 C3 108.8(7) . .
C6 C5 N4 108.0(8) . .
C14A N7A C16A 100.4(7) . .
C14A N7A Zn1 127.4(5) . .
C16A N7A Zn1 130.9(6) . .
C14A N8A C15A 103.3(7) . .
C14A N8A Zn2 130.4(5) . 5_665
C15A N8A Zn2 125.0(7) . 5_665
N7A C14A N8A 116.8(6) . .
C16A C15A N8A 106.5(11) . .
C15A C16A N7A 112.1(10) . .
C9A C8A N5 109.1(7) . .
C8A C9A N6 108.8(6) . .
C9B C8B N5 109.1(7) . .
C9B C8B C13 122.5(9) . .
N5 C8B C13 127.1(9) . .
C8B C9B N6 108.8(6) . .
C8B C9B C10 122.7(9) . .
N6 C9B C10 127.5(9) . .
C9B C10 C11 112.4(14) . .
C12 C13 C8B 114.5(15) . .
C12 C11 Cl1 121.8(16) . .
C12 C11 C10 126.5(18) . .
Cl1 C11 C10 111.6(14) . .
C11 Cl1 C12 68.1(9) . 5_565
C13 Cl1 C12 38.5(6) 5_565 5_565
C11 C12 C13 120.8(18) . .
C11 C12 C12 86.3(16) . 5_565
C13 C12 C12 135.8(19) . 5_565
C14B N7B C16B 105.7(16) . .
C14B N7B Zn1 132.6(11) . .
C16B N7B Zn1 118.3(11) . .
C14B N8B C15B 101.2(15) . .
N7B C14B N8B 121(2) . .
C20 C19 C18 120.0 . .
C20 C19 Cl2 113(2) . .
C18 C19 Cl2 126(2) . .
C15B C20 C19 120.0 . .
C20 C15B C16B 120.0 . .
C20 C15B N8B 134.9(16) . .
C16B C15B N8B 104.8(16) . .
C15B C16B C17 120.0 . .
C15B C16B N7B 107.3(17) . .
C17 C16B N7B 132.4(17) . .
C18 C17 C16B 120.0 . .
C17 C18 C19 120.0 . .
N1S C1S O1S 74.261(3) . .
C1S O1S N1S 40.148(1) . .
C2S N1S C1S 135.372(2) . .
C2S N1S C3S 125.389(2) . .
C1S N1S C3S 94.162(2) . .
C2S N1S O1S 91.817(5) . .
C1S N1S O1S 65.591(3) . .
C3S N1S O1S 90.273(2) . .
loop_
_geom_bond_atom_site_label_1
_geom_bond_atom_site_label_2
_geom_bond_distance
_geom_bond_site_symmetry_2
Zn1 N7B 1.973(6) .
Zn1 N7A 1.973(6) .
Zn1 N3 1.984(6) .
Zn1 N5 1.989(5) .
Zn1 N1 1.999(5) .
Zn2 N8A 1.976(6) 5_665
Zn2 N6 1.977(5) 7_665
Zn2 N4 1.984(5) .
Zn2 N2 1.989(5) 4_655
N2 C1 1.300(8) .
N2 C3 1.350(9) .
N6 C7 1.342(8) .
N6 C9B 1.378(8) .
N6 C9A 1.378(8) .
N1 C1 1.314(8) .
N1 C2 1.326(9) .
N5 C7 1.317(7) .
N5 C8B 1.365(9) .
N5 C8A 1.365(9) .
N3 C4 1.306(8) .
N3 C6 1.359(10) .
C4 N4 1.304(8) .
N4 C5 1.358(9) .
C3 C2 1.334(11) .
C6 C5 1.327(11) .
N7A C14A 1.303(9) .
N7A C16A 1.378(14) .
N8A C14A 1.325(9) .
N8A C15A 1.372(13) .
C15A C16A 1.329(18) .
C8A C9A 1.344(10) .
C8B C9B 1.344(10) .
C8B C13 1.490(18) .
C9B C10 1.423(18) .
C10 C11 1.48(2) .
C13 C12 1.42(2) .
C13 Cl1 2.125(16) 5_565
C11 C12 1.31(2) .
C11 Cl1 1.364(19) .
Cl1 C12 2.183(18) 5_565
C12 C12 1.73(4) 5_565
N7B C14B 1.276(19) .
N7B C16B 1.48(2) .
N8B C14B 1.297(19) .
N8B C15B 1.59(2) .
C19 C20 1.3900 .
C19 C18 1.3900 .
C19 Cl2 1.49(2) .
C20 C15B 1.3900 .
C15B C16B 1.3900 .
C16B C17 1.3900 .
C17 C18 1.3900 .
C2S N1S 1.11333(6) .
C1S N1S 1.13903(4) .
C1S O1S 1.60869(5) .
O1S N1S 1.70035(8) .
N1S C3S 1.46715(6) .
