#------------------------------------------------------------------------------
#$Date: 2020-02-12 01:53:26 +0200 (Wed, 12 Feb 2020) $
#$Revision: 248049 $
#$URL: file:///home/coder/svn-repositories/cod/cif/4/13/41/4134160.cif $
#------------------------------------------------------------------------------
#
# This file is available in the Crystallography Open Database (COD),
# http://www.crystallography.net/
#
# All data on this site have been placed in the public domain by the
# contributors.
#
data_4134160
loop_
_publ_author_name
'Hou, Jingwei'
'Rios, Laura'
'Krajnc, Andra\<z'
'McCaul, Aoife'
'Li, Shichun'
'Bumstead, Alice'
'Sapnik, Adam'
'Deng, Zeyu'
'Lin, Rijia'
'Chater, Philip A.'
'Keeble, Dean S.'
'Keen, David A.'
'Appadoo, Dominique'
'Chan, Bun'
'Chen, Vicki'
'Mali, Gregor'
'Bennett, Thomas D.'
_publ_section_title
;
 Halogenated Metal-Organic Framework Glasses and Liquids.
;
_journal_name_full               'Journal of the American Chemical Society'
_journal_paper_doi               10.1021/jacs.9b11639
_journal_year                    2020
_chemical_formula_moiety
'(C13.88 H13.13 Cl0.38 N8 Zn2)*0.780(C3 H7 N1 O1)'
_chemical_formula_sum            'C16.22 H18.58 Cl0.38 N8.78 O0.78 Zn2'
_chemical_formula_weight         493.27
_chemical_melting_point          '663 K (onset)'
_chemical_name_common            ZIF-UC-3
_chemical_name_systematic        Zn(Im)1.81(ClmbIm)0.19
_space_group_crystal_system      orthorhombic
_space_group_IT_number           61
_space_group_name_Hall           '-P 2ac 2ab'
_space_group_name_H-M_alt        'P b c a'
_atom_sites_solution_hydrogens   geom
_audit_creation_method           SHELXL-2018/3
_cell_angle_alpha                90
_cell_angle_beta                 90
_cell_angle_gamma                90
_cell_formula_units_Z            8
_cell_length_a                   15.8749(6)
_cell_length_b                   16.2805(6)
_cell_length_c                   18.0681(6)
_cell_measurement_reflns_used    2569
_cell_measurement_temperature    293(2)
_cell_measurement_theta_max      62.3230
_cell_measurement_theta_min      4.5880
_cell_volume                     4669.7(3)
_computing_cell_refinement
;
CrysAlisPro, Agilent Technologies,
Version 1.171.37.34i (release 04-08-2014 CrysAlis171 .NET)
(compiled Aug  4 2014,14:34:23)
;
_computing_data_collection
;
CrysAlisPro, Agilent Technologies,
Version 1.171.37.34i (release 04-08-2014 CrysAlis171 .NET)
(compiled Aug  4 2014,14:34:23)
;
_computing_data_reduction
;
CrysAlisPro, Agilent Technologies,
Version 1.171.37.34i (release 04-08-2014 CrysAlis171 .NET)
(compiled Aug  4 2014,14:34:23)
;
_computing_structure_refinement  'SHELXL-2018/3 (Sheldrick, 2018)'
_computing_structure_solution    'SUPERFLIP (Palatinus & Chapuis, 2007)'
_diffrn_ambient_temperature      293(2)
_diffrn_detector_area_resol_mean 16.1183
_diffrn_measured_fraction_theta_full 0.9323
_diffrn_measured_fraction_theta_max 0.9956
_diffrn_measurement_details
;
#__ type_ start__ end____ width___ exp.time_
  1 omega  -72.00  -32.00   1.0000   63.2350
omega____ theta____ kappa____ phi______ frames
    -      -51.2500  -61.0000  -30.0000 40

#__ type_ start__ end____ width___ exp.time_
  2 omega -125.00  -48.00   1.0000   63.2350
omega____ theta____ kappa____ phi______ frames
    -      -51.2500  -61.0000   60.0000 77

#__ type_ start__ end____ width___ exp.time_
  3 omega   75.00  130.00   1.0000   63.2350
omega____ theta____ kappa____ phi______ frames
    -       51.2500  125.0000  150.0000 55

#__ type_ start__ end____ width___ exp.time_
  4 omega   40.00   90.00   1.0000   15.8100
omega____ theta____ kappa____ phi______ frames
    -        0.0000  178.0000    0.0000 50

#__ type_ start__ end____ width___ exp.time_
  5 omega   74.00  126.00   1.0000   63.2350
omega____ theta____ kappa____ phi______ frames
    -       51.2500  125.0000 -120.0000 52

#__ type_ start__ end____ width___ exp.time_
  6 omega   95.00  121.00   1.0000   63.2350
omega____ theta____ kappa____ phi______ frames
    -      102.5000   65.0000 -150.0000 26

#__ type_ start__ end____ width___ exp.time_
  7 omega  129.00  177.00   1.0000   63.2350
omega____ theta____ kappa____ phi______ frames
    -      102.5000   65.0000 -150.0000 48

#__ type_ start__ end____ width___ exp.time_
  8 omega  120.00  170.00   1.0000   63.2350
omega____ theta____ kappa____ phi______ frames
    -      102.5000  -21.0000  -30.0000 50

#__ type_ start__ end____ width___ exp.time_
  9 omega  119.00  153.00   1.0000   63.2350
omega____ theta____ kappa____ phi______ frames
    -      102.5000  -21.0000    0.0000 34

#__ type_ start__ end____ width___ exp.time_
 10 omega  112.00  176.00   1.0000   63.2350
omega____ theta____ kappa____ phi______ frames
    -      102.5000  -21.0000   30.0000 64

#__ type_ start__ end____ width___ exp.time_
 11 omega   88.00  131.00   1.0000   63.2350
omega____ theta____ kappa____ phi______ frames
    -      102.5000  -65.0000   60.0000 43

#__ type_ start__ end____ width___ exp.time_
 12 omega   49.00   75.00   1.0000   63.2350
omega____ theta____ kappa____ phi______ frames
    -      102.5000  -65.0000   60.0000 26

#__ type_ start__ end____ width___ exp.time_
 13 omega   45.00   71.00   1.0000   63.2350
omega____ theta____ kappa____ phi______ frames
    -      102.5000  -54.0000   90.0000 26

#__ type_ start__ end____ width___ exp.time_
 14 omega   34.00   64.00   1.0000   63.2350
omega____ theta____ kappa____ phi______ frames
    -      102.5000  -54.0000  120.0000 30

#__ type_ start__ end____ width___ exp.time_
 15 omega   30.00   70.00   1.0000   63.2350
omega____ theta____ kappa____ phi______ frames
    -      102.5000  -43.0000  150.0000 40

#__ type_ start__ end____ width___ exp.time_
 16 omega   25.00   69.00   1.0000   63.2350
omega____ theta____ kappa____ phi______ frames
    -      102.5000  -32.0000   60.0000 44

#__ type_ start__ end____ width___ exp.time_
 17 omega   23.00   56.00   1.0000   63.2350
omega____ theta____ kappa____ phi______ frames
    -      102.5000  -32.0000  -30.0000 33

#__ type_ start__ end____ width___ exp.time_
 18 omega   33.00   64.00   1.0000   63.2350
omega____ theta____ kappa____ phi______ frames
    -      102.5000  -32.0000  -60.0000 31

#__ type_ start__ end____ width___ exp.time_
 19 omega   37.00   72.00   1.0000   63.2350
omega____ theta____ kappa____ phi______ frames
    -      102.5000  -43.0000  -90.0000 35

#__ type_ start__ end____ width___ exp.time_
 20 omega   24.00   49.00   1.0000   63.2350
omega____ theta____ kappa____ phi______ frames
    -      102.5000  -32.0000  -90.0000 25

#__ type_ start__ end____ width___ exp.time_
 21 omega   39.00   90.00   1.0000   15.8100
omega____ theta____ kappa____ phi______ frames
    -        0.0000  178.0000  150.0000 51
;
_diffrn_measurement_device_type  'Xcalibur, Eos, Gemini ultra'
_diffrn_measurement_method       '\w scans'
_diffrn_orient_matrix_UB_11      -0.0640141000
_diffrn_orient_matrix_UB_12      -0.0691849000
_diffrn_orient_matrix_UB_13      0.0147242000
_diffrn_orient_matrix_UB_21      -0.0619388000
_diffrn_orient_matrix_UB_22      0.0401654000
_diffrn_orient_matrix_UB_23      -0.0547494000
_diffrn_orient_matrix_UB_31      0.0384696000
_diffrn_orient_matrix_UB_32      -0.0504888000
_diffrn_orient_matrix_UB_33      -0.0637378000
_diffrn_radiation_type           CuK\a
_diffrn_radiation_wavelength     1.54184
_diffrn_reflns_av_R_equivalents  0.0422
_diffrn_reflns_av_sigmaI/netI    0.0466
_diffrn_reflns_Laue_measured_fraction_full 1.000
_diffrn_reflns_Laue_measured_fraction_max 0.996
_diffrn_reflns_limit_h_max       18
_diffrn_reflns_limit_h_min       -18
_diffrn_reflns_limit_k_max       18
_diffrn_reflns_limit_k_min       -18
_diffrn_reflns_limit_l_max       21
_diffrn_reflns_limit_l_min       -21
_diffrn_reflns_number            11002
_diffrn_reflns_point_group_measured_fraction_full 1.000
_diffrn_reflns_point_group_measured_fraction_max 0.996
_diffrn_reflns_theta_full        66.9682
_diffrn_reflns_theta_max         64.1878
_diffrn_reflns_theta_min         2.4454
_diffrn_source                   'sealed X-ray tube'
_exptl_absorpt_coefficient_mu    3.10958
_exptl_absorpt_correction_T_max  1.00000
_exptl_absorpt_correction_T_min  0.74562
_exptl_absorpt_correction_type   multi-scan
_exptl_absorpt_process_details
;
CrysAlisPro, Agilent Technologies,
Version 1.171.37.34i (release 04-08-2014 CrysAlis171 .NET)
(compiled Aug  4 2014,14:34:23)
Empirical absorption correction using spherical harmonics,
 implemented in SCALE3 ABSPACK scaling algorithm.
;
_exptl_crystal_colour            white
_exptl_crystal_density_diffrn    1.401
_exptl_crystal_description       tetrahedal
_exptl_crystal_F_000             2225.76
_exptl_crystal_size_max          0.05
_exptl_crystal_size_mid          0.04
_exptl_crystal_size_min          0.04
_refine_diff_density_max         0.932
_refine_diff_density_min         -1.143
_refine_diff_density_rms         0.142
_refine_ls_extinction_method     none
_refine_ls_goodness_of_fit_ref   1.205
_refine_ls_hydrogen_treatment    constr
_refine_ls_matrix_type           full
_refine_ls_number_parameters     232
_refine_ls_number_reflns         3879
_refine_ls_number_restraints     19
_refine_ls_restrained_S_all      1.406
_refine_ls_R_factor_all          0.1257
_refine_ls_R_factor_gt           0.0968
_refine_ls_shift/su_max          0.000
_refine_ls_shift/su_mean         0.000
_refine_ls_structure_factor_coef Fsqd
_refine_ls_weighting_details
'w=1/[\s^2^(Fo^2^)+(0.1893P)^2^+3.7539P] where P=(Fo^2^+2Fc^2^)/3'
_refine_ls_weighting_scheme      calc
_refine_ls_wR_factor_gt          0.2950
_refine_ls_wR_factor_ref         0.3257
_reflns_Friedel_coverage         0.000
_reflns_number_gt                2794
_reflns_number_total             3879
_reflns_threshold_expression     'I > 2\s(I)'
_cod_data_source_file            ja9b11639_si_002.cif
_cod_data_source_block           shelx
_cod_database_code               4134160
_shelx_shelxl_version_number     2018/3
_shelx_space_group_comment
;
The symmetry employed for this shelxl refinement is uniquely defined
by the following loop, which should always be used as a source of
symmetry information in preference to the above space-group names.
They are only intended as comments.
;
_reflns_odcompleteness_completeness 93.23
_reflns_odcompleteness_theta     66.97
_reflns_odcompleteness_iscentric 1
_shelx_res_file
;
TITL exp_453_aoife in Pbca
    shelx.res
    created by SHELXL-2018/3 at 18:21:29 on 04-Sep-2019
CELL  1.54184  15.8749  16.2805  18.0681   90.000   90.000   90.000
ZERR     2.00   0.0006   0.0006   0.0006    0.000    0.000    0.000
LATT   1
SYMM  1/2 - X, - Y, 1/2 + Z
SYMM  - X, 1/2 + Y, 1/2 - Z
SYMM  1/2 + X, 1/2 - Y, - Z
SFAC  C    H    N    CL   ZN   O
UNIT  62 57 34 2 8 2
MERG   2
FLAT  0.200 N8 N7 C12B C10 C13 C11B C16 C15 C14
EXYZ  C12a C12b
EXYZ  C11a C11b
EADP  C12a C12b
EADP  C11a C11b
DFIX  1.28 0.020 O1S C1S
DFIX  1.50 0.020 C1S N1S
DFIX  1.54 0.020 N1S C2S
DFIX  1.49 0.020 N1S C3S
DANG     2.310   0.030 O1S C1S O1S N1S
DANG     2.220   0.030 C1S N1S C1S C3S
DANG     2.170   0.030 C1S N1S C1S C2S
DFIX 1.3 0.020 C10 C17
EADP C1 C2 C3 N1 N2
FLAT C1 C2 C3 N1 N2
EADP C8 C7
FMAP   2
PLAN   20
ACTA    50.00
L.S.  50
WGHT    0.189300    3.753900
FVAR       2.13214   0.37515   0.77987
ZN1   5    0.683675    0.352069    0.097044    11.00000    0.07047    0.07753 =
         0.07472    0.00465    0.00033    0.00815
ZN2   5    0.487971    0.161583    0.316237    11.00000    0.06800    0.07671 =
         0.06760   -0.00074    0.00388   -0.00169
N3    3    0.612990    0.261575    0.137680    11.00000    0.10843    0.09149 =
         0.06750   -0.00764    0.01926   -0.00278
N4    3    0.540859    0.190258    0.219730    11.00000    0.09113    0.08524 =
         0.06805   -0.00814    0.01223   -0.00734
N5    3    0.656760    0.365278   -0.008981    11.00000    0.07350    0.09291 =
         0.07520    0.01909   -0.00489   -0.00854
N8    3    0.918977    0.253531    0.145380    11.00000    0.06855    0.08176 =
         0.08024    0.00500   -0.00439   -0.00280
N7    3    0.803345    0.325050    0.115067    11.00000    0.07259    0.08790 =
         0.08662    0.01269    0.00070    0.00452
N1    3    0.585155    0.564871    0.189296    11.00000    0.12081    0.11251 =
         0.10175   -0.02790   -0.04126    0.04194
N6    3    0.580722    0.360413   -0.114135    11.00000    0.06588    0.09859 =
         0.07455    0.01658    0.00106   -0.00586
N2    3    0.656882    0.454006    0.153388    11.00000    0.12081    0.11251 =
         0.10175   -0.02790   -0.04126    0.04194
C6    1    0.576519    0.260405    0.202586    11.00000    0.08882    0.07525 =
         0.07437   -0.00247    0.01060    0.00152
AFIX  43
H6    2    0.575918    0.305631    0.234025    11.00000   -1.20000
AFIX   0
C10   1    0.835137    0.255232    0.140122    11.00000    0.06714    0.07810 =
         0.08153   -0.00492   -0.00750    0.00049
C5    1    0.553889    0.144952    0.157965    11.00000    0.21489    0.09469 =
         0.10222   -0.03538    0.07699   -0.05018
AFIX  43
H5    2    0.534894    0.091399    0.151461    11.00000   -1.20000
AFIX   0
C3    1    0.596944    0.509593    0.139532    11.00000    0.12081    0.11251 =
         0.10175   -0.02790   -0.04126    0.04194
AFIX  43
H3    2    0.565418    0.508349    0.096163    11.00000   -1.20000
AFIX   0
C9    1    0.584898    0.344793   -0.041434    11.00000    0.06616    0.09426 =
         0.06998    0.01161    0.00548   -0.00609
AFIX  43
H9    2    0.540437    0.321202   -0.015522    11.00000   -1.20000
AFIX   0
C7    1    0.657710    0.391217   -0.129160    11.00000    0.10945    0.30824 =
         0.11163    0.07559   -0.01628   -0.09473
AFIX  43
H7    2    0.676296    0.408164   -0.175522    11.00000   -1.20000
AFIX   0
C8    1    0.704061    0.393584   -0.065508    11.00000    0.10945    0.30824 =
         0.11163    0.07559   -0.01628   -0.09473
AFIX  43
H8    2    0.759417    0.411810   -0.061743    11.00000   -1.20000
AFIX   0
C4    1    0.596472    0.186143    0.108882    11.00000    0.19861    0.09780 =
         0.12114   -0.04666    0.08320   -0.04695
AFIX  43
H4    2    0.612701    0.167339    0.062418    11.00000   -1.20000
AFIX   0
C2    1    0.684584    0.478865    0.219276    11.00000    0.12081    0.11251 =
         0.10175   -0.02790   -0.04126    0.04194
AFIX  43
H2    2    0.730044    0.455487    0.243979    11.00000   -1.20000
AFIX   0
C1    1    0.639110    0.541482    0.245566    11.00000    0.12081    0.11251 =
         0.10175   -0.02790   -0.04126    0.04194
AFIX  43
H1    2    0.642987    0.564739    0.292455    11.00000   -1.20000
PART    1
AFIX  66
C11B  1    0.943673    0.326797    0.119339    21.00000    0.07518    0.12390 =
         0.13484    0.04703   -0.00639   -0.00797
AFIX  43
H11B  2    0.998823    0.345858    0.116808    21.00000   -1.20000
AFIX  65
C12B  1    0.872117    0.369170    0.096801    21.00000    0.08346    0.09456 =
         0.17009    0.04586   -0.01106   -0.00097
AFIX  43
H12B  2    0.871751    0.419796    0.072963    21.00000   -1.20000
AFIX   0
PART    2
C11A  1    0.943673    0.326797    0.119339   -21.00000    0.07518    0.12390 =
         0.13484    0.04703   -0.00639   -0.00797
C12A  1    0.872117    0.369170    0.096801   -21.00000    0.08346    0.09456 =
         0.17009    0.04586   -0.01106   -0.00097
AFIX  65
C13   1    0.880040    0.442331    0.057762    21.00000    0.12516    0.13514 =
         0.11167   -0.00651   -0.02107    0.02326
AFIX  43
H13   2    0.832164    0.470681    0.042682    21.00000   -1.20000
AFIX  65
C14   1    0.959518    0.473120    0.041260    21.00000    0.18248    0.20474 =
         0.12353    0.08263   -0.03565   -0.07854
AFIX  43
H14   2    0.964819    0.522070    0.015140    21.00000   -1.20000
AFIX  65
C15   1    1.031075    0.430748    0.063797    21.00000    0.11812    0.12466 =
         0.21317   -0.04879   -0.06377    0.02006
AFIX   0
CL1   4    1.121044    0.463055    0.053405    21.00000    0.21634    0.12233 =
         0.12198   -0.00240    0.01073   -0.07364
C17   1    0.786222    0.194447    0.165277    21.00000    0.13178    0.14098 =
         0.20334   -0.05269   -0.04483    0.06526
AFIX  33
H17A  2    0.820866    0.149316    0.180858    21.00000   -1.50000
H17B  2    0.753604    0.213835    0.206467    21.00000   -1.50000
H17C  2    0.749085    0.176563    0.126564    21.00000   -1.50000
AFIX  65
C16   1    1.023153    0.357587    0.102837    21.00000    0.08694    0.16633 =
         0.12489    0.04785   -0.00625    0.01119
AFIX  43
H16   2    1.071029    0.329237    0.117916    21.00000   -1.20000
AFIX   0
PART    3
C1S   1    0.751816    0.412753    0.377856    31.00000   10.40000
AFIX  43
H1S   2    0.751429    0.459190    0.347881    31.00000   -1.20000
AFIX   0
N1S   3    0.826222    0.332776    0.400476    31.00000    0.22416
C2S   1    0.863420    0.397523    0.451729    31.00000    0.52011
AFIX  33
H2S1  2    0.868188    0.375444    0.500818    31.00000   -1.50000
H2S2  2    0.918198    0.413126    0.434150    31.00000   -1.50000
H2S3  2    0.827332    0.444830    0.452541    31.00000   -1.50000
AFIX   0
O1S   6    0.687452    0.368623    0.431803    31.00000    0.36591
C3S   1    0.793465    0.289452    0.336177    31.00000    0.49211
AFIX  33
H3S1  2    0.777133    0.234875    0.350273    31.00000   -1.50000
H3S2  2    0.745394    0.318302    0.317116    31.00000   -1.50000
H3S3  2    0.836259    0.286598    0.298724    31.00000   -1.50000
AFIX   0
HKLF    4




REM  exp_453_aoife in Pbca
REM wR2 = 0.3257, GooF = S = 1.205, Restrained GooF = 1.406 for all data
REM R1 = 0.0968 for 2794 Fo > 4sig(Fo) and 0.1257 for all 3879 data
REM 232 parameters refined using 19 restraints

END

WGHT      0.2000      0.0000

REM Highest difference peak  0.932,  deepest hole -1.143,  1-sigma level  0.142
Q1    1   0.8620  0.3406  0.3217  11.00000  0.05    0.72
Q2    1   0.9034  0.3994  0.3853  11.00000  0.05    0.72
Q3    1   0.8721  0.2533  0.4358  11.00000  0.05    0.70
Q4    1   0.8264  0.3311  0.4723  11.00000  0.05    0.66
Q5    1   0.6805  0.5729  0.2115  11.00000  0.05    0.65
Q6    1   0.9024  0.4055  0.3135  11.00000  0.05    0.62
Q7    1   0.9325  0.4382  0.4568  11.00000  0.05    0.62
Q8    1   0.8809  0.3642  0.3672  11.00000  0.05    0.61
Q9    1   0.7948  0.3220  0.3994  11.00000  0.05    0.56
Q10   1   0.7192  0.4981  0.1838  11.00000  0.05    0.49
Q11   1   0.4872  0.0816  0.1416  11.00000  0.05    0.47
Q12   1   0.6487  0.4439  0.2470  11.00000  0.05    0.46
Q13   1   0.6649  0.4349 -0.0413  11.00000  0.05    0.45
Q14   1   0.9429  0.5782  0.0272  11.00000  0.05    0.43
Q15   1   0.6082  0.3167  0.2669  11.00000  0.05    0.40
Q16   1   0.7280  0.3233  0.3965  11.00000  0.05    0.40
Q17   1   0.6062  0.1708  0.0368  11.00000  0.05    0.39
Q18   1   0.7449  0.3760  0.4852  11.00000  0.05    0.38
Q19   1   0.5925  0.5092  0.2617  11.00000  0.05    0.36
Q20   1   0.9969  0.5384  0.0743  11.00000  0.05    0.34
;
_shelx_res_checksum              84933
_shelx_hkl_file
;
   0   0  -1 109.228 31.2946  21
   0   0  -2 12254.9 370.716  21
   0   0   2 12252.8 365.493  21
   0   0   3-0.87584 60.6569  21
   0   0  -3 134.626 61.3495  21
   0   0  -4 999999. 4752.37  21
   0   0   4 978214. 4642.37  21
   0   0  -5 23.2808 37.6541   5
   0   0  -5 34.8975 57.0092  21
   0   0  -6 269.005 107.760  21
   0   0  -6 223.397 53.2318   5
   0   0  -7 133.004 67.9425   5
   0   0  -8 1034.84 128.907   5
   0   0  -9 108.981 58.2756   5
   0   0 -10 72384.7 1202.67   5
   0   0 -11-285.388 95.5326   5
   0   0 -12 137.806 58.2543   5
   0   0 -13-200.427 104.624   5
   0   0 -14 22894.2 850.853   5
   0   0 -15 102.854 112.262   7
   0   0 -16 100.790 122.567  12
   0   0 -17 67.1296 131.039  12
   0   0 -18 795.303 227.925  12
   0   0 -19-213.294 140.533  12
   0   0 -20 940.745 200.817  12
   0   0 -21 111.805 88.9955  12
   0  -1   0 91.2310 23.5752   4
   0   1   0 37.5623 25.2622  21
   0   1   0 13.6826 16.8861   4
   0  -1  -1 30.5335 37.2933  21
   0   1  -2 56.7214 32.7780  21
   0  -1  -2-19.4396 49.9080  21
   0   1  -3 177.403 55.0233  21
   0   1   3 233.741 82.5428  21
   0  -1  -3 233.229 87.3850  21
   0   1  -4 42.8343 44.2707  21
   0   1   4 128.203 82.8944  21
   0  -1  -4 88.0455 73.8657  21
   0   1   5-51.8707 86.3862  21
   0   1  -5 74.0705 74.4965  21
   0  -1  -5 67.0268 36.0659   5
   0   1  -5 229.543 63.9948   5
   0  -1  -5 38.7566 93.9943  21
   0  -1  -6 73.9858 44.0479   5
   0   1  -6 76.1296 55.2986  21
   0  -1  -7-50.3012 53.2047   5
   0   1  -7-12.0258 71.1932   5
   0  -1  -8 104.704 63.5540   5
   0   1  -8 176.427 80.6790   5
   0   1  -9 31.6484 59.1313   5
   0  -1  -9-32.1117 67.2805   5
   0  -1 -10 67.0039 57.7860   5
   0   1 -10 157.691 82.3969   5
   0   1 -11 140.005 82.5396   5
   0  -1 -11 4.19137 53.7858   5
   0  -1 -12-200.570 100.951   5
   0   1 -12-38.4028 75.7549   5
   0   1 -13-151.222 92.1251   5
   0   1 -14-15.8261 82.1145   5
   0  -1 -15 17.5520 108.551   7
   0   1 -15-40.3484 119.975   7
   0  -1 -16 78.7753 97.2882  12
   0   1 -16-251.120 132.377  12
   0  -1 -17 91.4151 129.849  12
   0   1 -17-91.1244 146.321  12
   0   1 -18 47.5993 130.969  12
   0  -1 -18 51.6706 109.701  12
   0   1 -19-45.4584 96.7775  12
   0  -1 -19-291.076 141.518  12
   0   1 -20-73.7681 75.7506  12
   0  -1 -20 228.187 115.041  12
   0  -1 -21 206.543 95.9259  12
   0   1 -21 180.751 100.722  12
   0  -2   0 411122. 1791.88   4
   0   2   0 392672. 1990.43  21
   0   2   1 11385.0 411.573  21
   0  -2  -1 12015.4 432.096  21
   0   2   1 11894.2 348.074   4
   0  -2  -2 13716.8 534.016  21
   0   2  -3 559100. 2242.05  21
   0  -2  -3 564894. 3868.17  21
   0   2  -4 216953. 1736.45  21
   0  -2  -4 221864. 2701.31  21
   0  -2  -5 33092.5 1154.14  21
   0  -2  -5 30708.3 512.729   5
   0   2  -5 31908.4 781.728  21
   0  -2  -5 31727.4 542.536   3
   0   2   5 31134.6 1075.49  21
   0  -2  -6 7258.31 276.607   5
   0   2  -6 6785.84 269.658   5
   0   2  -7 395987. 2315.41   5
   0  -2  -7 398588. 2238.43   5
   0   2  -8 2490.37 193.024   5
   0  -2  -8 2739.78 200.395   5
   0  -2  -9 348.429 86.2169   5
   0   2  -9 512.531 108.663   5
   0  -2 -10 31144.6 786.537   5
   0   2 -10 31183.5 799.041   5
   0   2 -11 725.099 138.718   5
   0   2 -12 51.6061 72.0158   5
   0   2 -13 2662.21 278.737   5
   0   2 -14 1940.00 242.904   5
   0   2 -15 12578.5 756.819   7
   0   2 -15 12464.9 743.820  16
   0  -2 -15 13051.7 774.799   7
   0   2 -15 12786.3 757.172  12
   0   2 -16 58.3245 94.9643  12
   0   2 -17 10435.8 692.247  12
   0  -2 -17 11958.7 740.494  12
   0   2 -18 167.198 135.714  12
   0  -2 -18 130.390 109.733  12
   0  -2 -19 1604.37 256.076  12
   0   2 -19 1782.13 272.876  12
   0  -2 -20-55.7795 94.6018  12
   0   2 -20-71.8953 72.0943  12
   0   3   0-13.0681 43.4700  21
   0  -3   0 15.6607 31.8064   4
   0  -3  -1 88.4409 53.4020   4
   0   3   1 53.6912 42.8320   4
   0   3  -1 92.0903 45.3371  21
   0   3   1 93.7722 66.6676  21
   0  -3  -2 67.0219 67.0810  21
   0   3   2 89.3099 66.2747   4
   0   3   2 77.5824 61.6327  21
   0   3   3 144.068 80.3983   4
   0  -3  -3 63.5828 78.8726  21
   0   3   4 116.145 68.7653  21
   0   3  -4 61.4664 33.0973  21
   0  -3  -4 143.030 97.2065  21
   0  -3  -4 39.2541 46.5256   3
   0  -3  -5 33.6062 41.9816   3
   0   3  -5-120.301 68.3827   5
   0  -3  -6 103.869 53.3603   3
   0   3  -6 110.390 56.3622   5
   0   3  -7 180.465 70.0512   5
   0   3  -8-42.9134 59.4878   5
   0   3  -9-164.011 117.270   5
   0   3 -10 169.420 75.9788   5
   0   3 -11 451.064 148.048   5
   0   3 -12-21.6376 62.1664   5
   0   3 -13 297.877 122.459   5
   0   3 -14 34.4595 67.9648   5
   0   3 -15 246.831 148.325  16
   0  -3 -15 42.2255 113.218   7
   0   3 -15 59.7946 99.0814  12
   0   3 -16-167.787 108.740  12
   0   3 -16-32.6789 101.359  16
   0  -3 -17-76.2107 121.477  12
   0   3 -17 0.29596 105.881  16
   0   3 -17-117.094 137.615  12
   0   3 -18-16.4955 92.2499  16
   0   3 -18-25.8747 92.0449  12
   0  -3 -18-44.4686 113.003  12
   0   3 -19-54.7686 105.671  12
   0  -3 -19-20.2329 81.6525  12
   0   3 -20-43.6737 78.6032  12
   0  -3 -20 62.7747 93.7286  12
   0   4   0 484063. 3146.04  21
   0  -4   0 489695. 2711.51   4
   0   4   1 8511.00 464.199  21
   0  -4  -1 7889.34 363.797   4
   0  -4   1 8428.89 374.604   4
   0   4   1 8574.63 382.106   4
   0   4  -1 8361.07 359.555  21
   0   4  -2 114301. 1156.82  21
   0   4   2 110432. 1834.64  21
   0   4   2 115386. 1530.77   4
   0   4   3 89859.7 1547.60   4
   0  -4  -3 88669.3 1885.08  21
   0   4   3 83797.1 1772.74  21
   0  -4  -3 83104.3 864.253   3
   0  -4  -4 55427.2 785.508   3
   0   4   4 59753.0 1408.60   4
   0  -4  -5 77.6012 50.6896   3
   0  -4  -6 29321.1 646.355   3
   0   4  -6 15169.5 453.886   5
   0   4  -7 169641. 1493.90   5
   0   4  -8 7869.04 355.959   5
   0   4  -9 104.347 76.7994   5
   0   4 -10 112237. 1569.54   5
   0   4 -11 4318.91 322.123   5
   0   4 -12 14566.8 617.411   5
   0   4 -13 525.497 132.669   5
   0   4 -14 36032.6 1220.46  12
   0   4 -14 36847.1 1280.71  16
   0   4 -15 3836.60 408.735  12
   0   4 -15 4120.35 452.011  16
   0  -4 -16-175.808 147.679  12
   0   4 -16-158.475 137.109  12
   0   4 -16 46.9630 113.987  16
   0   4 -17 706.696 180.339  16
   0   4 -17 711.770 185.636  12
   0  -4 -17 849.740 193.593  12
   0   4 -18 654.981 175.721  12
   0  -4 -18 586.855 178.796  12
   0   4 -18 449.473 166.006  16
   0   4 -19 462.916 143.692  16
   0  -4 -19 584.687 159.138  12
   0   4 -19 662.770 170.142  12
   0  -4 -20 12.6683 79.3734  12
   0   5   0 43.0631 39.0370   1
   0   5   0 16.7569 49.0306  21
   0  -5   0 55.9981 51.3760   4
   0   5  -1-36.3786 51.4659   1
   0   5  -1 67.1476 59.0393  21
   0  -5   1 14.5130 41.3588   4
   0   5   1 20.5389 39.6180   1
   0  -5  -1-22.2396 44.9801   4
   0   5   1 86.2699 63.4073  21
   0   5   2 66.9049 93.1572  21
   0  -5  -2 65.4200 45.8774   3
   0   5   2 62.3780 65.6563   4
   0   5  -2 57.2264 50.5663   1
   0   5   3 133.647 82.8233   4
   0  -5  -3 164.228 65.5260   3
   0   5   4-14.7316 56.9214   4
   0  -5  -4 40.9466 57.5591   3
   0  -5  -5-57.3825 65.8468   3
   0  -5  -6 91.9512 71.0363   3
   0  -5  -7 54.4043 55.0207   3
   0   5  -7 478.397 131.348   5
   0   5  -8 355.524 131.055   5
   0   5  -9 326.030 119.977   5
   0   5 -10 109.530 84.6002   5
   0   5 -11-478.431 170.985   5
   0   5 -12 179.377 103.639   5
   0   5 -13 112.871 97.6073   5
   0   5 -14 76.1958 136.941  16
   0   5 -15-8.89056 84.1586  12
   0   5 -15 57.8311 119.856  16
   0   5 -16-87.6664 126.454  16
   0   5 -16-100.088 117.805  12
   0   5 -17 31.7734 91.7316  12
   0   5 -17 104.708 109.017  16
   0   5 -18 305.894 142.615  12
   0   5 -18-165.965 111.713  16
   0   5 -19 4.04653 96.9074  16
   0   5 -19 340.474 118.173  12
   0   5 -20 164.054 95.4455  16
   0   6   0 460576. 2350.94   1
   0   6  -1 145.909 58.9512   1
   0   6   1 223.404 63.7176   1
   0  -6  -1 106.873 50.9366   3
   0   6   1-14.6760 60.5306  21
   0   6  -2 423.680 80.6381   1
   0   6   2 432.246 82.6577   1
   0  -6  -2 613.635 90.8515   3
   0  -6  -3 3452.52 213.040   3
   0  -6  -4 45153.4 824.273   3
   0  -6  -5 11046.8 435.747   3
   0  -6  -6 9266.94 414.708   3
   0  -6  -7 57849.0 1050.13   3
   0   6  -7 36969.0 817.514   5
   0   6  -8 6991.76 365.150   5
   0   6  -9 19036.1 616.646   5
   0   6 -10 57688.7 1158.59   5
   0   6 -11 2773.24 261.830   5
   0   6 -12 5658.68 406.539   5
   0   6 -13 4727.52 376.325   5
   0   6 -13 5715.24 512.167  16
   0   6 -14 33133.2 1246.44  16
   0   6 -15 694.017 212.289  16
   0   6 -16 164.938 132.628  16
   0   6 -17 1569.72 274.954  16
   0   6 -18-171.422 144.162  16
   0   6 -19 425.976 127.878  16
   0   7   0 55.1949 45.5320   1
   0   7  -1 114.419 62.4561   1
   0   7   1 99.2307 50.0354   1
   0  -7  -1 158.767 61.3973   3
   0  -7  -2 15.7376 42.5467   3
   0   7   2-36.5227 60.7261   1
   0   7  -2-16.8913 45.6074   1
   0   7   3 65.6940 54.2891   1
   0  -7  -3-8.17284 53.0590   3
   0  -7  -4-9.14755 69.4969   3
   0  -7  -5 35.1610 54.8853   3
   0  -7  -6-21.0802 68.0235   3
   0   7  -7 4614.91 385.130   5
   0   7  -8 3191.34 277.911   5
   0   7  -9 1513.70 232.392   5
   0   7 -10 607.619 192.943   5
   0   7 -11 71.1163 80.3126   5
   0   7 -12 226.366 77.6644   5
   0   7 -13-94.8553 159.519  16
   0   7 -14 77.6261 130.669  16
   0   7 -15 216.127 138.613  16
   0   7 -16-140.571 158.248  16
   0   7 -17-96.2027 114.039  16
   0   7 -18 173.709 132.691  16
   0   7 -19-140.521 104.556  16
   0   8   0 6787.51 345.802   1
   0   8   1 8144.69 379.697   1
   0   8  -1 7943.03 374.391   1
   0   8   2 18962.6 584.187   1
   0   8  -2 18901.1 584.645   1
   0  -8  -2 19004.6 551.784   3
   0   8   3 96805.7 1343.40   1
   0  -8  -3 98425.3 1323.39   3
   0   8   4 29173.8 764.690   1
   0  -8  -4 29904.4 773.751   3
   0  -8  -5 20324.1 662.461   3
   0  -8  -6 160.672 100.293   3
   0   8  -7 42586.7 956.837   5
   0   8  -8 17302.4 589.803   5
   0   8  -9 3505.01 317.152   5
   0   8 -10 1204.74 219.174   5
   0   8 -11 428.992 137.465   5
   0   8 -12 359.554 154.725  16
   0   8 -13 750.554 217.996  16
   0   8 -14 2678.62 358.870   8
   0   8 -14 2016.71 321.069  16
   0   8 -15 5730.25 519.259   8
   0   8 -15 5485.32 515.006  16
   0   8 -16 902.124 214.263   8
   0   8 -16 974.432 229.119  16
   0   8 -17 4743.36 446.789  16
   0   8 -18 402.546 135.924  16
   0   8 -19 51.3562 60.6895  13
   0   8 -19 320.249 114.640  16
   0   9   0 99.2786 80.6886   1
   0   9  -1 1.10213 59.7010   1
   0   9   1 45.4103 50.6885   1
   0   9  -2 4.28637 53.5030   1
   0   9   2-126.141 89.1314   1
   0   9   3 102.978 54.6451   1
   0  -9  -3-23.3651 63.3084   3
   0   9   4 39.8495 51.9815   1
   0  -9  -4 60.2034 52.8821   3
   0  -9  -5 29.0709 58.9601   3
   0   9   5 10.6485 56.7875   1
   0   9   6-138.562 83.9014   1
   0   9  -7 10746.0 591.051   5
   0   9  -8 6771.90 410.537   5
   0   9  -9 4152.06 343.666   5
   0   9 -10 1679.16 262.039   5
   0   9 -11 41.8773 97.1522  16
   0   9 -12-93.6455 167.098   8
   0   9 -12 62.4477 111.486  16
   0   9 -13 262.555 137.629   8
   0   9 -13-101.640 142.969  16
   0   9 -14-123.024 122.265  16
   0   9 -14-56.5142 137.745   8
   0   9 -15-14.2803 107.243  16
   0   9 -15 169.282 120.294   8
   0   9 -16 74.0383 110.345  16
   0   9 -16 90.4169 99.6916   8
   0   9 -17-81.0995 129.352  16
   0   9 -18-57.3158 70.4582  13
   0   9 -18 141.625 89.7944  16
   0  10   0 268104. 2533.35   1
   0  10  -1 31581.2 874.075   1
   0  10   1 31970.2 875.667   1
   0  10  -2 250.565 82.7837   1
   0  10   2 255.649 91.0114   1
   0  10   3 2356.54 241.881   1
   0 -10  -4 36745.0 937.375   3
   0  10   4 37640.9 991.552   1
   0  10   5 1406.06 199.408   1
   0  10   6 871.120 167.121   1
   0  10   7 14647.5 673.895   1
   0  10   8 3728.42 354.943   1
   0  10   9 6043.97 472.103   1
   0  10 -10 8349.44 641.806   8
   0  10 -10 7384.04 568.267  16
   0  10 -11 597.634 192.444   8
   0  10 -11 373.420 173.088  16
   0  10 -12 2444.35 365.137   8
   0  10 -12 1963.16 302.608  16
   0  10 -13 149.540 113.399  16
   0  10 -13 147.477 165.877   8
   0  10 -14 4174.54 451.763  16
   0  10 -14 4874.05 498.478   8
   0  10 -15 837.228 217.117  16
   0  10 -15 801.576 210.563   8
   0  10 -16 102.031 100.342   8
   0  10 -16-23.5088 82.2561  16
   0  10 -17-67.3587 104.793   8
   0  10 -17 194.579 125.557  16
   0  11   0 58.2613 63.2804   1
   0  11   1 69.7177 70.9723   1
   0  11  -1-69.4579 71.6940   1
   0  11   2-126.320 80.3996   1
   0  11   3 69.6755 81.7747   1
   0  11   4 78.6509 72.9315   1
   0  11   5-21.8391 73.3860   1
   0  11   6-61.4881 65.0549   1
   0  11   7-28.1179 61.3503   1
   0  11   8 86.4101 75.2341   1
   0  11  -8-50.2145 130.063   8
   0  11  -9 398.526 202.821   8
   0  11 -10-109.366 140.543   8
   0  11 -11 104.676 126.802   8
   0  11 -12 204.384 156.430   8
   0  11 -12-133.044 158.075  16
   0  11 -13 58.7970 133.640   8
   0  11 -13-13.5345 119.007  16
   0  11 -14-68.2052 115.719   8
   0  11 -14-54.0365 99.4319  16
   0  11 -15-87.4343 91.9074  16
   0  11 -15-118.279 110.770   8
   0  11 -16-161.708 109.451   8
   0  11 -16 31.8988 92.7008  16
   0  11 -17 78.3479 72.7707  16
   0  12   0 32353.9 1011.49   1
   0  12   1 1745.77 242.147   1
   0  12   2 8674.32 525.923   1
   0  12   3 13533.9 661.256   1
   0  12   4 8302.60 528.340   1
   0  12   5 30.1052 66.1139   1
   0  12   6 7033.45 500.546   1
   0  12  -6 7975.32 615.791   8
   0  12  -7 22959.1 1059.79   8
   0  12  -8 4624.78 503.502   8
   0  12  -9 771.799 222.776   8
   0  12 -10 945.540 226.464   8
   0  12 -11 82.4693 157.809   8
   0  12 -12 298.445 149.824   8
   0  12 -13 165.564 153.063   8
   0  12 -14 427.694 146.116   8
   0  12 -14 544.655 162.532  16
   0  12 -15 1274.14 216.782   8
   0  12 -15 1091.57 197.111  16
   0  12 -16 541.260 139.809   8
   0  12 -16 420.305 126.661  16
   0 -13   0-69.5841 117.124  19
   0 -13   0 20.1040 74.8320  20
   0  13   0 80.3766 81.6105   1
   0 -13  -1 33.4238 94.8925  20
   0 -13   1 235.561 135.271  20
   0  13   1 137.635 86.5700   1
   0 -13  -1 26.2737 73.8019  19
   0  13   2-51.7395 69.9540   1
   0 -13  -2-94.9807 130.226  19
   0 -13   2 43.0095 96.3080  20
   0 -13  -2-44.5820 99.8905  20
   0 -13  -3-4.40349 111.885  19
   0 -13  -3-113.524 108.566  20
   0 -13   3-133.880 150.194  20
   0  13   3-72.7164 77.9072   1
   0  13  -4-201.467 149.992   8
   0 -13  -4-29.7649 122.073  19
   0 -13   4-110.481 144.706  20
   0 -13  -5-21.1950 85.6282  19
   0  13  -5 67.1139 104.292   8
   0  13  -6-88.8156 127.863   8
   0 -13  -6 71.3783 103.310  19
   0  13  -7-84.4100 149.772   8
   0  13  -8-26.4978 130.449   8
   0  13  -9-84.5813 119.815   8
   0  13 -10-180.268 122.997   8
   0  13 -11 174.966 159.750   8
   0  13 -12-98.1158 114.045   8
   0  13 -13 213.357 141.636   8
   0  13 -14 101.589 98.7889   8
   0  13 -15-18.9106 68.1492   8
   0 -14   0 1851.68 306.699  20
   0 -14   0 1237.36 245.867  19
   0 -14  -1 856.421 233.266  20
   0 -14   1 693.453 202.763  20
   0 -14   1 584.602 174.489  19
   0 -14  -1 453.361 183.776  19
   0 -14   2 1651.36 282.310  19
   0 -14  -2 1796.01 292.489  20
   0 -14   2 1469.56 272.432  20
   0 -14  -2 1814.99 294.064  19
   0 -14  -3 2188.65 330.439  20
   0 -14  -3 2294.25 334.878  19
   0 -14   3 2314.27 344.802  20
   0 -14   3 2022.62 301.727  19
   0 -14  -4 1626.71 290.759  19
   0 -14   4 1531.72 289.383  20
   0 -14   5 1190.85 254.075  20
   0  14  -5 1329.04 248.784   8
   0 -14  -5 1216.01 240.376  19
   0 -14   6 1879.05 316.224  20
   0  14  -6 2395.97 351.247   8
   0 -14  -6 2266.65 328.988  19
   0 -14   7 8014.38 603.319  20
   0  14  -7 9699.77 695.602   8
   0 -14   8 213.108 154.970  20
   0  14  -8 14.0406 125.403   8
   0 -14   9 188.441 136.743  20
   0  14  -9 32.7602 119.221   8
   0  14 -10 3277.12 397.228   8
   0  14 -11 421.154 157.598   8
   0  14 -12 508.725 167.286   8
   0  14 -13 52.7311 80.2098   8
   0  14 -14 473.758 136.574   8
   0 -15   0 47.8006 109.344  19
   0 -15   0 18.5592 113.548  20
   0 -15  -1 143.469 152.840  19
   0 -15   1-35.2026 126.317  20
   0 -15   1-19.9520 102.134  19
   0 -15  -1 36.9761 111.703  20
   0 -15  -2-109.337 97.9376  20
   0 -15   2 14.5149 109.045  20
   0 -15  -2-59.5337 127.024  19
   0 -15   2 178.847 128.206  19
   0 -15   3-138.830 148.841  20
   0 -15   3-226.773 148.372  19
   0 -15  -3 102.842 102.256  19
   0 -15  -4-150.425 149.227  19
   0 -15   4 14.1591 98.1543  19
   0 -15   4-60.5981 133.372  20
   0 -15  -5 168.188 140.618  19
   0 -15   5 139.570 109.737  20
   0 -15   5 36.6000 106.202  19
   0 -15   6 49.4929 101.031  20
   0  15  -6-42.1227 103.010   8
   0 -15   6-122.938 99.7070  19
   0 -15  -6 53.5290 100.261  19
   0 -15   7-37.4725 124.906  20
   0  15  -7-117.297 128.552   8
   0  15  -8 136.044 142.781   8
   0 -15   8 6.53325 90.6910  20
   0  15  -9-35.6105 102.837   8
   0 -15   9 8.35841 107.262  20
   0  15 -10-31.4598 105.750   8
   0  15 -10-97.7880 126.313   9
   0  15 -11-14.0446 85.6264   8
   0  15 -11 108.398 109.043   9
   0  15 -12 94.0473 86.1747   8
   0  15 -12-53.6573 99.2093   9
   0 -16   0 1543.63 289.327  19
   0 -16   0 1428.41 270.714  20
   0 -16  -1 71.1804 144.859  19
   0 -16   1-42.8142 116.680  19
   0 -16  -1 149.127 132.931  20
   0 -16   1 7.59694 127.649  20
   0 -16  -2 70.6501 132.217  19
   0 -16   2-205.141 156.443  20
   0 -16   2 73.1344 113.215  19
   0 -16  -3 336.036 152.340  19
   0 -16   3 204.820 116.472  19
   0 -16   3 72.2718 123.129  20
   0 -16  -4 266.825 127.260  19
   0 -16   4 156.196 89.9256  19
   0 -16   4 50.2655 116.407  20
   0 -16  -5 323.922 145.342  19
   0 -16   5 84.5264 105.756  20
   0 -16   5 174.300 99.5356  19
   0 -16  -6 130.661 131.462  19
   0  16  -6 28.1823 112.254   8
   0 -16   6 103.126 112.136  19
   0 -16   6-16.5683 91.7523  20
   0  16  -7 105.488 96.5334   8
   0 -16   7-42.2865 97.9655  20
   0 -16   8 1257.93 223.458  20
   0  16  -8 1175.86 217.988   8
   0  16  -9 2252.18 294.526   8
   0 -16   9 1825.50 253.904  20
   0  16 -10 262.776 130.008   8
   0  16 -11 8.17306 71.3686   8
   0 -17   0-88.1772 103.030  19
   0 -17   1 108.834 124.665  19
   0 -17   1 70.5358 93.0606  20
   0 -17  -1-13.0673 116.537  19
   0 -17  -2 87.3453 110.294  19
   0 -17   2-84.2066 133.704  20
   0 -17   2 130.874 123.597  19
   0 -17   3 27.8373 98.9052  20
   0 -17   3-83.3229 115.179  19
   0 -17  -3-21.2945 92.8117  19
   0 -17   4 12.9866 108.749  20
   0 -17  -4 60.5522 115.024  19
   0 -17   4-34.0550 92.7546  19
   0 -17   5 33.7523 107.724  20
   0 -17  -5 32.5652 123.296  19
   0 -17   5-54.8068 105.608  19
   0 -17   6 121.766 105.559  19
   0 -17   6-190.672 119.086  20
   0 -17   7-99.0527 90.2596  20
   0 -17   8-183.585 83.3381  20
   0  17  -8-19.0671 84.4274   8
   0 -18   0-73.9916 98.4332  19
   0 -18  -1-54.8401 88.5503  19
   0 -18   1 167.415 117.814  19
   0 -18   2 346.817 127.466  19
   0 -18  -2 352.641 151.638  19
   0 -18   3 634.430 171.022  19
   0 -18  -3 567.814 158.949  19
   0 -18  -4 183.512 119.567  19
   0 -18   4 142.786 88.4277  19
   0 -18   4-25.8546 100.587  20
   0 -18   5 227.101 108.230  19
   0 -18   5 91.3082 92.5781  20
   0 -18   6 635.389 160.974  20
   0 -19   0 34.5661 88.4836  19
   1   0   0-11.5107 22.5843   4
  -1   0   1 37.0896 35.6022   4
  -1   0   2 278728. 1804.33  21
  -1   0  -3-112.663 86.2483  21
  -1   0   3-5.44794 40.9733  21
  -1   0   4 101310. 1465.62  21
  -1   0  -4 104761. 1659.68  21
   1   0  -5 87.2911 46.4212   5
  -1   0  -5 11.8344 67.8479  21
  -1   0   6 122017. 2015.49  21
  -1   0  -6 126928. 2254.62  21
  -1   0  -6 125634. 1151.78   5
   1   0  -7 2.43457 45.1655   5
  -1   0  -7 22.6807 46.2434   5
   1   0  -8 58996.3 949.084   5
  -1   0  -8 59205.7 938.654   5
   1   0  -9 27.0552 52.6924   5
  -1   0  -9 55.6725 59.3729   5
  -1   0 -10 101.593 48.9457   5
   1   0 -10 84.8243 61.2612   5
   1   0 -11-66.3844 75.0552   5
  -1   0 -11-17.5295 63.6124   5
   1   0 -12 7663.95 436.261   5
  -1   0 -12 7252.92 430.392   5
  -1   0 -13-26.1933 81.7115   5
   1   0 -13-38.6106 73.5817   5
  -1   0 -14 6606.86 456.891   5
  -1   0 -15 200.677 141.723   7
   1   0 -15-37.8133 123.570  12
  -1   0 -16-81.4929 102.636   7
   1   0 -16-92.1945 119.604  12
  -1   0 -17-168.479 158.759  12
   1   0 -17-196.087 150.216  12
   1   0 -18 3222.58 404.055  12
  -1   0 -18 3458.79 408.123  12
   1   0 -19-64.1031 109.773  12
  -1   0 -19-145.135 139.914  12
   1   0 -20 592.259 170.262  12
  -1   0 -20 423.436 128.142  12
  -1   0 -21 45.9274 64.9946  12
   1  -1   0-26.4034 40.8090   4
   1  -1  -1 74600.1 917.520   4
  -1  -1  -1 75633.8 989.411  21
  -1  -1   2 46621.4 539.404  21
  -1  -1  -2 48874.4 957.784  21
  -1   1   2 45868.0 880.631  21
  -1  -1  -3 152029. 1934.85  21
  -1  -1   3 149231. 1267.38  21
  -1  -1   4 44602.9 847.733  21
  -1  -1  -4 45973.0 1170.73  21
  -1   1   4 42904.7 1055.32  21
  -1   1  -4 45377.8 1023.16  21
  -1   1  -5 30902.9 507.680   5
  -1   1  -5 34252.0 991.807  21
   1   1  -5 32806.5 541.309   5
  -1  -1   5 32857.8 837.833  21
   1  -1  -5 32454.4 533.849   5
  -1  -1  -5 35256.5 1153.80  21
  -1   1   5 33351.2 1039.10  21
  -1   1  -6 6654.54 484.574  21
  -1   1   6 6609.32 506.939  21
  -1  -1   6 6540.92 423.728  21
   1   1  -6 6897.82 272.162   5
  -1   1  -6 6819.68 270.532   5
  -1  -1  -6 7108.84 269.678   5
  -1  -1  -6 7091.44 259.855   3
  -1   1  -7 631.398 95.6265   5
   1  -1  -7 680.762 100.817   5
   1   1  -7 701.486 104.749   5
  -1  -1  -7 569.527 84.1986   5
   1   1  -8 42689.9 807.951   5
  -1   1  -8 41736.8 805.127   5
   1  -1  -8 42195.3 802.809   5
  -1  -1  -8 42376.0 786.494   5
  -1  -1  -9 14.3414 45.1764   5
   1   1  -9-66.1105 69.4977   5
   1  -1  -9 29.7953 48.4209   5
   1  -1 -10 17664.7 596.716   5
  -1  -1 -10 18232.6 596.557   5
  -1   1 -10 17900.9 599.733   5
   1   1 -10 17938.8 596.906   5
  -1   1 -11 21616.1 698.394   5
   1   1 -11 21817.8 705.927   5
   1  -1 -11 21730.0 702.982   5
  -1  -1 -11 21564.1 691.301   5
  -1  -1 -12 14078.7 591.006   5
  -1   1 -12 14458.3 592.300   5
   1   1 -12 13992.7 591.777   5
  -1  -1 -13 5735.15 399.501   5
  -1   1 -13 5746.89 404.449   5
   1   1 -13 5844.31 399.657   5
  -1   1 -14 7743.08 488.148   5
   1   1 -14 7987.84 500.488   5
   1   1 -15 113.819 122.269  12
  -1  -1 -15-188.701 146.057   7
   1  -1 -15 64.2993 102.786  12
  -1   1 -15 68.2502 126.309   7
  -1  -1 -16 959.609 232.882   7
   1   1 -16 1041.39 224.373  12
  -1   1 -16 835.859 210.966   7
   1  -1 -16 1079.39 234.136  12
  -1   1 -17 103.740 124.143  12
   1  -1 -17 104.812 127.303  12
   1   1 -17-147.666 149.511  12
  -1  -1 -17 76.9442 136.041  12
   1  -1 -18 5771.46 512.167  12
  -1   1 -18 5645.27 504.223  12
   1   1 -18 5243.77 489.139  12
  -1  -1 -18 5545.86 500.976  12
  -1  -1 -19 620.110 170.166  12
  -1   1 -19 731.142 181.888  12
   1   1 -19 887.044 195.928  12
   1  -1 -19 967.639 215.350  12
   1   1 -20 812.284 187.639  12
   1  -1 -20 951.596 198.917  12
  -1  -1 -20 745.339 169.977  12
  -1   1 -20 957.674 188.090  12
  -1   1 -21 621.835 141.604  12
  -1  -1 -21 552.449 137.269  12
   1  -2   0 32.0895 47.5872   4
  -1  -2   0 38.3418 42.7973  21
  -1  -2  -1 156777. 1589.61  21
   1  -2  -1 151279. 1500.13   4
   1   2   1 152488. 1566.66  21
  -1   2   1 152891. 1499.94   4
  -1  -2   1 153227. 873.137  21
  -1   2   2 38852.7 855.879   4
  -1  -2  -2 38795.5 937.740  21
   1   2   2 37278.8 891.865  21
  -1  -2  -3 1379.88 205.048  21
  -1   2   3 557.698 121.733   4
  -1   2   4 12043.0 617.140  21
  -1  -2  -4 12859.2 678.111  21
  -1   2   5 182946. 2632.64  21
   1   2  -5 178931. 1285.14   5
  -1  -2  -5 180163. 1289.95   3
  -1  -2  -6 16976.0 442.908   3
   1   2  -6 16169.6 429.644   5
  -1  -2  -6 15965.9 404.366   5
   1   2  -7-38.4467 72.1897   5
  -1   2  -7 80.8171 55.4062   5
  -1  -2  -7 126.360 60.2372   3
  -1  -2  -7 122.627 51.5884   5
  -1  -2  -8 2584.68 194.462   5
  -1   2  -8 2555.66 207.326   5
   1   2  -8 2626.38 205.890   5
   1   2  -9 44470.7 897.484   5
  -1   2  -9 44518.3 900.766   5
  -1  -2  -9 45609.5 877.274   5
  -1   2 -10 868.175 155.382   5
  -1  -2 -10 673.106 113.660   5
   1   2 -10 797.737 137.749   5
  -1  -2 -11 11714.9 504.312   5
   1   2 -11 11119.2 509.531   5
  -1   2 -11 11812.4 519.532   5
   1   2 -12 95.9885 62.2956   5
  -1   2 -12 442.253 122.204   5
   1   2 -13-86.2421 78.4941   5
  -1   2 -13-7.17560 61.7535   5
   1   2 -14-138.095 88.7034   5
  -1   2 -14-35.6892 89.5724   5
  -1   2 -15 4261.55 443.016   7
   1   2 -15 4109.67 435.914  12
   1  -2 -15 4196.83 449.085  12
  -1   2 -15 4352.59 448.475  16
  -1  -2 -15 4490.23 460.876   7
  -1  -2 -16 39.6021 108.995   7
  -1   2 -16 27.7768 104.814  12
  -1   2 -16-47.5563 120.440  16
   1   2 -16-211.086 152.101  12
   1  -2 -16-11.7790 105.494  12
  -1   2 -16 100.543 124.768   7
   1  -2 -17 786.327 196.415  12
   1   2 -17 364.551 155.072  12
  -1   2 -17 518.880 169.995  12
  -1   2 -18 223.601 129.344  12
   1   2 -18 129.616 121.266  12
  -1  -2 -18-1.16652 132.098  12
   1  -2 -18 250.678 143.649  12
   1  -2 -19 392.888 152.503  12
   1   2 -19 459.037 151.268  12
  -1  -2 -19 560.066 169.072  12
  -1   2 -19 374.695 137.067  12
   1   2 -20 64.2283 89.6033  12
  -1  -2 -20-18.8721 71.4588  12
   1  -2 -20 63.4217 98.1337  12
  -1   2 -20 120.145 78.1651  12
   1   2 -20 5.94996 78.6695  13
  -1  -3   0 122.361 61.9806  21
   1  -3   0 41.4086 46.9758   4
   1   3   0 151.419 59.3329  21
  -1  -3   0 49.6060 23.1855   4
   1  -3  -1 93508.4 1329.90   4
   1   3   1 96162.6 905.331   4
   1   3   1 92412.8 1379.45  21
  -1   3   1 96410.9 1350.94   4
  -1  -3  -1 97133.4 1428.93  21
  -1   3   2 18994.4 726.646  21
  -1  -3  -2 20203.0 742.150  21
   1   3   2 19121.9 709.623  21
  -1   3   2 19734.2 658.180   4
  -1   3   3 2021.15 238.981   4
  -1  -3  -3 2071.03 271.085  21
   1   3   3 2155.34 264.697  21
   1   3   4 52.0333 45.9855  21
  -1  -3  -4 12.2897 44.0282   3
  -1  -3  -4 23.5212 91.5751  21
  -1   3   4 46.5395 46.8119  21
  -1   3   4-4.06295 63.3283   4
  -1  -3  -5 48728.1 721.343   3
   1   3  -5 43849.0 621.984   5
  -1  -3  -6 27828.5 601.891   3
   1   3  -6 24378.4 521.865   5
  -1  -3  -7 13466.0 448.031   3
   1   3  -7 12834.2 423.916   5
   1   3  -8 6964.56 338.618   5
  -1  -3  -8 6763.02 320.381   3
  -1   3  -8 6772.61 323.694   5
   1   3  -9 17965.4 576.532   5
  -1   3  -9 17304.2 574.115   5
   1   3 -10 310.772 105.510   5
  -1   3 -10-15.6482 81.4730   5
   1   3 -11 56297.3 1162.12   5
  -1   3 -11 57204.8 1156.46   5
   1   3 -12 1176.94 171.850   5
  -1   3 -12 1223.30 192.189   5
   1   3 -13 18037.6 728.191   5
  -1   3 -13 18638.9 739.482   5
  -1   3 -14 3196.76 311.902   5
   1   3 -14 2973.67 303.981   5
   1   3 -14 3857.63 403.897  12
  -1   3 -14 3608.82 400.417   7
  -1   3 -15 327.026 167.553   7
  -1  -3 -15 197.913 121.652   7
   1  -3 -15 489.726 174.541  12
  -1   3 -15 441.759 176.211  16
   1   3 -15 280.765 157.846  12
   1   3 -15 414.539 172.628  16
  -1   3 -15 165.639 126.351  12
   1   3 -16 233.706 127.539  12
   1  -3 -16-9.95154 91.0596  12
   1   3 -16 70.7879 98.8515  16
  -1   3 -16 42.2513 97.2103  12
  -1  -3 -16 60.9077 108.618   7
  -1   3 -16-1.22936 130.753  16
   1   3 -17 2432.58 333.748  16
   1   3 -17 2650.42 347.927  12
   1  -3 -17 2129.91 324.884  12
  -1   3 -17 2453.51 340.718  16
  -1   3 -17 2191.84 318.371  12
  -1   3 -18 415.559 144.557  12
   1   3 -18 366.677 169.068  12
  -1   3 -18 261.799 138.872  16
  -1  -3 -18 245.130 107.381  12
   1  -3 -18 349.707 170.113  12
  -1   3 -19 1600.42 260.070  12
  -1  -3 -19 1749.02 261.134  12
   1  -3 -19 1730.80 263.731  12
   1   3 -19 1659.29 261.154  12
  -1   3 -20 102.824 91.6683  12
   1  -3 -20 178.849 99.2934  12
   1   3 -20 41.9559 70.5096  13
  -1  -3 -20 79.3505 86.2987  12
  -1  -4   0 107.458 36.3628   4
   1   4   0 58.7569 46.8027  21
   1  -4   0 180.323 84.2641   4
  -1  -4   0 40.2455 38.4567  21
   1   4  -1 18808.8 500.140  21
  -1   4   1 18908.3 741.187  21
   1   4   1 18690.5 688.703  21
   1  -4  -1 18934.8 660.655   4
   1   4   1 19538.8 470.167   4
  -1  -4  -1 19487.2 720.362  21
  -1   4   1 19094.1 654.037   4
  -1  -4   1 19619.9 437.163   4
   1  -4   1 18869.7 670.815   4
   1  -4  -2 3418.11 294.865   4
  -1   4   2 4104.99 329.180   4
  -1   4   2 4022.30 364.716  21
   1   4   2 3967.15 259.213   4
   1   4   2 3664.55 339.196  21
  -1  -4  -2 4017.78 360.400  21
  -1   4   3 2807.69 324.353  21
  -1  -4  -3 3292.29 182.154   3
  -1   4   3 3496.58 328.264   4
   1   4   3 2991.28 339.328  21
   1   4   3 3325.60 279.497   4
   1  -4  -3 3300.29 177.392   3
  -1  -4  -3 2924.89 341.434  21
   1  -4  -4 32190.1 582.666   3
  -1  -4  -4 32311.6 599.534   3
  -1  -4  -5 29024.0 597.624   3
   1   4  -5 17324.1 421.430   5
   1   4  -6 3491.14 199.430   5
  -1  -4  -6 4274.49 258.052   3
   1   4  -7 2852.20 204.899   5
  -1   4  -7 2590.72 221.052   5
  -1  -4  -7 3339.80 241.204   3
   1   4  -8 48954.5 906.834   5
  -1  -4  -8 49667.6 940.260   3
   1   4  -9 10495.4 445.438   5
  -1   4  -9 11140.1 459.306   5
   1   4 -10 10954.2 485.649   5
  -1   4 -10 9939.78 464.449   5
  -1   4 -11 3081.76 269.186   5
   1   4 -11 3964.22 317.913   5
  -1   4 -12 19020.4 707.697   5
   1   4 -12 18185.2 699.908   5
  -1   4 -13 802.806 178.619   5
   1   4 -13 740.486 150.119   5
   1   4 -14 5109.20 462.729  12
   1   4 -14 5073.21 482.733  16
  -1   4 -14 4598.73 437.379  12
  -1   4 -14 4995.54 471.998   7
  -1   4 -14 5074.99 490.386  16
  -1   4 -15 599.441 191.729   7
   1  -4 -15 591.935 174.241  12
   1   4 -15 318.955 129.350  12
  -1   4 -15 471.458 176.448  16
   1   4 -15 508.062 177.527  16
  -1   4 -15 761.605 195.463  12
  -1   4 -16 3032.03 373.170  12
   1   4 -16 2802.80 363.083  12
  -1   4 -16 2952.59 370.828  16
   1  -4 -16 3132.76 381.639  12
   1   4 -16 3114.26 386.147  16
   1   4 -17 487.328 165.732  12
   1   4 -17 133.706 109.412  16
   1  -4 -17 333.477 143.120  12
  -1   4 -17 323.080 155.544  12
  -1  -4 -17 472.050 154.476  12
  -1   4 -17 334.307 121.276  16
  -1   4 -18 1375.06 251.061  16
  -1  -4 -18 873.391 198.306  12
   1  -4 -18 1362.96 251.445  12
   1   4 -18 1022.25 217.238  12
  -1   4 -18 954.077 206.613  12
   1   4 -18 1203.08 235.485  16
  -1  -4 -19-154.454 133.227  12
   1  -4 -19-23.8199 91.4428  12
   1   4 -19 146.007 111.621  12
  -1   4 -19 39.2747 79.6452  16
  -1   4 -19 17.2093 78.1159  12
   1   4 -19 131.114 100.966  16
  -1   4 -20 33.3550 66.0671  16
  -1  -4 -20 162.589 90.7446  12
  -1   4 -20 143.505 88.3160  12
   1   4 -20 5.65171 68.9525  13
  -1   5   0 62.9559 43.7291   1
   1   5   0 131.150 77.7330  21
   1  -5   0 19.4769 65.9978   4
   1   5   0 54.5836 49.6846   1
  -1   5   0 84.3845 69.7655  21
  -1   5   1 1732.36 251.382  21
   1   5  -1 2074.32 148.049   1
   1   5   1 1702.53 233.572  21
  -1  -5  -1 1705.56 238.863  21
  -1  -5  -1 2045.19 140.257   3
   1  -5  -1 1918.35 235.744   4
   1   5   1 2116.64 151.378   1
   1  -5   1 1830.30 229.243   4
  -1   5  -1 2020.02 145.088   1
  -1   5   1 2041.83 140.978   1
  -1  -5  -2 29315.6 551.661   3
   1   5  -2 29920.0 566.846   1
  -1   5  -2 29839.8 559.933   1
   1   5   2 29872.4 750.831   4
   1   5   2 27998.7 1009.79  21
  -1  -5  -2 30537.4 1097.59  21
   1  -5  -2 30336.0 543.083   3
  -1   5   2 29387.3 943.155   4
  -1  -5  -3 12115.3 375.530   3
   1  -5  -3 12420.6 373.181   3
   1   5   3 12430.1 558.529   4
  -1   5   3 12151.5 650.787   4
   1  -5  -4 88852.1 1053.40   3
  -1  -5  -4 89370.5 1080.64   3
  -1  -5  -5 8278.29 343.896   3
   1   5  -6 13390.9 399.476   5
  -1  -5  -6 19386.0 575.749   3
   1   5  -7 1324.76 152.084   5
  -1  -5  -7 1754.11 189.350   3
  -1  -5  -8 5915.93 349.188   3
   1   5  -8 5836.43 322.974   5
   1   5  -9 13354.9 520.669   5
  -1   5  -9 13912.1 526.877   5
  -1   5 -10 5844.73 386.071   5
   1   5 -10 4966.19 319.812   5
   1   5 -11 2965.37 275.878   5
  -1   5 -11 2281.84 239.534   5
  -1   5 -12 12794.5 589.367   5
   1   5 -12 12922.2 598.037   5
  -1   5 -13 571.769 151.852   5
   1   5 -13 180.509 88.4037   5
  -1   5 -14 5623.93 513.863  16
  -1   5 -14 5596.20 495.479   7
   1   5 -14 5967.45 506.268  12
   1   5 -14 6154.34 540.011  16
   1   5 -15 463.046 194.244  16
  -1   5 -15 362.061 152.039  16
   1   5 -15 365.995 158.036  12
   1   5 -16 443.672 173.197  12
  -1   5 -16 389.441 155.073  16
   1   5 -16 466.519 156.889  16
  -1   5 -17 65.5566 99.7645  16
   1   5 -17 31.4657 82.3797  12
  -1  -5 -17-115.176 112.571  12
   1   5 -17-117.827 126.489  16
  -1   5 -18 3926.13 410.824  16
   1   5 -18 3517.99 380.062  16
   1   5 -18 3575.85 369.751  12
  -1   5 -19 478.941 147.980  16
   1   5 -19 672.761 166.032  16
   1   5 -20 306.157 109.853  13
  -1   5 -20 298.907 103.091  16
  -1   6   0 98.4663 85.4894  21
  -1   6   0 109.785 51.6517   1
   1   6   0 52.2333 49.7075   1
  -1  -6   0 96.0067 48.1501   3
   1   6   1 51242.1 803.513   1
  -1   6  -1 50943.6 791.429   1
  -1  -6  -1 50797.7 752.572   3
  -1   6   1 51261.2 772.076   1
  -1  -6   1 50320.1 691.605   3
   1  -6  -1 50820.6 719.727   3
   1   6  -1 50604.5 800.051   1
   1  -6  -2 38135.3 668.347   3
  -1   6   2 34880.4 1091.23   4
  -1   6   2 38425.3 677.289   1
   1   6  -2 37763.9 709.682   1
  -1   6  -2 37010.9 692.204   1
  -1  -6  -2 36978.1 675.867   3
  -1  -6  -3 642.408 103.262   3
   1  -6  -3 703.756 107.284   3
   1   6  -3 669.595 108.096   1
  -1  -6  -4 25259.0 616.091   3
   1  -6  -4 24462.5 594.164   3
  -1  -6  -5 22928.7 621.729   3
  -1  -6  -6 7803.66 387.522   3
   1   6  -6 4748.58 284.726   5
   1   6  -7 4722.46 273.405   5
  -1  -6  -7 5617.36 351.060   3
   1   6  -8 31939.2 748.317   5
  -1   6  -8 28527.8 754.965   5
  -1   6  -9 13149.7 564.624   5
   1   6  -9 11541.4 489.342   5
   1   6 -10 764.336 105.143   5
  -1   6 -10 2777.57 296.516   5
  -1   6 -11 7852.86 447.266   5
   1   6 -11 8156.88 457.365   5
   1   6 -12 7779.02 466.539   5
  -1   6 -12 7073.30 431.817   5
   1   6 -13 397.980 161.401  16
  -1   6 -13 612.216 171.516   5
  -1   6 -13 462.712 169.770  16
   1   6 -13 216.854 102.179   5
  -1   6 -14 1785.77 295.707  16
   1   6 -14 1652.56 311.136  16
  -1   6 -15 1090.10 257.122  16
   1   6 -15 1113.06 260.210  16
   1   6 -16 1053.86 236.807  16
  -1   6 -16 765.363 221.724  16
  -1   6 -17 7.04678 94.2134  16
   1   6 -17 123.911 113.228  16
   1   6 -18 204.689 83.9004  16
  -1   6 -18 666.823 177.463  16
   1   6 -19 88.9524 99.6836  16
  -1   6 -19-44.1849 85.5309  16
   1   7   0 51.4566 44.4799   1
  -1  -7   0 1.18608 52.5377   3
  -1   7   0 12.9898 44.8233   1
   1   7   1 45326.6 829.119   1
  -1   7   1 44762.4 797.591   1
   1   7  -1 44686.2 817.168   1
  -1   7  -1 44685.3 813.665   1
  -1  -7  -1 44170.9 758.929   3
   1   7   2 14030.6 469.839   1
  -1   7  -2 13613.4 456.772   1
   1  -7  -2 14382.2 438.937   3
   1   7  -2 13693.9 463.642   1
  -1  -7  -2 13763.4 443.968   3
  -1   7   2 13986.9 453.146   1
   1  -7  -3 9858.46 383.632   3
  -1  -7  -3 10092.2 397.945   3
   1   7  -3 9980.67 405.537   1
  -1   7   3 10637.3 402.055   1
   1  -7  -4 21951.6 591.482   3
  -1  -7  -4 22366.7 622.796   3
  -1  -7  -5 340.723 95.8745   3
   1   7  -6 8867.89 417.979   5
  -1  -7  -6 25392.0 745.085   3
  -1  -7  -7 2070.33 226.126   3
   1   7  -7 2177.64 217.358   5
   1   7  -8 3060.29 265.450   5
  -1  -7  -8 3193.41 284.945   3
  -1   7  -9 4937.20 389.110   5
   1   7  -9 751.405 149.992   5
  -1   7 -10 11744.5 542.391   5
   1   7 -10 8738.51 450.062   5
   1   7 -11 9702.53 501.866   5
  -1   7 -11 10863.8 549.944   5
   1   7 -12 9732.64 531.822   5
  -1   7 -12 8187.00 493.541   5
   1   7 -13 2770.95 370.204  16
  -1   7 -13 3018.44 380.993  16
   1   7 -14 4772.35 487.390  16
  -1   7 -14 5235.38 507.406  16
  -1   7 -15 390.720 156.739  16
   1   7 -15 390.715 190.571  16
   1   7 -16 242.973 139.462  16
  -1   7 -16 471.985 176.076  16
  -1   7 -17 403.368 157.300  16
   1   7 -17 460.043 165.989  16
  -1   7 -18 758.793 177.684  16
   1   7 -18 1201.06 224.656  16
   1   7 -19 234.322 107.221  13
  -1   7 -19 228.743 118.674  16
   1   7 -19 171.619 95.8558  16
   1   8   0-25.2360 58.7388   1
  -1   8   0-87.7125 71.1735   1
  -1   8  -1 30241.5 722.119   1
  -1  -8  -1 29202.2 664.344   3
  -1   8   1 30435.3 718.994   1
   1   8  -1 29594.4 726.493   1
   1   8   1 29916.3 735.301   1
  -1   8   2 5665.22 311.900   1
   1   8  -2 5257.78 315.286   1
  -1   8  -2 5368.35 317.947   1
   1   8   2 5495.49 321.297   1
  -1  -8  -2 5749.89 307.335   3
   1  -8  -3 651.185 103.334   3
  -1  -8  -3 754.042 117.898   3
   1   8   3 794.937 131.863   1
  -1   8   3 929.352 134.012   1
  -1  -8  -4 436.880 100.809   3
  -1   8   4 453.781 97.2535   1
  -1  -8  -5 27021.5 773.199   3
  -1   8   5 27830.9 756.577   1
  -1  -8  -6 4410.98 330.405   3
  -1  -8  -7 2956.94 281.107   3
  -1  -8  -8 413.314 124.352   3
   1   8  -8 1399.08 206.601   5
  -1   8  -9 14792.9 643.470   5
   1   8  -9 12045.0 523.395   5
   1   8 -10 172.862 88.5503   5
  -1   8 -10 2829.41 375.255   5
  -1   8 -11 7748.41 495.425   5
   1   8 -11 4065.36 331.226   5
   1   8 -12 48.7818 109.746  16
   1   8 -12 72.0594 121.949   8
  -1   8 -12-25.7397 112.956  16
   1   8 -13 97.9099 115.782  16
   1   8 -13 238.963 154.738   8
  -1   8 -13-16.8174 150.255  16
  -1   8 -14 272.073 163.015  16
   1   8 -14 89.2908 149.206   8
   1   8 -14 114.126 155.877  16
  -1   8 -15 4099.04 449.000  16
   1   8 -15 3663.17 420.127  16
   1   8 -16 376.474 149.015  16
  -1   8 -16 209.727 147.095   8
  -1   8 -16 185.456 137.550  16
   1   8 -17 245.529 132.148  16
  -1   8 -17 390.161 159.559   8
  -1   8 -17 376.611 128.025  16
  -1   8 -18 387.719 136.022  16
   1   8 -18 555.835 153.464  16
   1   8 -18 564.237 150.849  13
  -1   8 -19 126.547 90.0436  16
   1   8 -19 159.420 83.6210  16
   1   9   0 3.28039 52.2267   1
  -1   9   0-24.5192 51.6760   1
   1   9   1 4341.31 307.806   1
  -1   9   1 4865.12 317.384   1
   1   9  -1 4775.70 318.291   1
  -1   9  -1 4713.00 311.842   1
   1   9  -2 1978.32 206.320   1
  -1  -9  -2 1876.16 190.385   3
  -1   9   2 2078.32 205.799   1
   1   9   2 1924.72 206.648   1
  -1  -9  -3 29379.4 769.077   3
   1   9   3 29255.0 806.828   1
  -1   9   3 28998.0 777.723   1
  -1   9   4 961.633 146.305   1
  -1  -9  -4 871.507 144.818   3
   1   9   4 997.866 156.741   1
  -1   9   5 29038.8 820.042   1
   1   9   5 29216.7 865.950   1
  -1  -9  -5 29005.2 860.595   3
  -1  -9  -6 2158.63 240.128   3
  -1   9   6 2335.97 243.663   1
  -1   9   7 5661.50 393.895   1
  -1  -9  -7 5142.07 382.999   3
  -1   9  -8 19792.5 743.773   5
  -1   9  -9 14445.0 615.001   5
  -1   9 -10 5517.99 431.463   5
   1   9 -11 19945.8 969.314   8
  -1   9 -11 17947.0 889.452  16
   1   9 -11 18569.0 906.474  16
  -1   9 -12-83.5496 133.928  16
   1   9 -12 62.8254 112.677  16
   1   9 -12-7.81292 115.663   8
   1   9 -13 3632.65 434.061  16
  -1   9 -13 3451.36 411.762  16
   1   9 -13 3879.54 447.831   8
   1   9 -14 477.966 171.516  16
  -1   9 -14 303.555 145.214  16
   1   9 -14 493.032 198.156   8
  -1   9 -14 665.660 214.153   8
   1   9 -15 594.503 179.925  16
  -1   9 -15 504.826 204.218   8
   1   9 -15 466.971 157.792   8
  -1   9 -15 575.799 180.205  16
  -1   9 -16 55.7358 105.733   8
  -1   9 -16 72.2476 122.120  16
   1   9 -16 282.606 139.314  16
   1   9 -17 157.126 106.758  16
  -1   9 -17 340.633 120.868  16
  -1   9 -17 479.364 156.636   8
   1   9 -18 29.1235 63.4011  13
  -1   9 -18 174.676 91.3503  16
   1   9 -18 265.685 120.843  16
   1  10   0 113.995 72.0524   1
  -1  10   0 19.2511 52.2619   1
  -1  10   1 2733.32 255.714   1
  -1  10  -1 2732.15 256.918   1
   1  10  -1 2824.13 271.195   1
   1  10   1 2604.87 251.430   1
   1  10  -2 39467.9 990.602   1
   1  10   2 41210.4 1012.97   1
  -1  10   2 41061.7 992.836   1
  -1  10   3 2634.37 256.792   1
   1  10   3 2596.87 259.529   1
   1  10   4 564.420 131.598   1
  -1 -10  -4 630.736 134.644   3
  -1  10   4 679.644 136.797   1
   1  10   5 687.900 151.486   1
  -1 -10  -5 741.230 136.771   3
  -1  10   5 784.125 147.632   1
   1  10   6 7569.17 478.286   1
  -1  10   6 7509.19 457.950   1
  -1 -10  -6 6782.01 443.063   3
   1  10   7 115.350 92.8249   1
   1  10   8 6623.88 481.621   1
  -1  10  -8 20355.5 779.998   5
  -1  10  -9 13406.2 607.630   5
   1  10 -10 828.779 231.184   8
   1  10 -10 667.872 186.306  16
  -1  10 -11 337.755 132.424  16
   1  10 -11 438.839 160.170  16
   1  10 -11 264.955 147.963   8
  -1  10 -11 544.238 206.610   8
   1  10 -12 629.620 200.765  16
  -1  10 -12 1328.38 289.924   8
   1  10 -12 921.852 222.534   8
  -1  10 -12 1233.37 255.639  16
  -1  10 -13-84.8018 128.875  16
   1  10 -13 31.1579 108.441   8
  -1  10 -13 216.570 173.839   8
   1  10 -13 103.795 141.192  16
   1  10 -14 1649.35 289.981   8
  -1  10 -14 1637.37 308.096   8
  -1  10 -14 1554.47 278.991  16
   1  10 -14 1396.70 260.960  16
  -1  10 -15 105.144 105.210  16
  -1  10 -15-53.4209 116.197   8
   1  10 -15-89.9782 99.6271   8
   1  10 -15-13.2359 93.3949  16
  -1  10 -16-11.7942 105.882   8
   1  10 -16-58.2165 102.437   8
  -1  10 -16-151.303 111.079  16
   1  10 -16-48.9537 105.939  16
   1  10 -17-34.0182 75.0880  16
  -1  10 -17-54.0128 82.2804   8
  -1  10 -17 159.508 108.671  16
   1  11   0-65.1653 92.4384   1
  -1  11   0-41.7960 67.9372   1
  -1  11  -1 2395.49 259.696   1
  -1  11   1 2472.54 268.854   1
   1  11  -1 2509.07 272.518   1
   1  11   1 2353.67 262.384   1
  -1  11   2 8775.35 492.431   1
   1  11   2 9099.05 516.087   1
   1  11   3 144.320 92.3244   1
  -1  11   3 45.6290 56.2044   1
   1  11   4 30603.2 963.952   1
  -1  11   4 30317.5 936.903   1
   1  11   5 2262.53 276.764   1
  -1  11   5 2174.62 258.768   1
  -1 -11  -5 2113.98 254.819   3
   1  11   6 9126.89 554.675   1
   1  11   7 256.492 114.389   1
   1  11   8 1282.21 227.129   1
   1  11  -8 1586.70 284.866   8
  -1  11  -8 1672.71 289.765   8
  -1  11  -9 7802.81 630.847   8
   1  11  -9 7611.45 625.333   8
   1  11 -10 3514.24 445.162   8
  -1  11 -10 3742.41 448.925   8
   1  11 -11 58.6547 119.284  16
  -1  11 -11 11.8605 117.726   8
   1  11 -11-206.758 141.059   8
   1  11 -12 2535.39 346.448  16
   1  11 -12 2700.87 375.722   8
  -1  11 -12 2705.53 384.901   8
  -1  11 -13-161.561 135.196  16
   1  11 -13 210.785 155.618   8
   1  11 -13 172.131 127.019  16
  -1  11 -13-44.4944 154.702   8
  -1  11 -14 876.233 200.278  16
   1  11 -14 1306.43 252.715  16
   1  11 -14 1001.31 231.305   8
  -1  11 -14 1069.59 245.732   8
   1  11 -15 22.3836 104.006   8
   1  11 -15-26.5076 81.0794  16
  -1  11 -15-126.818 102.741  16
  -1  11 -15 2.26826 116.659   8
  -1  11 -16 277.413 112.941   8
   1  11 -16 124.275 83.4264  16
  -1  11 -16 123.608 94.1114  16
   1  11 -16 130.202 97.5623   8
   1  11 -17-65.3005 83.1636  16
  -1  11 -17 82.2434 89.9081  16
  -1  12   0 22.1090 72.7502   1
   1  12   0 1.38556 58.1259   1
   1  12   1 15641.8 705.918   1
  -1  12   1 15307.4 687.252   1
   1  12  -1 14974.1 687.709   1
  -1  12   2 4325.98 370.926   1
   1  12   2 4422.67 377.077   1
  -1  12   3 699.301 154.887   1
   1  12   3 546.174 128.417   1
  -1  12   4 1.52654 63.2408   1
   1  12   4-14.1525 83.3334   1
  -1  12   5 10859.5 604.884   1
   1  12   5 10424.3 607.137   1
   1  12   6 301.271 128.350   1
   1  12  -6 264.232 137.806   8
  -1 -12  -6 465.106 161.058  19
  -1  12  -7 262.766 127.269   8
   1  12  -7 378.047 163.613   8
  -1  12  -8 93.2853 145.202   8
   1  12  -8 154.967 157.871   8
   1  12  -9 2236.28 342.082   8
  -1  12  -9 2417.43 376.543   8
  -1  12 -10-22.1065 142.399   8
   1  12 -10 120.539 132.124   8
   1  12 -11 1558.06 297.103   8
  -1  12 -11 1454.94 295.139   8
   1  12 -12-149.853 116.568   8
  -1  12 -12 32.9494 137.987   8
   1  12 -13-33.8276 119.046   8
   1  12 -13-84.9464 91.6212  16
  -1  12 -13-34.6860 124.378   8
   1  12 -14-135.217 112.012   8
   1  12 -14-116.357 104.419  16
  -1  12 -14-53.8175 118.064   8
  -1  12 -15 501.869 145.415  16
  -1  12 -15 751.578 175.201   8
   1  12 -15 443.116 131.421  16
   1  12 -15 843.244 177.781   8
   1  12 -16 240.025 101.425   8
  -1  12 -16 172.886 98.7750   8
   1  12 -16 106.470 97.5423  16
  -1  12 -16 71.3138 65.8057  16
  -1 -13   0 35.6859 89.2887  19
   1  13   0 126.280 97.3553   1
  -1 -13   0 85.1490 133.932  20
   1 -13   0-14.9764 75.7118  20
   1  13   1 9326.02 580.732   1
   1 -13   1 9704.74 645.425  20
  -1 -13  -1 9482.01 639.639  20
  -1 -13  -1 9277.24 624.672  19
  -1 -13   1 10067.4 635.003  19
   1 -13  -1 9304.55 620.500  19
  -1 -13   1 9786.82 648.303  20
  -1  13   1 9225.15 562.970   1
   1 -13  -1 8966.97 610.770  20
  -1 -13  -2 5136.74 464.489  20
  -1  13   2 4570.40 403.860   1
  -1 -13   2 5456.63 493.006  20
  -1 -13   2 5147.75 464.931  19
   1 -13  -2 5273.38 469.423  20
  -1 -13  -2 5693.92 491.149  19
   1  13   2 4566.96 407.271   1
   1 -13  -2 5124.86 464.267  19
   1 -13  -3 9202.24 604.966  19
  -1 -13   3 9442.26 617.988  19
  -1 -13  -3 8417.77 603.388  20
  -1 -13   3 9307.76 636.633  20
  -1  13   3 8141.50 541.282   1
   1  13  -3 9714.25 645.179   8
  -1 -13  -3 8975.51 615.525  19
   1  13  -4 2419.47 329.803   8
  -1 -13  -4 2476.29 331.798  19
  -1 -13   4 2404.48 334.768  20
   1 -13  -4 2440.68 314.967  19
   1  13  -5 1744.76 296.988   8
   1 -13  -5 1650.69 274.677  19
  -1  13  -5 1866.51 312.322   8
  -1 -13  -5 1772.78 279.748  19
  -1 -13   5 1335.88 254.233  20
  -1 -13   6-205.960 134.538  20
   1  13  -6 160.191 167.142   8
  -1  13  -6 162.978 168.799   8
  -1 -13  -6 19.0268 102.067  19
  -1 -13   7 2208.17 317.640  20
   1  13  -7 2633.73 385.767   8
  -1  13  -7 2735.79 381.954   8
  -1 -13  -7 2498.34 331.858  19
   1  13  -8 848.451 249.462   8
  -1 -13   8 680.502 197.579  20
  -1  13  -8 516.691 186.401   8
  -1  13  -9 230.963 184.408   8
   1  13  -9 190.991 166.870   8
   1  13 -10 1324.64 272.534   8
  -1  13 -10 1488.46 301.999   8
  -1  13 -11 2442.70 360.390   8
   1  13 -11 2636.00 362.129   8
  -1  13 -12 201.482 158.272   8
   1  13 -12 326.513 161.220   8
  -1  13 -13 1919.97 295.709   8
   1  13 -13 2251.83 311.764   8
   1  13 -14-49.7455 95.9031   8
  -1  13 -14 35.2132 92.9030   8
  -1  13 -15 154.576 103.454   8
   1  13 -15 171.610 100.474   8
   1 -14   0 46.3413 114.312  20
  -1 -14   0-116.431 134.673  20
   1 -14   0-41.9266 123.237  19
  -1 -14   0-119.796 161.107  19
   1 -14  -1 557.036 166.266  20
   1 -14  -1 119.785 115.516  19
  -1 -14  -1 449.308 174.564  20
  -1 -14  -1 562.132 174.025  19
   1 -14   1 338.959 154.952  20
  -1 -14   1 503.362 178.129  19
  -1 -14   1 365.497 159.538  20
  -1 -14   2 969.659 225.202  20
  -1 -14   2 1171.23 228.743  19
   1 -14  -2 977.772 224.889  19
  -1 -14  -2 1069.76 246.437  19
   1 -14  -2 1002.39 232.840  20
  -1 -14  -2 1128.22 240.369  20
   1 -14   2 843.515 226.707  20
   1 -14  -3-68.9813 132.370  19
  -1 -14  -3 158.535 124.708  19
  -1 -14   3 199.694 127.945  20
  -1 -14   3 118.322 126.395  19
   1 -14   3 186.453 143.651  20
  -1 -14  -4 1685.75 287.897  19
   1 -14  -4 1826.71 294.920  19
   1 -14   4 1934.35 317.165  20
   1  14  -4 2154.72 326.730   8
  -1 -14   4 1801.31 289.971  19
  -1 -14   4 1630.31 292.294  20
  -1 -14   5 904.813 243.872  20
   1 -14  -5 582.006 150.728  19
  -1 -14   5 771.105 193.024  19
   1  14  -5 344.589 168.552   8
   1 -14   5 672.323 203.161  20
  -1 -14  -5 606.939 194.598  19
   1  14  -6 68.6423 141.511   8
  -1 -14   6 28.3447 98.9737  20
  -1 -14  -6-134.784 133.917  19
  -1  14  -6 68.7010 132.814   8
  -1 -14   7 279.434 147.004  20
   1  14  -7 598.993 211.171   8
  -1  14  -7 486.513 164.547   8
  -1 -14  -7 407.027 176.380  19
  -1  14  -8 2693.86 379.596   8
  -1 -14   8 2151.57 305.922  20
   1  14  -8 2435.40 357.132   8
   1 -14   9 290.344 146.983  20
   1  14  -9 499.725 194.772   8
  -1  14  -9 264.527 134.489   8
   1 -14  10 313.707 143.091  20
   1  14 -10 476.533 162.900   8
  -1  14 -10 560.968 190.610   8
   1  14 -11-53.6302 110.086   8
  -1  14 -11-76.8403 99.2801   8
  -1  14 -12 515.634 163.932   8
   1  14 -12 718.372 177.501   8
   1  14 -13 166.169 102.420   8
  -1  14 -13-296.765 143.428   8
   1  14 -14 298.079 108.065   9
  -1  14 -14 316.062 114.190   8
   1  14 -14 268.970 103.019   8
   1 -15   0 86.3550 117.264  20
  -1 -15   0 6.01264 117.382  19
  -1 -15   0-196.760 147.143  20
   1 -15   0-87.2542 138.838  19
   1 -15   1 79.2363 110.294  19
  -1 -15   1-147.595 137.866  19
  -1 -15  -1 257.776 148.121  20
   1 -15  -1 8.58491 110.069  19
   1 -15  -1-20.5329 121.084  20
   1 -15   1-126.428 127.187  20
  -1 -15  -1-304.665 179.484  19
  -1 -15   1 94.3366 114.041  20
  -1 -15   2-34.1479 123.422  19
   1 -15   2-18.8406 120.828  19
   1 -15   2 171.091 130.746  20
  -1 -15  -2 145.888 133.600  19
   1 -15  -2-115.687 151.325  19
  -1 -15   2 108.300 133.913  20
   1 -15  -2-49.0317 105.436  20
  -1 -15   3 3101.40 395.902  20
   1 -15  -3 2804.38 362.138  19
  -1 -15  -3 2965.49 379.913  19
   1 -15   3 2809.47 365.234  20
   1 -15   3 3154.45 391.550  19
  -1 -15   3 2567.46 342.674  19
   1 -15   4 1785.36 284.238  19
  -1 -15   4 1933.39 294.626  19
  -1 -15   4 1704.07 302.368  20
   1 -15   4 1916.10 307.103  20
   1 -15  -4 1570.30 277.643  19
   1  15  -4 1938.72 299.583   8
  -1 -15  -4 1757.12 304.937  19
  -1 -15  -5 2576.06 344.818  19
  -1 -15   5 3018.93 384.311  20
   1 -15   5 3116.68 401.369  20
   1  15  -5 3123.67 386.410   8
  -1 -15   5 2727.30 343.500  19
   1 -15  -5 3000.81 368.268  19
  -1 -15   6 1105.22 253.038  20
   1 -15   6 1217.29 258.670  20
   1  15  -6 1568.91 287.365   8
  -1 -15  -6 1113.96 234.983  19
   1  15  -7 418.907 158.050   8
  -1  15  -7 615.331 203.936   8
   1 -15   7 675.102 204.455  20
  -1 -15   7 627.951 178.783  20
   1  15  -8 155.427 137.444   8
  -1  15  -8 308.016 168.602   8
   1 -15   8 148.989 120.478  20
   1  15  -8 438.964 153.630   9
  -1 -15   8 174.855 110.008  20
  -1  15  -9 683.416 199.628   8
   1  15  -9 723.048 186.417   8
   1  15  -9 543.012 146.307   9
   1 -15   9 409.172 159.889  20
   1 -15  10-73.1193 103.031  20
   1  15 -10 365.545 154.894   8
   1  15 -10 97.4080 123.594   9
  -1  15 -10 260.265 133.237   8
   1  15 -11 1038.36 200.565   9
   1  15 -11 1069.05 208.847   8
  -1  15 -11 918.683 192.416   8
   1  15 -12-44.0250 96.5528   8
  -1  15 -12-23.8584 78.5746   9
  -1  15 -12-98.4277 91.7727   8
   1  15 -12 144.946 87.2222   9
   1 -16   0-31.6563 122.167  20
  -1 -16   0-170.767 143.291  20
  -1 -16   0-18.2168 102.967  19
   1 -16   0-143.085 156.145  19
  -1 -16   1 707.043 222.605  20
   1 -16  -1 511.291 183.770  19
  -1 -16  -1 480.877 163.442  19
   1 -16   1 399.129 146.103  19
   1 -16   1 419.642 152.557  20
  -1 -16   1 420.582 149.576  19
   1 -16  -1 333.261 125.273  20
   1 -16   2-28.4010 122.315  20
  -1 -16   2-24.7025 113.009  19
   1 -16  -2-9.83297 116.514  20
  -1 -16  -2 144.827 146.180  19
   1 -16  -2 103.886 128.126  19
  -1 -16   2 109.917 118.238  20
   1 -16   2-138.871 120.873  19
  -1 -16   3 59.0421 100.674  20
   1 -16  -3 186.991 144.387  19
  -1 -16   3 105.090 100.356  19
  -1 -16  -3 101.037 131.577  19
   1 -16   3 177.986 125.472  20
   1 -16   3 169.892 148.308  19
  -1 -16   4 344.129 140.258  19
   1 -16   4 494.614 170.466  19
  -1 -16   4 389.546 157.664  20
   1 -16  -4 358.683 154.830  19
   1 -16   4 252.068 169.479  20
  -1 -16  -4 203.500 101.839  19
  -1 -16   5 619.064 178.504  20
  -1 -16  -5 889.163 214.257  19
   1 -16  -5 633.599 180.300  19
  -1 -16   5 566.229 167.520  19
   1 -16   5 451.746 168.734  20
   1 -16   5 564.801 184.804  19
   1  16  -5 569.257 178.058   8
  -1 -16  -6 146.097 118.296  19
  -1 -16   6 43.3897 105.354  20
   1 -16   6 7.57458 100.907  20
   1  16  -6 56.9946 100.893   8
   1 -16   6 21.4225 83.2355  19
   1  16  -7 211.232 103.091   8
   1 -16   7 365.887 133.154  19
  -1 -16   7 360.291 124.338  20
   1 -16   7 134.744 102.059  20
  -1  16  -8 152.709 119.590   8
   1 -16   8 202.866 83.2225  20
  -1 -16   8 255.512 111.226  20
   1  16  -8 304.657 135.611   8
  -1  16  -9 370.949 142.308   8
   1 -16   9-59.1819 85.6976  20
   1  16  -9 303.186 130.175   8
  -1  16 -10-20.2822 101.049   8
   1  16 -10 187.737 112.081   8
   1  16 -10 45.5937 81.4004   9
   1 -16  10 6.05590 69.2689  20
  -1  16 -11 466.660 127.761   8
   1  16 -11 442.279 132.729   8
  -1 -17   0-63.8271 102.451  19
   1 -17   0-56.5197 134.953  20
   1 -17   0-42.1680 119.730  19
  -1 -17  -1 84.4606 103.888  19
   1 -17   1-82.3518 108.740  20
  -1 -17   1 119.227 87.6584  19
   1 -17  -1 73.9249 91.6967  19
   1 -17   1 153.884 119.741  19
   1 -17  -2 403.323 147.526  19
  -1 -17   2 425.267 156.965  19
  -1 -17  -2 429.285 162.975  19
  -1 -17   2 539.645 180.826  20
   1 -17   2 409.496 142.193  20
   1 -17   2 320.656 145.569  19
  -1 -17   3 43.3646 114.002  20
   1 -17  -3 138.019 124.520  19
   1 -17   3-194.164 126.527  19
  -1 -17   3 6.41435 79.5911  19
   1 -17   3 48.6380 101.707  20
  -1 -17  -3 89.5165 127.157  19
  -1 -17   4 1507.50 246.286  19
   1 -17   4 1766.97 285.690  20
  -1 -17  -4 1527.85 251.336  19
   1 -17   4 1315.27 236.208  19
   1 -17  -4 1522.57 243.814  19
  -1 -17   4 1460.77 255.164  20
  -1 -17  -5 932.517 212.598  19
  -1 -17   5 587.145 161.095  19
   1 -17  -5 550.637 169.231  19
  -1 -17   5 356.437 136.848  20
   1 -17   5 214.010 110.545  19
   1 -17   5 551.980 178.304  20
   1 -17   6 865.070 188.671  20
   1  17  -6 1204.96 212.978   8
   1 -17   6 846.993 177.972  19
  -1 -17   6 988.268 199.481  20
  -1 -17   7 87.7217 120.845  20
   1 -17   7 92.7927 98.3528  19
   1  17  -7 34.9005 97.6347   8
   1 -17   7-95.2554 96.6611  20
  -1 -17   8-71.6012 96.1160  20
   1  17  -8-71.6956 83.8590   8
   1 -17   8 50.6644 83.5086  20
   1  17  -9 141.024 94.6281   8
  -1 -18   0-18.2515 75.6132  19
   1 -18   0 53.4639 97.2355  19
  -1 -18   1 311.280 125.278  19
  -1 -18  -1 241.959 114.265  18
  -1 -18  -1 30.6233 81.3266  19
   1 -18   1 33.5453 88.1596  19
   1 -18  -1 51.6150 75.6608  19
   1 -18   2 262.823 119.176  19
   1 -18  -2 94.1990 88.7957  19
  -1 -18   2 137.806 114.191  19
   1 -18   2 153.977 83.9764  20
  -1 -18  -2 157.317 97.8958  19
   1 -18   3 204.427 116.198  20
   1 -18  -3-10.8413 92.9255  19
  -1 -18  -3 34.7644 91.2480  19
  -1 -18   3 35.5681 75.9321  19
   1 -18   3 94.4383 91.0310  19
   1 -18  -4 170.331 107.114  19
   1 -18   4 107.221 94.3287  19
  -1 -18   4-2.27747 84.0502  19
   1 -18   4 70.5358 87.2208  20
   1 -18   5 231.011 119.399  19
  -1 -18   5 200.722 94.9458  19
   1 -18   5 259.529 120.516  20
   1 -18   6 181.838 102.628  20
   2   0   0 35482.8 644.855   4
  -2   0   1 86.4610 50.1866   4
   2   0  -1 9.12373 39.4458   4
  -2   0   2 285410. 2185.56   4
  -2   0   3-27.7393 55.6337   4
  -2   0   4 29165.4 818.472  21
   2   0  -5 39.3442 36.1374   5
  -2   0  -5 90.9683 42.8820   5
  -2   0   5 10.8630 46.7087  21
  -2   0  -6 228430. 1548.38   5
   2   0  -6 225596. 1579.74   5
  -2   0  -7-154.388 80.9789   5
   2   0  -7 1.50570 40.9694   5
   2   0  -8 92367.7 1209.01   5
  -2   0  -8 95033.6 1173.28   5
   2   0  -9-52.9165 67.7900   5
  -2   0  -9 60.4094 61.4494   5
   2   0 -10 484.345 101.593   5
  -2   0 -10 691.285 124.300   5
   2   0 -11-93.5008 74.4218   5
  -2   0 -11 17.6565 75.6723   5
   2   0 -12 2883.66 270.910   5
  -2   0 -12 2666.56 258.653   5
  -2   0 -13-113.968 86.7916   5
  -2   0 -14 3347.06 311.841   5
  -2   0 -15-123.946 107.974   7
   2   0 -15 19.8330 104.198  12
   2   0 -16 12442.6 766.851  12
  -2   0 -16 13112.8 793.854   7
  -2   0 -17 469.913 198.380   7
   2   0 -17 377.001 169.922  12
   2   0 -18 308.703 135.897  12
  -2   0 -18 68.4172 134.926  12
  -2   0 -19 70.9978 97.8212  12
   2   0 -19 146.201 119.539  12
  -2   0 -20 552.600 144.143  12
   2   0 -20 1065.26 208.730  12
   2  -1   0 80674.2 1133.41   4
   2   1   0 80905.0 784.582   4
   2   1  -1 40934.7 604.937   4
  -2  -1   1 41249.0 611.288   4
   2  -1  -1 40647.6 814.413   4
  -2  -1   2 29258.4 634.614   4
   2  -1  -2 28628.1 739.103   4
  -2  -1  -3 42317.4 1116.28  21
  -2  -1   4 424.529 95.9733  21
  -2   1   4 443.008 133.159   4
  -2   1   4 265.784 104.851  21
  -2  -1  -4 350.666 138.850  21
  -2   1  -5-51.3515 47.8454   5
   2   1  -5 76.5451 49.2431   5
  -2   1  -5-0.11688 57.2988  21
  -2  -1   5 65.2744 47.2560  21
   2  -1  -5 3.43253 38.7425   5
  -2   1   5 125.916 69.8858  21
  -2   1  -6 30134.4 558.487   5
   2  -1  -6 31805.7 598.954   5
   2   1  -6 31915.6 597.939   5
  -2  -1  -6 31991.8 554.311   3
  -2  -1  -6 32864.4 574.174   5
  -2  -1  -7 852.958 109.059   5
  -2  -1  -7 798.710 99.6519   3
   2   1  -7 820.153 108.758   5
  -2   1  -7 945.823 116.449   5
   2  -1  -7 706.765 100.796   5
  -2   1  -8 6988.40 330.383   5
   2   1  -8 6794.09 323.278   5
   2  -1  -8 6643.72 325.595   5
  -2  -1  -8 7213.81 320.100   5
  -2   1  -9 6381.07 326.938   5
  -2  -1  -9 6881.81 338.557   5
   2   1  -9 6864.19 351.035   5
   2  -1  -9 6971.88 356.631   5
  -2   1 -10 12275.7 493.673   5
   2   1 -10 12241.4 504.032   5
  -2  -1 -10 12885.5 493.747   5
  -2  -1 -11 3611.91 275.564   5
  -2   1 -11 4000.48 292.855   5
   2   1 -11 3599.80 288.815   5
  -2   1 -12 76.3893 84.8590   5
  -2  -1 -12 105.492 71.5527   5
   2   1 -12 124.217 74.7146   5
   2   1 -13 1664.55 223.624   5
  -2  -1 -13 1622.79 208.452   5
  -2   1 -13 1571.64 219.670   5
  -2   1 -14-58.8652 88.8965   5
   2  -1 -15 63.0578 113.028  12
  -2   1 -15 65.5812 110.239   7
  -2  -1 -15 362.997 165.624   7
   2   1 -15 155.478 117.058  12
  -2   1 -16 2499.52 363.440   7
   2   1 -16 2738.92 376.935  12
  -2  -1 -16 2745.70 370.652   7
   2  -1 -16 2584.34 354.517  12
  -2  -1 -17-153.362 126.907   7
   2   1 -17 73.7619 135.581  12
  -2   1 -17-40.9547 138.424   7
   2  -1 -17 69.9344 119.966  12
  -2  -1 -18 384.272 150.619  12
   2   1 -18 73.4059 113.988  12
   2  -1 -18 336.706 158.463  12
  -2   1 -18-54.0806 107.797  12
   2   1 -19 835.985 179.255  13
  -2  -1 -19 825.504 195.390  12
   2  -1 -19 826.536 198.627  12
   2   1 -19 1161.20 236.798  12
  -2   1 -19 723.825 188.739  12
  -2  -1 -20 316.700 123.016  12
   2  -1 -20 415.962 139.960  12
  -2   1 -20 245.321 111.236  12
   2   1 -20 418.393 154.871  12
   2  -2   0 32618.0 811.514   4
  -2  -2   1 492766. 1683.65   4
   2  -2  -1 502249. 3195.95   4
   2  -2  -2 91892.9 1453.60   4
  -2  -2  -2 95956.4 1605.59  21
  -2  -2   3 34379.7 544.618  21
  -2   2   3 34462.2 1027.57  21
  -2  -2  -4 18639.3 860.847  21
  -2   2   4 18683.4 799.150   4
  -2   2   4 15970.4 742.328  21
  -2  -2   4 16877.9 436.087  21
   2   2  -5 32193.1 546.612   5
  -2  -2  -5 31424.7 553.007   3
  -2  -2  -6 18086.8 419.566   5
  -2  -2  -6 17051.1 429.829   3
  -2   2  -6 17978.4 831.567  21
   2   2  -6 17688.3 447.254   5
  -2   2  -7 4241.80 233.155   5
  -2  -2  -7 4611.78 235.020   5
   2   2  -7 4480.54 245.238   5
  -2  -2  -7 4827.13 252.765   3
  -2   2  -8 10197.0 387.477   5
  -2  -2  -8 11153.8 403.236   3
  -2  -2  -8 11298.8 399.885   5
   2   2  -8 10503.9 412.573   5
  -2   2  -9 65302.6 1083.47   5
   2   2  -9 66095.6 1098.07   5
  -2  -2  -9 66439.8 1051.45   5
   2   2 -10 212.733 64.8561   5
  -2  -2 -10 218.226 68.3762   5
  -2   2 -10 96.0376 68.8126   5
   2   2 -11 9966.78 484.641   5
  -2   2 -11 10507.0 488.767   5
  -2  -2 -11 10737.8 476.165   5
  -2  -2 -12 128.093 68.5049   5
  -2   2 -12 450.226 127.484   5
   2   2 -12 290.719 83.9145   5
  -2   2 -13 26704.6 874.094   5
   2   2 -13 26090.4 878.326   5
   2   2 -14 137.354 60.1490   5
  -2   2 -14 51.8542 80.0269   5
  -2   2 -15 5658.69 517.102   7
  -2  -2 -15 6103.09 538.894   7
   2  -2 -15 5933.05 523.609  12
   2   2 -15 5810.53 508.578  12
   2  -2 -16 1036.14 231.877  12
  -2   2 -16 942.380 214.578  16
   2   2 -16 769.821 206.893  12
  -2  -2 -16 918.397 210.916   7
  -2   2 -16 843.639 232.356   7
  -2   2 -17-131.355 134.606  12
  -2  -2 -17 145.751 108.483   7
   2  -2 -17 219.769 126.161  12
   2   2 -17 90.3652 98.1675  12
  -2   2 -17 6.49762 108.322   7
  -2   2 -17 150.271 110.372  16
  -2  -2 -18-148.516 143.984  12
   2   2 -18-4.54432 103.537  12
   2  -2 -18-77.4869 105.799  12
  -2   2 -18-117.543 111.080  12
   2   2 -19 657.907 175.326  13
  -2   2 -19 447.574 135.893  12
   2  -2 -19 407.601 148.371  12
  -2  -2 -19 632.343 186.819  12
   2   2 -19 645.609 182.822  12
  -2  -2 -20 158.673 97.0220  12
  -2   2 -20 116.853 81.5232  12
   2  -2 -20 243.173 122.415  12
   2   2 -20 215.332 116.030  13
  -2  -3   0 46560.9 926.084  21
   2  -3   0 48661.0 1108.56   4
  -2  -3  -1 131992. 1807.83  21
  -2  -3   1 131885. 1272.90  21
   2  -3  -1 126302. 1766.96   4
  -2   3   1 127505. 1761.36   4
  -2  -3  -2 58738.9 1336.04  21
   2  -3  -2 56369.6 1233.82   4
  -2   3   2 57136.9 1248.78   4
  -2  -3  -3 8041.68 274.199   3
  -2   3   3 7751.79 533.976  21
  -2   3   3 8372.72 514.353   4
  -2  -3  -3 7924.99 546.531  21
  -2  -3  -4 40112.8 635.541   3
   2   3  -5 1562.59 126.271   5
  -2  -3  -5 1523.00 138.552   3
   2   3  -6 66.9220 46.9265   5
  -2  -3  -6 254.753 57.0611   5
  -2  -3  -6 211.193 65.7992   3
  -2  -3  -7 3673.61 233.987   3
   2   3  -7 3228.09 212.184   5
  -2   3  -7 3150.10 231.344   5
  -2  -3  -7 3607.54 204.967   5
  -2  -3  -8 6452.18 335.278   3
   2   3  -8 6237.55 318.831   5
  -2  -3  -8 6323.71 299.305   5
  -2   3  -8 6199.56 320.360   5
   2   3  -9 48274.0 950.891   5
  -2   3  -9 46967.1 931.539   5
  -2  -3  -9 48037.8 920.438   3
  -2   3 -10 2328.87 230.268   5
   2   3 -10 2357.20 223.567   5
   2   3 -11-16.4064 51.7971   5
  -2   3 -11-85.4422 102.727   5
   2   3 -12 2047.09 225.822   5
  -2   3 -12 2947.81 275.536   5
   2   3 -13 8294.03 493.459   5
  -2   3 -13 8330.08 494.223   5
  -2  -3 -14 93.3520 102.440   7
  -2   3 -14 184.188 111.694   7
   2   3 -14-5.13942 85.4379  12
   2   3 -14 17.1350 79.0000  16
  -2   3 -14-26.3080 67.6877   5
   2  -3 -14-27.3941 70.8536  12
  -2  -3 -15 275.782 152.993   7
   2  -3 -15 423.866 153.772  12
   2   3 -15 338.925 141.004  16
   2   3 -15 75.7114 104.723  12
  -2   3 -15 156.839 119.171   7
  -2  -3 -16 592.843 197.970   7
   2  -3 -16 408.652 140.509  12
   2   3 -16 764.054 209.884  12
   2   3 -16 720.611 207.331  16
  -2   3 -16 420.086 186.240   7
  -2   3 -16 352.259 146.648  12
  -2   3 -16 515.922 158.580  16
  -2   3 -17 263.912 138.569  16
  -2  -3 -17 292.311 128.176   7
  -2   3 -17 190.537 118.838  12
   2   3 -17 427.437 179.289  12
   2  -3 -17 227.368 105.973  12
  -2   3 -18 176.890 129.392  16
   2  -3 -18 271.767 123.699  12
   2   3 -18 371.910 156.280  12
  -2  -3 -18 44.0598 98.0049  12
  -2   3 -18 95.6240 87.2712  12
   2   3 -19 815.715 183.136  13
  -2   3 -19 588.863 159.168  16
  -2  -3 -19 812.053 189.525  12
   2  -3 -19 722.570 190.321  12
  -2   3 -19 677.964 171.486  12
   2   3 -19 782.077 201.550  12
  -2   3 -20 127.879 103.113  12
   2   3 -20 222.892 99.7441  13
   2  -3 -20 326.956 130.041  12
   2  -4   0 6940.23 453.612   4
  -2  -4   0 6879.03 390.042  21
  -2  -4   1 177910. 1628.65  21
  -2  -4  -1 179322. 2252.38  21
   2   4   1 170916. 1037.26   4
  -2   4   1 173428. 2228.40   4
   2  -4   1 180953. 2328.24   4
   2  -4  -1 176066. 2262.70   4
  -2  -4  -2 103820. 1019.11   3
  -2   4   2 104507. 1828.37   4
  -2  -4  -2 103549. 1907.34  21
   2  -4  -2 99943.3 1777.73   4
  -2   4   2 102092. 1981.05  21
   2   4   2 104332. 1180.85   4
  -2  -4  -3 17589.6 436.497   3
  -2   4   3 17601.8 794.645   4
   2   4   4 6918.03 251.507   2
  -2  -4  -4 7400.08 297.712   3
   2   4  -5 249.165 59.9888   5
  -2  -4  -5 362.177 79.7419   3
   2   4   5 330.966 69.2851   2
   2   4  -6 83836.7 1020.18   5
   2   4   6 82501.7 997.928   2
   2   4  -7 6220.33 303.452   5
  -2  -4  -7 6565.84 331.093   3
  -2   4  -8 19719.0 572.703   5
   2   4  -8 20775.8 590.323   5
  -2   4  -9 31076.5 761.645   5
   2   4  -9 31455.2 780.128   5
  -2  -4  -9 31994.7 807.601   3
   2   4 -10 3262.11 266.138   5
  -2   4 -10 4514.77 333.587   5
   2   4 -11 3445.36 289.369   5
  -2   4 -11 3720.85 301.489   5
   2   4 -12 29.9114 78.8703   5
  -2   4 -12 158.620 88.0235   5
   2   4  13 7935.72 476.343   2
   2   4 -13 8038.04 490.181   5
  -2   4 -13 8260.85 496.714   5
  -2   4 -14 2125.36 313.422   7
   2   4 -14 2338.53 327.215  16
   2   4  14 1890.13 249.465   2
   2   4 -14 2392.40 328.577  12
   2   4 -15 4146.33 443.086  16
  -2   4 -15 3984.40 413.768  12
  -2   4 -15 4203.57 438.687   7
   2   4 -15 3959.83 435.007  12
  -2   4 -15 4021.20 449.947  16
  -2   4 -16 4217.27 423.595  12
   2   4 -16 4618.87 460.751  12
   2   4 -16 4551.64 466.618  16
  -2   4 -16 4483.47 473.386  16
  -2   4 -16 4002.99 434.548   7
  -2   4 -17-23.9227 109.345  12
  -2   4 -17-30.0285 114.610  16
   2   4 -17 9.43600 98.9534  12
   2   4 -17 58.5335 104.973  16
  -2   4 -18-185.649 126.877  12
  -2  -4 -18-52.2038 109.459  12
   2   4 -18-14.6131 105.120  12
   2   4 -18 157.527 104.623  16
  -2   4 -18 4.93350 95.8632  16
  -2  -4 -19-71.4138 102.908  12
   2   4 -19 151.608 111.827  13
  -2   4 -19-169.213 102.150  12
  -2   4 -19-27.5726 91.6269  16
  -2  -4 -20 509.994 138.440  12
   2   4 -20 598.954 138.975  13
  -2   4 -20 416.183 125.175  16
  -2   4 -20 596.876 139.946  12
   2   5   0 121493. 1127.53   1
  -2  -5   0 122232. 1105.53   3
  -2  -5   0 123262. 1795.25  21
  -2   5   0 120307. 1059.10   1
   2  -5   0 119947. 2019.15   4
   2  -5  -1 7304.44 502.148   4
  -2   5  -1 7562.67 272.251   1
   2  -5   1 7344.25 516.249   4
   2   5  -1 7860.43 290.791   1
  -2  -5  -1 7511.69 502.464  21
  -2  -5  -1 7560.08 289.442   3
  -2   5   1 7451.57 261.704   1
  -2   5   2 19349.2 425.001   1
  -2  -5  -2 19544.8 902.076  21
  -2  -5  -2 19663.5 483.603   3
   2   5  -2 19940.3 467.974   1
  -2  -5  -3 606.903 84.3407   3
   2   5  -3 902.850 108.299   1
  -2  -5  -4 11067.6 391.704   3
   2   5  -4 4074.67 205.628   5
   2   5  -5 605.534 90.0610   5
  -2  -5  -5 619.712 105.764   3
   2   5  -6 15717.1 438.911   5
  -2  -5  -6 17916.7 551.212   3
  -2  -5  -7 578.697 111.925   3
   2   5  -7 459.942 86.1626   5
  -2  -5  -8 9202.47 448.899   3
   2   5  -8 8057.51 375.339   5
   2   5  -9 1487.02 172.089   5
  -2  -5  -9 2023.89 217.134   3
   2   5 -10 8015.90 418.194   5
  -2   5 -10 10467.5 495.360   5
   2   5 -11 677.591 149.610   5
  -2   5 -11 1812.95 249.157   5
   2   5 -12 2151.64 237.011   5
  -2   5 -12 808.883 86.5864   5
   2   5 -13 288.687 101.750   5
  -2   5 -13 980.888 198.057   5
  -2   5 -14 1044.07 221.863   7
  -2   5 -14 1281.06 258.475  16
   2   5 -14 1088.54 225.973  12
   2   5 -14 1111.32 231.702  16
   2   5 -15 44.1216 108.478  16
   2   5 -15-5.05305 91.5077  12
  -2   5 -15-59.5372 120.691   7
  -2   5 -15-94.5376 121.419  16
  -2   5 -16 1939.01 319.849  16
   2   5 -16 2012.11 324.618  16
   2   5 -16 2238.46 327.283  12
   2   5 -17 735.198 190.257  16
   2   5 -17 601.569 189.463  12
  -2   5 -17 818.163 205.921  16
  -2  -5 -18-148.720 118.708  12
  -2   5 -18-211.258 173.130  16
   2   5 -18 10.3612 101.078  16
   2   5 -19 97.0236 88.3648  13
  -2  -5 -19 275.346 116.387  12
  -2   5 -19-80.0579 89.7501  16
   2   5 -19 85.7137 92.3505  16
   2   5 -20 592.745 139.786  13
  -2   5 -20 277.226 107.311  16
  -2  -6   0 26751.2 567.626   3
  -2   6   0 25356.6 543.231   1
   2   6   0 26275.9 584.338   1
   2   6   1 3995.34 231.578   1
  -2  -6  -1 4392.83 240.810   3
  -2  -6   1 4323.88 224.678   3
  -2   6  -1 4113.23 226.681   1
   2   6  -1 3974.02 229.950   1
  -2  -6  -1 3555.77 381.670  21
  -2   6   1 4145.82 221.163   1
  -2   6   2 50641.4 769.623   1
  -2  -6  -2 51210.2 840.192   3
   2   6  -2 50853.7 826.324   1
  -2  -6  -3 24101.1 595.728   3
   2   6  -3 25369.2 595.440   1
  -2   6   3 24905.4 552.008   1
  -2  -6  -4 7445.31 348.824   3
  -2  -6  -5 345.232 87.4943   3
  -2  -6  -6 63714.8 1084.46   3
   2   6  -6 55361.6 852.796   5
  -2  -6  -7 686.795 123.273   3
   2   6  -7 582.364 102.828   5
  -2  -6  -8 31665.2 877.581   3
   2   6  -8 28881.6 725.358   5
   2   6  -9 3305.57 251.627   5
  -2  -6  -9 3940.57 316.564   3
  -2   6 -10 5107.25 431.597   5
   2   6 -10 1653.50 204.795   5
   2   6 -11 728.214 149.117   5
  -2   6 -11 2915.60 321.319   5
  -2   6 -12 226.044 132.170   5
   2   6 -12 51.9901 66.7634   5
  -2   6 -13 4321.85 451.544  16
   2   6 -13 4638.28 468.344  16
   2   6 -14 2916.94 378.082  16
  -2   6 -14 2715.40 363.748  16
  -2   6 -15 668.929 223.197  16
   2   6 -15 545.759 167.560  16
  -2   6 -16 6114.33 541.192  16
   2   6 -16 5841.79 493.633  12
   2   6 -16 5898.02 533.680  16
  -2   6 -17 180.828 117.884  16
   2   6 -17 82.6318 108.619  16
   2   6 -18-53.4743 83.8493  16
  -2   6 -18-37.3671 113.579  16
   2   6 -19 107.843 92.4210  13
   2   6 -19 184.699 119.135  16
  -2   6 -19 119.799 100.700  16
  -2  -7   0 3556.37 223.436   3
   2   7   0 3518.48 237.229   1
  -2   7   0 3438.96 224.862   1
   2   7  -1 485.295 91.8257   1
  -2  -7   1 527.052 96.5224   3
   2   7   1 446.051 93.7831   1
  -2  -7  -1 364.025 80.1993   3
  -2   7  -1 435.078 87.1049   1
  -2   7   1 381.726 91.0658   1
  -2  -7  -2 2919.15 210.627   3
   2   7   2 3372.02 234.759   1
  -2   7   2 3232.59 216.361   1
   2   7  -2 3186.29 226.948   1
  -2   7   3 17746.3 506.944   1
  -2  -7  -3 17146.6 540.126   3
   2   7  -3 17226.0 536.499   1
  -2  -7  -4 2239.13 207.611   3
  -2   7   4 2441.52 195.766   1
  -2  -7  -5 1066.80 156.404   3
  -2  -7  -6 2094.59 210.267   3
  -2  -7  -7 18825.6 674.445   3
  -2  -7  -8 69.2691 68.6847   3
  -2   7  -9 17643.2 687.307   5
  -2  -7  -9 7293.31 445.624   3
  -2   7 -10 8006.85 527.567   5
  -2   7 -11 3404.49 362.176   5
   2   7 -12 319.863 135.553  16
  -2   7 -12 101.727 116.089  16
   2   7 -13 2833.66 369.407  16
  -2   7 -13 2747.54 378.064  16
  -2   7 -14 95.6209 119.956  16
   2   7 -14 98.3679 122.896  16
  -2   7 -15 41.8197 100.534  16
   2   7 -15 371.829 173.318  16
   2   7 -16 1692.74 286.946  16
  -2   7 -16 1519.18 279.602  16
   2   7 -17 518.658 162.587  16
  -2   7 -17 708.272 183.917  16
   2   7 -18-30.3271 79.4951  13
  -2   7 -18 5.63473 96.9788  16
   2   7 -18 103.285 112.579  16
   2   7 -19 98.6297 94.3149  13
  -2   7 -19 352.069 130.690  16
   2   7 -19 343.579 123.108  16
  -2  -8   0 20882.0 572.430   3
  -2   8   0 19921.4 580.212   1
   2   8   0 20127.0 607.813   1
   2   8   1 128735. 1543.31   1
   2   8  -1 126883. 1528.68   1
  -2  -8  -1 127809. 1453.07   3
  -2   8  -1 126270. 1474.02   1
  -2   8   1 129144. 1469.44   1
  -2  -8  -2 199.571 73.3272   3
   2   8  -2 135.855 63.2235   1
   2   8   2 243.026 71.5115   1
  -2   8   2 246.673 72.9255   1
  -2   8   3 8458.14 382.832   1
   2   8   3 8467.89 413.389   1
   2   8  -3 8112.84 396.697   1
  -2  -8  -3 8069.12 393.229   3
  -2  -8  -4 634.855 120.383   3
  -2   8   4 642.129 111.652   1
  -2  -8  -5 10192.4 469.703   3
  -2  -8  -6 567.102 127.735   3
  -2  -8  -7 4474.68 345.644   3
  -2  -8  -8 2217.27 259.257   3
  -2   8  -9 36122.8 949.994   5
  -2  -8  -9 27997.6 915.489   3
  -2   8 -10 13853.3 622.373   5
  -2   8 -11 4823.20 413.075   5
  -2   8 -12 242.277 154.452  16
   2   8 -12 142.019 113.353   8
   2   8 -12 158.036 130.072  16
   2   8 -13 8850.13 643.456   8
  -2   8 -13 8390.33 634.072  16
   2   8 -13 8604.57 645.380  16
   2   8 -14 475.493 188.913  16
  -2   8 -14 410.558 168.409  16
   2   8 -15 3052.29 388.840  16
  -2   8 -15 2733.92 367.809  16
  -2   8 -16 19.6471 92.7852  16
   2   8 -16 253.704 170.025  16
   2   8 -17-13.4404 99.3795  16
  -2   8 -17 203.405 123.850  16
   2   8 -17-56.0489 80.6140  13
  -2   8 -18 18.2513 93.9912  16
   2   8 -18-69.7288 77.6602  13
   2   8 -18 1.92244 75.6666  16
  -2   8 -19 70.6007 71.5066  16
  -2   9   0 39944.0 891.828   1
   2   9   0 40584.8 933.062   1
  -2   9   1 4498.12 298.264   1
  -2   9  -1 4219.68 294.714   1
   2   9   1 4560.76 318.228   1
   2   9  -1 4485.10 317.428   1
   2   9  -2 7351.34 404.566   1
   2   9   2 7531.13 412.019   1
  -2   9   2 7661.55 391.516   1
  -2  -9  -2 7126.65 378.411   3
   2   9  -3 210.421 82.7407   1
  -2  -9  -3 107.048 78.8989   3
  -2   9   3 213.608 83.4917   1
   2   9   3 131.030 67.3858   1
  -2   9   4 3983.45 293.001   1
   2   9   4 3674.91 301.310   1
  -2  -9  -4 3849.29 295.427   3
  -2  -9  -5 24.8073 59.7266   3
   2   9   5 74.0243 88.9728   1
  -2  -9  -6 2306.63 251.253   3
  -2  -9  -7-14.9588 83.5387   3
  -2  -9  -8 133.767 76.8532   3
  -2   9  -9 23322.2 795.882   5
  -2   9 -10 17111.6 694.379   5
   2   9 -11 344.560 156.479  16
  -2   9 -11 352.362 161.700  16
   2   9 -11 333.548 145.637   8
  -2   9 -12 239.349 153.414  16
   2   9 -12 278.380 145.502  16
   2   9 -12 320.287 163.254   8
   2   9 -13 3036.04 389.450   8
   2   9 -13 2964.68 392.488  16
  -2   9 -13 2785.60 369.302  16
  -2   9 -14 831.681 209.511  16
   2   9 -14 1020.10 229.580   8
   2   9 -14 1401.33 283.788  16
  -2   9 -15 225.325 148.170   8
  -2   9 -15 26.3867 110.713  16
   2   9 -15-219.443 153.366  16
  -2   9 -16 419.076 157.364  16
   2   9 -16 322.424 132.839  13
  -2   9 -16 428.049 159.120   8
   2   9 -16 317.717 142.750  16
   2   9 -17 8.88417 74.4844  13
  -2   9 -17-92.5965 102.602  16
   2   9 -17-79.2481 102.189  16
  -2   9 -17 57.5169 94.3091   8
  -2   9 -18-27.7215 87.6889   8
   2   9 -18 27.4682 68.8039  13
  -2   9 -18-32.0973 67.7805  16
   2  10   0 1733.27 208.681   1
  -2  10   0 2190.96 231.213   1
   2  10  -1 11991.7 551.455   1
  -2  10   1 11941.9 527.761   1
   2  10   1 12560.3 561.975   1
   2  10  -2 12888.6 573.263   1
   2  10   2 13186.0 589.919   1
  -2  10   2 13878.3 568.567   1
   2  10   3 2521.67 265.636   1
  -2 -10  -3 2645.44 254.083   3
  -2  10   3 2839.88 264.126   1
  -2 -10  -4 2676.80 272.610   3
   2  10   4 2528.67 268.435   1
   2  10   5 1314.27 202.075   1
  -2 -10  -5 1628.61 216.640   3
   2  10   6 35626.6 1063.10   1
  -2 -10  -6 34325.8 1040.29   3
  -2 -10  -7 11036.7 599.904   3
   2  10   7 11034.5 614.060   1
  -2 -10  -8 14686.3 698.157   3
  -2  10  -9 19443.9 726.807   5
   2  10  -9 3554.29 417.046   8
   2  10 -10 429.666 155.673  16
   2  10 -10 419.504 144.894   8
   2  10 -11 359.026 151.254  16
   2  10 -11 185.895 134.380   8
   2  10 -12 154.443 148.182   8
   2  10 -12 92.7829 134.183  16
  -2  10 -12 256.228 161.296  16
   2  10 -13 28.9648 113.994  16
  -2  10 -13 367.015 174.378   8
   2  10 -13 347.127 162.751   8
  -2  10 -13 62.5392 118.640  16
  -2  10 -14 756.683 208.424   8
   2  10 -14 878.031 212.176   8
   2  10 -14 521.752 194.486  16
  -2  10 -14 697.810 190.697  16
  -2  10 -15 925.801 220.591   8
   2  10 -15 994.959 222.711  16
   2  10 -15 1026.37 218.120   8
  -2  10 -15 893.070 210.800  16
   2  10 -16 3067.58 350.862  16
  -2  10 -16 3123.21 356.476   8
  -2  10 -16 3210.82 351.665  16
  -2  10 -17 295.902 108.334  16
  -2  10 -17 324.170 129.638   8
   2  10 -17 519.536 155.984  16
   2  11   0 750.950 153.908   1
  -2  11   0 703.672 142.302   1
   2  11  -1 5323.22 401.190   1
   2  11   1 5667.62 408.902   1
  -2  11   1 5470.74 387.775   1
   2  11   2 2974.88 301.200   1
   2  11  -2 2762.98 281.444   1
  -2  11   2 3019.34 286.976   1
   2  11   3 2735.71 289.222   1
  -2 -11  -4 2060.81 249.117   3
   2  11   4 2193.92 263.207   1
   2  11   5 245.192 108.629   1
  -2 -11  -5 158.556 86.1437   3
   2  11   6 5663.05 441.669   1
  -2 -11  -6 5457.75 426.682   3
   2  11   7 4575.50 407.063   1
  -2 -11  -7 3907.97 360.861   3
  -2  11  -8 893.740 229.782   8
   2  11  -8 1019.56 235.724   8
   2  11  -9 1171.08 278.448   8
  -2  11  -9 1029.15 243.665   8
   2  11 -10 1343.00 285.763   8
  -2  11 -10 829.187 216.382   8
   2  11 -10 903.811 225.700  16
  -2  11 -11 739.502 226.237   8
   2  11 -11 706.127 197.751  16
   2  11 -11 786.618 234.571   8
   2  11 -12 497.103 178.066  16
   2  11 -12 218.482 156.048   8
  -2  11 -12 318.592 154.111   8
   2  11 -13 25.2317 107.724   8
  -2  11 -13 138.397 133.367  16
   2  11 -13 12.3342 93.8622  16
  -2  11 -13-1.11777 132.328   8
  -2  11 -14 155.737 91.4614  16
   2  11 -14 385.174 161.188   8
  -2  11 -14 260.271 135.916   8
   2  11 -14 318.673 133.602  16
   2  11 -15 80.2566 104.348  16
   2  11 -15 121.478 107.231   8
  -2  11 -15 236.966 124.546  16
  -2  11 -15 95.6252 98.5701   8
  -2  11 -16 714.466 171.080  16
   2  11 -16 585.716 155.849  16
  -2  11 -16 375.376 130.217   8
   2  11 -17 22.9098 68.0339  16
   2  12   0 14724.7 693.152   1
  -2  12   1 5953.98 426.432   1
   2  12  -1 5824.16 443.719   1
   2  12   1 6211.87 454.372   1
  -2  12   2 6749.44 457.062   1
   2  12   2 6260.13 455.352   1
   2  12   3 6555.80 475.878   1
   2  12   4-120.685 115.742   1
   2  12   5 868.804 179.825   1
  -2 -12  -6 9320.60 621.359  19
  -2 -12   6 9046.61 607.573  20
  -2 -12  -6 7853.15 517.662   3
  -2  12  -6 10221.7 691.112   8
   2  12  -6 9335.02 656.232   8
  -2 -12  -7-59.6948 105.332  19
   2  12  -7-103.521 155.516   8
  -2  12  -7 77.2174 142.665   8
  -2  12  -8 4879.30 504.782   8
   2  12  -8 4870.20 503.255   8
   2  12  -9 3181.09 419.707   8
  -2  12  -9 3105.05 415.835   8
   2  12 -10 274.253 148.036   8
  -2  12 -10 498.101 201.418   8
  -2  12 -11 261.807 168.052   8
   2  12 -11 12.1322 136.359   8
  -2  12 -12-42.3300 134.480   8
   2  12 -12-106.856 113.745  16
   2  12 -12 105.057 111.618   8
   2  12 -13 2122.71 316.203   8
   2  12 -13 1748.39 272.138  16
  -2  12 -13 1774.71 312.164   8
  -2  12 -14 660.937 172.431   8
   2  12 -14 472.138 166.073  16
   2  12 -14 648.155 182.802   8
  -2  12 -15 178.177 106.343   8
   2  12 -15 363.502 124.452   8
   2  12 -15 160.800 78.4699  16
  -2  12 -16 859.036 163.227   8
  -2 -13   0 5229.91 482.231  20
   2  13   0 5544.44 451.510   1
  -2 -13   0 5610.94 481.996  19
   2 -13   0 5751.25 489.407  20
   2  13   1 3204.36 352.864   1
  -2 -13  -1 3042.71 363.979  19
  -2 -13  -1 3415.49 385.121  20
  -2 -13   1 3373.99 387.134  20
   2 -13  -1 2930.98 350.529  20
  -2 -13   1 3304.09 381.669  19
   2  13   2 236.052 110.327   1
   2  13  -2 258.395 100.742   8
   2 -13  -2 124.984 89.4635  19
  -2 -13  -2 380.363 152.016  19
  -2 -13   2 292.859 136.589  19
  -2 -13  -2 242.504 144.912  20
  -2 -13  -3 1897.82 289.963  19
   2  13  -3 2154.37 317.200   8
  -2 -13   3 2209.30 306.910  19
  -2 -13   3 2004.12 308.868  20
   2 -13  -3 2057.96 302.645  19
  -2 -13   4 3042.82 353.959  19
  -2 -13  -4 3632.14 401.131  19
   2  13  -4 3919.84 429.247   8
   2 -13  -4 3331.04 374.287  19
  -2 -13   4 3516.53 403.479  20
  -2 -13   5 534.403 183.412  20
   2  13  -5 287.096 133.750   9
   2  13  -5 446.778 200.256   8
  -2 -13  -5 533.248 180.689  19
  -2 -13  -6 265.863 154.225  19
  -2 -13   6 220.623 112.199  20
  -2  13  -6 223.934 143.601   8
   2  13  -6-48.5675 128.043   8
  -2  13  -7 3292.60 415.112   8
  -2 -13  -7 3177.00 381.069  19
   2  13  -7 2753.46 387.975   8
  -2 -13   7 2804.94 351.606  20
   2  13  -8 1247.10 280.014   8
  -2  13  -8 1277.21 279.777   8
  -2  13  -9 3578.94 440.247   8
   2  13  -9 3446.75 430.852   8
  -2  13 -10 107.099 126.475   8
   2  13 -10 141.131 126.349   8
  -2  13 -11 1133.87 255.187   8
   2  13 -11 1057.54 240.345   8
  -2  13 -12 79.6603 108.983   8
   2  13 -12 146.372 112.524   8
   2  13 -13 480.097 145.274   8
  -2  13 -13 398.420 167.863   8
   2  13 -14 74.9232 85.0124   8
  -2  13 -14 229.577 117.138   8
   2  13 -15 89.7375 73.6736   9
  -2  13 -15 109.721 89.5104   8
  -2 -14   0 1914.65 317.730  20
   2 -14   0 2087.72 321.489  20
  -2 -14   0 2012.81 308.439  19
   2 -14  -1 4633.61 471.541  19
  -2 -14  -1 4990.47 474.312  19
  -2 -14   1 5216.40 500.541  20
  -2 -14   1 5065.83 482.438  19
   2 -14  -1 5386.73 494.555  20
   2 -14   1 5279.99 500.383  20
  -2 -14  -1 5238.00 508.977  20
  -2 -14   2 107.266 121.470  19
  -2 -14   2 535.047 173.807  20
  -2 -14  -2 225.862 164.738  19
   2 -14   2 257.160 171.179  20
   2 -14  -2 170.619 114.763  19
   2  14  -2-82.0196 143.667   8
  -2 -14   3 178.776 104.321  19
  -2 -14   3 25.9437 118.073  20
   2  14  -3 86.5946 108.333   8
   2 -14  -3-113.961 115.736  19
  -2 -14  -3 44.3640 92.3469  19
  -2 -14   4 183.385 137.312  19
  -2 -14   4 340.141 141.529  20
  -2 -14  -4 118.309 155.131  19
   2  14  -4 199.866 158.710   8
   2 -14  -4 125.068 116.833  19
  -2 -14   5 771.323 202.140  20
   2  14  -5 1249.88 263.012   8
  -2 -14  -5 782.290 204.625  19
   2  14  -6 1150.90 238.974   9
  -2 -14   6 1381.32 259.318  20
  -2 -14  -6 1155.23 251.593  19
   2  14  -6 1556.71 287.795   8
   2  14  -7 2343.52 349.880   8
  -2 -14   7 2195.91 317.961  20
   2  14  -7 1884.86 317.503   9
  -2  14  -7 2581.46 376.280   8
  -2  14  -8 160.739 122.382   8
   2  14  -8-145.628 102.551   9
   2  14  -8-26.3587 123.101   8
   2  14  -9 1771.91 295.907   8
  -2  14  -9 1528.67 289.525   8
   2  14  -9 1646.36 270.902   9
   2  14 -10 1001.21 241.542   8
   2  14 -10 1224.99 247.177   9
  -2  14 -10 1492.05 267.990   8
   2  14 -11-49.8931 115.681   8
   2  14 -11 54.3738 96.2961   9
  -2  14 -11-155.906 143.109   8
   2  14 -12-40.2069 114.591   9
  -2  14 -12-49.3486 90.1270   8
   2  14 -12-93.5540 117.497   8
   2  14 -13 779.233 164.289   8
   2  14 -13 950.329 190.026   9
  -2  14 -13 800.385 183.512   8
  -2  14 -14 193.738 99.9829   8
   2  14 -14-93.2700 85.7769   9
  -2 -15   0 2080.54 316.838  19
   2 -15   0 1707.45 304.253  20
  -2 -15   0 2016.96 322.129  20
   2 -15   0 2061.32 323.323  19
   2 -15  -1 268.252 166.592  20
  -2 -15   1-76.5884 134.753  19
   2 -15  -1-8.39433 111.679  19
  -2 -15   1 83.4313 126.634  20
  -2 -15  -1-19.1314 97.3061  19
   2 -15   1 199.620 110.984  20
   2 -15   1 198.016 129.183  19
  -2 -15   2 817.943 208.394  19
  -2 -15   2 566.883 200.540  20
   2 -15  -2 401.224 162.548  19
   2 -15   2 632.548 185.880  20
  -2 -15  -2 753.040 206.988  19
   2 -15  -3 120.970 121.060  19
   2 -15   3 117.502 121.067  20
  -2 -15   3 191.696 162.254  20
  -2 -15   3-47.8890 142.377  19
   2  15  -3 17.3222 117.661   8
  -2 -15  -3 46.2179 141.554  19
   2  15  -4 1669.97 293.187   8
  -2 -15  -4 1776.96 300.060  19
  -2 -15  -4 1507.19 267.708  18
  -2 -15   4 1766.34 275.183  19
  -2 -15   4 1701.84 291.109  20
   2 -15   4 1606.74 298.379  20
   2 -15  -4 1974.88 301.803  19
   2  15  -5-6.63148 110.310   8
  -2 -15   5-24.3850 112.400  20
   2 -15   5 35.7139 103.008  20
  -2 -15  -5 173.774 146.440  19
   2 -15   6 1028.98 236.018  20
   2  15  -6 1120.08 254.453   8
  -2 -15   6 1394.21 268.913  20
  -2 -15  -6 1195.15 249.094  19
   2  15  -7-7.20885 95.9014   9
   2 -15   7 229.124 128.317  20
  -2 -15   7 226.152 123.390  20
   2  15  -7-39.2772 135.371   8
  -2  15  -8-41.3024 104.247   8
   2  15  -8 185.343 145.742   8
   2  15  -8 127.920 88.7579   9
   2 -15   8 260.316 127.909  20
   2  15  -9 48.8323 92.1447   9
   2 -15   9 194.697 126.530  20
   2  15  -9 82.4515 99.3207   8
  -2  15  -9 61.4985 102.680   8
   2 -15  10 445.638 147.344  20
  -2  15 -10 479.526 152.965   8
   2  15 -10 463.316 169.355   9
   2  15 -10 35.2146 112.670   8
   2  15 -11 100.989 92.8626   8
   2  15 -11-76.9219 81.4614   9
  -2  15 -11 57.6849 93.1221   8
  -2  15 -12 113.758 86.6363   8
   2  15 -12 16.7297 77.9520   8
   2  15 -12 109.647 81.8401   9
  -2 -16   0 573.047 184.182  19
   2 -16   0 579.275 177.548  19
   2 -16   0 400.968 172.933  20
   2 -16  -1 99.3501 121.115  19
  -2 -16   1 106.182 106.813  19
  -2 -16   1 144.803 134.849  20
  -2 -16  -1-118.718 117.078  19
   2 -16  -1 4.43876 97.8033  20
   2 -16   1-97.3591 115.413  19
   2 -16   1-12.4862 119.375  20
   2 -16  -2 498.069 150.329  19
  -2 -16  -2 643.286 191.212  19
   2 -16   2 448.814 152.191  20
  -2 -16   2 617.253 174.276  19
   2 -16   2 824.265 217.714  19
  -2 -16   2 686.208 219.484  20
   2 -16   3 768.687 201.610  19
  -2 -16  -3 862.608 212.767  19
  -2 -16   3 486.794 167.588  19
   2 -16   3 689.808 203.269  20
  -2 -16   3 861.023 224.770  20
  -2 -16  -3 950.014 214.335  18
   2 -16  -3 571.570 181.309  19
  -2 -16   4 130.733 119.131  20
   2 -16   4 142.997 112.610  19
  -2 -16   4 137.130 129.418  19
   2 -16  -4 193.688 140.296  19
  -2 -16  -4 87.9597 143.065  19
   2 -16   4 86.6066 116.375  20
   2  16  -4 118.229 117.334   8
   2 -16   5 143.198 112.650  19
   2 -16   5 33.4024 120.837  20
  -2 -16  -5 193.090 177.902  19
  -2 -16   5 132.023 124.670  20
   2  16  -5 603.838 210.552   8
  -2 -16   6 2053.68 294.896  20
   2 -16   6 1624.35 276.477  19
   2  16  -6 2275.62 322.429   8
   2 -16   6 2026.73 315.439  20
  -2 -16   7 1313.80 233.654  20
   2  16  -7 1309.15 259.364   8
   2 -16   7 999.769 201.737  19
   2 -16   7 1355.28 245.644  20
   2 -16   8 995.439 201.166  20
   2  16  -8 1199.10 230.517   8
   2  16  -9-82.7497 89.1472   9
   2  16  -9-85.4576 98.2190   8
   2 -16   9 24.5998 91.6666  20
  -2  16  -9-105.809 98.0048   8
   2  16 -10 26.7153 86.6620   8
  -2  16 -10-115.754 98.4007   8
   2 -16  10-207.831 104.662  20
   2  16 -10-34.9838 83.6413   9
   2  16 -11 148.903 92.5610   8
   2 -17   0 96.8796 103.636  19
   2 -17   0-64.9979 107.638  20
  -2 -17   0 247.368 134.576  19
   2 -17   1 49.3592 117.107  20
   2 -17   1 8.31058 103.890  19
  -2 -17  -1 192.825 115.329  19
   2 -17  -1-4.77962 89.4922  20
  -2 -17   1 118.668 125.258  19
   2 -17  -1 221.125 131.464  19
  -2 -17   2 73.5717 105.539  19
  -2 -17  -2 190.336 144.271  19
   2 -17  -2-73.5984 121.061  19
   2 -17   2 69.5735 89.7290  19
  -2 -17  -2 71.1972 87.8321  18
   2 -17   2 110.693 120.268  20
   2 -17   3 1196.37 232.701  19
   2 -17  -3 1040.14 210.850  19
   2 -17   3 1318.02 257.951  20
  -2 -17  -3 1254.42 225.498  18
  -2 -17   3 1034.81 213.448  19
  -2 -17  -3 1252.75 243.874  19
  -2 -17   4 54.8013 90.0778  19
  -2 -17  -4 349.676 163.513  19
   2 -17   4 31.9904 87.1037  20
   2 -17  -4 34.5756 87.3259  19
   2 -17   4 176.834 122.095  19
   2 -17   5 11.5087 102.795  19
   2 -17   5 63.4566 95.1728  20
   2  17  -5-180.101 119.861   8
   2  17  -6-50.7087 88.6474   8
   2 -17   6 1.07028 95.6454  20
   2 -17   6 27.8249 74.8544  19
   2  17  -7 724.328 157.647   8
   2 -17   7 641.394 148.390  19
   2 -17   7 864.722 182.520  20
   2  17  -8-57.4525 82.4269   8
   2 -17   8-73.5723 85.6122  20
  -2 -18   0 760.235 179.232  19
  -2 -18   0 650.161 171.844  18
   2 -18   0 766.684 187.341  19
   2 -18  -1 460.391 147.463  19
   2 -18   1 603.514 168.636  19
   2 -18   1 530.414 157.708  20
  -2 -18   1 628.758 159.934  19
  -2 -18  -1 551.148 139.391  18
  -2 -18  -1 767.085 186.721  19
  -2 -18  -2 113.859 101.150  18
  -2 -18  -2 274.559 129.677  19
   2 -18  -2 261.745 121.338  19
   2 -18   2 229.055 127.248  19
   2 -18   2 123.776 99.3832  20
  -2 -18   2 111.775 85.2778  19
   2 -18   3 278.239 110.167  20
   2 -18  -3 427.320 148.062  19
  -2 -18   3 18.3818 88.9004  19
   2 -18   3 135.057 94.0676  19
   2 -18   4 34.3981 79.5516  19
   2 -18   4 67.1096 70.4871  20
   2 -18  -4 131.137 115.171  19
  -2 -18   4-97.0586 86.1427  19
   2 -18   5-53.7364 85.4294  20
   2 -18   5-24.5187 66.4292  19
   2 -18   6-73.5125 80.7264  20
   3   0   0 12.1146 56.0109   4
   3   0  -1-4.14036 52.1453   4
  -3   0   1 81.4921 59.4562   4
   3   0  -2 124544. 1598.02   4
  -3   0   2 127504. 1627.72   4
  -3   0   3-52.2705 66.6320   4
  -3   0   4 214403. 2612.93   4
  -3   0   5 84.6670 57.2853  21
   3   0  -5-8.99835 40.0420   5
  -3   0  -5 48.2109 36.6063   5
  -3   0  -6 226.380 64.8935   5
   3   0  -6 277.846 76.3054   5
  -3   0   6 128.245 86.8569  21
   3   0  -7 1.77590 39.0386   5
  -3   0  -7 22.9851 44.6567   5
  -3   0  -8 10664.3 389.211   5
   3   0  -8 9506.53 395.363   5
   3   0  -9-97.5938 94.0420   5
  -3   0  -9 71.9564 70.9142   5
  -3   0 -10 1167.86 154.460   5
  -3   0 -11 178.177 83.6135   5
  -3   0 -12 3083.09 278.343   5
  -3   0 -13-177.717 101.192   5
   3   0 -14 1084.52 231.246  12
  -3   0 -14 966.428 169.636   5
  -3   0 -14 915.175 194.986   7
   3   0 -15 70.9257 100.931  12
  -3   0 -15 148.998 114.331   7
   3   0 -16 2920.18 382.673  12
  -3   0 -16 2982.61 391.298   7
  -3   0 -17 122.756 132.832   7
   3   0 -17-71.2460 112.870  12
  -3   0 -18 141.810 105.038   7
   3   0 -18 341.827 160.404  12
  -3   0 -19 53.2843 105.026  12
   3   0 -19 350.324 150.570  12
  -3   0 -20 90.8730 87.9352  12
   3  -1   0 42.3357 64.7417   4
   3   1   0 174.510 63.3838   4
   3  -1  -1 129428. 1695.66   4
  -3  -1   1 128544. 1367.36   4
  -3   1   1 129143. 1694.05   4
   3   1  -1 128560. 1355.57   4
  -3   1   2 212282. 2301.71   4
  -3  -1   2 211641. 1925.27   4
   3  -1  -2 213483. 2299.75   4
  -3   1   3 358.342 108.075   4
  -3  -1   3 322.497 96.2919   4
  -3   1   4 10652.9 610.853   4
  -3  -1   4 10383.7 551.334   4
   3   1   4 9955.74 297.792   2
  -3  -1  -5 42497.6 608.497   3
  -3   1   5 44413.3 1303.53  21
  -3  -1   5 42960.1 1043.89  21
   3   1  -5 43115.0 635.988   5
  -3  -1  -6 69.1869 40.3090   3
   3   1  -6 26.6664 37.5321   5
  -3  -1  -6-27.3004 48.0042   5
  -3  -1  -7 2426.76 171.786   5
   3   1  -7 2138.70 173.782   5
  -3   1  -7 2170.46 173.610   5
  -3  -1  -7 2181.67 157.832   3
  -3   1  -8 16059.7 497.549   5
   3   1  -8 16020.3 507.191   5
  -3  -1  -8 16636.7 486.823   5
   3   1  -9 31791.2 764.910   5
  -3  -1  -9 33125.7 738.950   5
  -3   1  -9 32784.8 762.522   5
  -3   1 -10 45807.1 949.512   5
  -3  -1 -10 46316.0 932.182   5
   3   1 -10 44651.6 964.230   5
   3   1 -11 873.813 150.257   5
  -3  -1 -11 834.802 128.298   5
   3   1 -12 55464.9 1214.36   5
  -3  -1 -12 56110.4 1174.96   5
  -3   1 -12 54985.3 1186.00   5
  -3  -1 -13 7546.52 454.138   5
  -3   1 -13 8180.37 467.882   5
  -3   1 -14 460.340 162.043   7
  -3  -1 -14 428.587 133.706   7
   3   1 -14 458.872 159.630  12
  -3   1 -14 346.725 110.290   5
   3  -1 -14 346.201 147.917  12
  -3   1 -15 2387.27 347.216   7
   3   1 -15 2119.14 322.040  12
   3  -1 -15 2231.07 324.891  12
  -3  -1 -15 2730.57 364.386   7
   3  -1 -16 3564.84 409.546  12
   3   1 -16 3334.30 410.055  12
  -3   1 -16 3215.19 410.208   7
  -3  -1 -16 3308.16 417.865   7
   3   1 -17 2138.67 317.835  12
  -3   1 -17 2510.86 365.231   7
   3  -1 -17 2473.37 342.104  12
  -3  -1 -17 2655.58 360.374   7
   3   1 -18 95.6291 120.509  12
  -3   1 -18-131.995 145.273  12
  -3  -1 -18-3.93876 103.873   7
   3  -1 -18 151.653 114.664  12
   3   1 -18-76.3439 128.956  13
  -3   1 -18-51.6518 103.529   7
  -3  -1 -19 1093.32 222.754  12
   3   1 -19 1075.83 205.363  13
  -3   1 -19 936.168 202.531  12
   3  -1 -19 982.822 218.319  12
   3   1 -19 1245.63 238.444  12
  -3  -1 -20 1479.56 227.223  12
  -3   1 -20 1662.14 238.587  12
   3  -2   0 6.43172 60.4830   4
   3   2   0 38.0084 25.1860   4
  -3  -2   1 2958.31 175.619   4
   3  -2  -1 2872.80 277.740   4
   3  -2  -2 31329.5 952.956   4
  -3  -2   2 30396.7 659.344   4
  -3  -2   3 34913.8 837.501   4
  -3   2   3 34193.7 1050.41   4
  -3  -2  -3 35381.0 1178.98  21
  -3  -2  -4 18921.2 427.755   3
   3   2   4 16878.4 399.009   2
  -3   2   4 18675.4 869.996  21
  -3  -2   4 18693.6 699.053   4
  -3  -2  -5 5349.07 240.439   3
   3   2   5 5449.61 240.430   2
   3   2  -5 5523.43 230.940   5
  -3  -2  -6 702.655 83.7146   5
  -3  -2  -6 665.185 93.0802   3
   3   2  -6 615.994 90.9920   5
  -3  -2  -7 15555.3 423.450   5
   3   2  -7 15023.2 452.453   5
  -3  -2  -7 15087.0 444.734   3
  -3  -2  -8 251.968 64.9457   5
   3   2  -8 177.603 73.1022   5
  -3  -2  -8 219.247 69.7324   3
   3   2  -9 615.323 115.226   5
  -3  -2  -9 613.837 103.842   5
   3   2 -10 1458.20 175.168   5
  -3  -2 -10 1502.02 158.988   5
  -3   2 -10 1370.97 165.598   5
  -3   2 -11 8618.53 435.070   5
   3   2 -11 8451.35 445.140   5
  -3  -2 -11 8361.93 422.659   5
   3   2 -12 786.485 145.038   5
  -3   2 -12 1293.84 186.746   5
   3   2 -13 120.229 92.6375   5
  -3   2 -13 282.409 120.899   5
  -3  -2 -14 283.494 118.196   7
  -3   2 -14 182.597 105.670   7
   3   2 -14 105.154 93.5383  12
   3  -2 -14 260.883 125.721  12
   3   2  14 164.977 86.9140   2
  -3   2 -14 148.865 78.7648   5
  -3   2 -15 242.934 139.433   7
   3  -2 -15 128.244 107.533  12
   3   2 -15 148.824 128.271  12
  -3  -2 -15 42.0947 106.794   7
   3   2 -16 279.360 153.147  12
  -3   2 -16 67.9156 110.385   7
   3  -2 -16 291.663 152.478  12
  -3  -2 -16 18.2061 112.122   7
  -3  -2 -17 249.166 163.474   7
   3  -2 -17-129.516 101.455  12
  -3   2 -17 195.474 110.903   7
   3   2 -17 121.601 117.210  12
  -3   2 -17 94.9080 108.077  16
  -3   2 -18-30.0013 94.9446  16
   3  -2 -18-118.639 104.791  12
  -3   2 -18 39.7571 87.2875  12
   3   2 -18-109.963 125.341  12
  -3  -2 -18-153.587 123.457   7
   3   2 -18-167.150 123.160  13
  -3  -2 -19-68.8494 93.5896  12
   3   2 -19 155.497 105.140  13
  -3   2 -19-195.768 115.543  12
   3  -2 -19 168.590 134.201  12
   3   2 -20 9.17530 67.1505  13
  -3   2 -20-61.4685 82.7873  12
  -3  -2 -20 15.6119 73.8625  12
   3  -3   0 119.852 101.243   4
  -3  -3  -1 45841.1 1182.77  21
   3  -3  -1 44232.1 1174.86   4
   3  -3   1 46834.6 1242.18   4
  -3   3   1 43646.9 1155.15   4
  -3   3   2 2126.24 268.621   4
   3  -3  -2 2172.73 275.597   4
  -3  -3   2 2115.50 151.392   4
  -3  -3  -2 2069.41 282.684  21
   3   3   3 95322.0 935.919   2
  -3  -3   3 98695.8 1302.93   4
  -3  -3  -3 97726.8 1016.69   3
  -3  -3  -4 9583.31 333.694   3
   3   3   4 9729.34 314.287   2
  -3  -3  -5 197098. 1548.69   3
   3   3   5 191861. 1471.78   2
   3   3  -5 192204. 1357.15   5
  -3  -3  -6 1408.35 142.858   3
   3   3   6 1502.83 137.737   2
   3   3  -6 1368.32 131.018   5
  -3  -3  -7 1686.34 162.411   3
   3   3   7 1521.88 152.142   2
   3   3  -7 1589.92 151.180   5
   3   3  -8 6010.96 313.238   5
  -3  -3  -8 6319.77 329.806   3
  -3   3  -9 62145.7 1053.10   5
   3   3  -9 64486.0 1098.60   5
   3   3 -10 486.312 106.699   5
  -3  -3 -10 418.354 103.625   3
  -3   3 -11 226.633 72.6371   5
   3   3 -11 253.467 89.9872   5
  -3   3 -12 2215.35 255.538   5
   3   3  12 1878.70 224.152   2
   3   3 -12 1755.30 220.313   5
   3   3 -13 8643.71 499.007   5
   3   3  13 9035.53 520.384   2
  -3   3 -13 8903.02 517.535   5
  -3   3 -14 1007.42 237.242   7
   3   3 -14 1224.03 235.929  12
   3   3 -14 1181.95 226.689  16
   3  -3 -14 1155.60 225.256  12
  -3  -3 -14 1228.78 234.975   7
   3   3  14 1046.67 179.573   2
   3   3 -15 4456.44 448.058  16
   3   3 -15 4553.56 462.566  12
   3  -3 -15 4633.81 458.757  12
  -3  -3 -15 4675.36 474.482   7
  -3   3 -15 4582.57 469.153   7
   3  -3 -16 70.4991 124.066  12
  -3  -3 -16 300.764 148.162   7
  -3   3 -16 145.180 138.651   7
   3   3 -16 199.653 129.698  12
   3  -3 -17 6490.52 533.000  12
  -3   3 -17 6379.98 540.943  16
   3   3 -17 5676.00 508.794  12
  -3   3 -17 5996.08 512.480  12
  -3   3 -17 5635.40 509.214   7
  -3  -3 -17 6133.97 522.003   7
   3   3 -18 563.626 165.128  13
  -3   3 -18 456.009 148.514  12
   3   3 -18 544.938 170.126  12
   3  -3 -18 771.744 203.929  12
  -3   3 -18 163.184 107.507  16
  -3   3 -19 3519.77 344.939  12
   3   3 -19 3882.17 373.830  13
  -3   3 -19 3936.27 374.671  16
  -3  -3 -19 3923.17 391.603  12
   3  -3 -19 3941.53 384.002  12
  -3   3 -20-132.356 96.5359  12
  -3  -3 -20 78.2047 91.0928  12
   3   3 -20-43.2811 65.7500  13
   3   4   0 228.215 58.3424   1
  -3  -4   0 250.199 105.733  21
  -3  -4   1 4239.22 298.048  21
  -3  -4  -1 4448.16 391.747  21
  -3  -4  -2 58496.7 813.961   3
  -3  -4  -2 61361.1 1564.28  21
   3   4  -2 60926.6 742.846   1
  -3  -4  -3 2498.74 180.491   3
   3   4   3 2428.15 156.039   2
   3   4  -3 2939.90 172.558   1
   3   4   4 74.7618 49.0645   2
  -3  -4  -4-89.7427 63.0620   3
  -3  -4  -5 2681.83 196.972   3
   3   4  -5 2694.58 165.627   5
   3   4   5 2763.53 185.636   2
  -3  -4  -6 31212.3 697.538   3
   3   4   6 30679.7 650.470   2
   3   4  -6 29974.2 605.264   5
   3   4   7 442.017 89.8866   2
  -3  -4  -7 225.516 66.2386   3
   3   4  -7 276.753 73.2880   5
  -3  -4  -8 364.970 87.7906   3
   3   4  -8 467.798 96.4992   5
   3   4   9 3232.72 248.819   2
   3   4  -9 3343.36 259.383   5
  -3  -4  -9 3416.56 274.608   3
  -3  -4 -10 10467.3 486.470   3
   3   4 -10 10747.7 479.178   5
   3   4  10 10856.4 490.659   2
   3   4 -11 1906.40 212.003   5
   3   4  11 1979.97 216.637   2
   3   4  12 4.74360 62.1502   2
   3   4 -12-29.4620 72.1736   5
   3   4  13 319.955 107.771   2
   3   4 -13 203.085 77.1772   5
   3   4 -14-30.3038 104.232  12
   3   4 -14-156.381 139.845  16
  -3   4 -14-42.6569 115.602   7
   3   4 -15 1366.44 271.342  12
   3   4 -15 1119.12 233.355  16
  -3   4 -15 1213.50 247.247   7
   3   4 -16 612.535 208.663  16
  -3   4 -16 258.079 120.758  12
   3   4 -16 292.275 137.598  12
  -3   4 -16 628.266 208.060   7
  -3   4 -16 490.405 189.466  16
   3   4 -17 202.374 154.169  12
  -3   4 -17 74.9378 123.327  16
  -3   4 -17-7.49659 91.3754  12
   3   4 -17-25.4326 108.800  16
  -3   4 -18 566.345 139.707  12
   3   4 -18 766.735 186.369  13
  -3   4 -18 809.528 196.443  16
  -3  -4 -19 202.738 110.639  12
  -3   4 -19-62.1073 74.2667  12
  -3   4 -19-75.6038 99.3260  16
   3   4 -19 11.3272 94.3179  13
  -3   4 -20-158.089 90.3083  16
  -3  -4 -20-58.2981 60.5592  12
  -3   5   0 6.76836 39.6100   1
  -3  -5   0 18.2970 51.6343  21
   3   5   0 56.6047 40.9562   2
   3   5   0-22.6776 44.2588   1
  -3  -5  -1 10963.2 371.778   3
   3   5  -1 11062.1 332.389   2
   3   5   1 10642.6 325.359   2
  -3  -5  -1 10787.6 635.935  21
   3   5  -1 11356.5 351.876   1
  -3  -5  -2 192910. 1607.80   3
   3   5  -2 191283. 1468.87   1
   3   5   2 187913. 1383.46   2
  -3  -5  -3 2955.15 208.139   3
   3   5  -3 2987.09 189.890   1
   3   5   3 2759.24 174.416   2
  -3  -5  -4 573.666 103.152   3
   3   5   4 626.670 94.1210   2
  -3  -5  -5 1376.34 156.825   3
   3   5   5 1263.49 130.430   2
  -3  -5  -6 1684.52 181.119   3
   3   5   6 1790.54 163.801   2
   3   5   7 1537.74 158.779   2
  -3  -5  -7 1500.88 178.890   3
   3   5  -8 30750.8 729.097   5
   3   5   8 31433.6 758.550   2
  -3  -5  -8 31925.6 826.603   3
  -3  -5  -9 1121.07 173.368   3
   3   5  -9 965.418 142.000   5
   3   5 -10 27243.8 777.878   5
   3   5  10 27440.5 792.604   2
  -3  -5 -10 26879.5 825.572   3
   3   5 -11 5194.91 358.160   5
   3   5  11 5531.26 377.674   2
   3   5 -12 43511.2 1093.48   5
  -3   5 -12 43384.7 1114.87   5
   3   5 -13 1294.89 238.890  12
   3   5 -13 1226.56 182.359   5
   3   5 -13 1582.69 255.570  16
   3   5 -14-21.4881 113.526  12
   3   5 -14 22.6954 110.231  16
  -3   5 -14-13.0588 106.516   7
  -3   5 -15 64.2290 127.390   7
   3   5 -15 84.8444 133.110  12
  -3   5 -15 161.695 141.353  16
   3   5 -15 18.4532 123.219  16
   3   5 -16 3236.00 387.392  12
  -3   5 -16 2912.93 394.612  16
   3   5 -16 2961.70 384.741  16
  -3   5 -16 2855.67 364.465   7
   3   5 -17 606.100 180.350  16
  -3   5 -17 587.093 174.850  16
   3   5 -18-43.8739 123.117  13
   3   5 -18-156.653 130.438  16
  -3   5 -18-56.0434 106.913  16
   3   5 -19 175.997 102.332  16
  -3  -5 -19-27.9753 83.7751  12
   3   5 -19 51.5922 78.7898  13
  -3   5 -19 228.319 102.800  16
   3   5 -20 1558.41 205.866  13
  -3   6   0-41.6313 52.2708   1
   3   6   0 31.2874 43.3889   1
   3   6   1 2135.80 177.651   1
  -3  -6  -1 2099.18 186.950   3
  -3   6   1 2231.65 162.302   1
   3   6  -1 2310.09 179.972   1
  -3  -6  -2 12836.8 446.346   3
   3   6  -2 12661.8 416.247   1
   3   6  -3 3519.97 230.538   1
  -3  -6  -3 3423.69 239.880   3
  -3  -6  -4 1047.94 126.461   3
  -3  -6  -5 179.299 74.1412   3
  -3  -6  -6 143.547 72.5133   3
  -3  -6  -7 429.900 100.641   3
  -3  -6  -8 46.6310 62.4797   3
  -3   6  -9 17618.9 704.196   5
  -3  -6  -9 1622.29 204.991   3
  -3  -6 -10 739.217 160.435   3
  -3   6 -10 8940.04 564.269   5
  -3   6 -11 4138.04 397.584   5
  -3   6 -12 1020.09 227.658   5
   3   6 -13 366.060 139.466  12
   3   6 -13 245.136 127.047  16
   3   6 -14 133.658 131.404  12
   3   6 -14-141.632 154.525  16
  -3   6 -15 79.3339 123.568  16
   3   6 -15 310.731 162.731  16
   3   6 -16 137.129 125.066  16
  -3   6 -16-110.610 138.722  16
  -3   6 -17-5.16139 95.8588  16
   3   6 -17 172.352 133.091  16
   3   6 -18 39.5733 82.8261  13
  -3   6 -18 170.045 109.224  16
   3   6 -18 114.441 88.6105  16
   3   6 -19 11.8134 70.3335  16
  -3   6 -19-100.616 85.1673  16
   3   7   0 91.5852 51.1957   1
  -3   7   0-15.7348 53.3149   1
  -3  -7   0 99.5045 76.4135   3
   3   7   1 20795.1 583.463   1
  -3  -7  -1 21881.5 602.840   3
  -3  -7   1 21802.8 580.740   3
   3   7  -1 20577.1 580.366   1
  -3   7   1 20739.1 529.913   1
   3   7   2 68839.4 1092.72   1
  -3  -7  -2 70283.9 1106.10   3
   3   7  -2 68331.9 1060.26   1
  -3  -7  -3 22868.9 645.715   3
   3   7  -3 23509.6 633.483   1
  -3  -7  -4 22868.1 668.198   3
  -3  -7  -5 85463.7 1334.60   3
  -3  -7  -6 735.363 131.231   3
  -3  -7  -7 110.564 84.2628   3
  -3  -7  -8 554.921 128.215   3
  -3   7  -9 41737.3 1013.92   5
  -3  -7  -9 28302.2 914.930   3
  -3  -7 -10 9148.70 527.020   3
  -3   7 -10 21196.8 731.994   5
  -3   7 -11 7106.06 462.691   5
   3   7 -12 8456.62 620.705  16
  -3   7 -13 1671.80 303.277  16
   3   7 -13 1692.22 309.264  16
  -3   7 -14 279.615 169.712  16
   3   7 -14-59.2624 97.4288  16
   3   7 -15 2456.91 358.112  16
  -3   7 -15 1858.02 306.551  16
   3   7 -16 66.9106 108.449  16
  -3   7 -16 86.6507 100.028  16
   3   7 -17 2077.34 287.538  13
   3   7 -17 2455.02 331.147  16
  -3   7 -17 2157.25 309.464  16
   3   7 -18 270.434 114.160  13
  -3   7 -18 494.817 159.678   8
  -3   7 -18 320.965 124.996  16
   3   7 -18 393.958 157.591  16
  -3   7 -19 1118.46 185.067  16
   3   7 -19 1163.92 182.236  13
   3   7 -19 1064.70 186.482  16
  -3   8   0 2.89286 54.2414   1
   3   8   0-79.0472 75.5398   1
  -3  -8   0 44.0179 50.1826   3
  -3  -8  -1 3863.43 269.962   3
   3   8  -1 4200.37 284.816   1
   3   8   1 4041.85 282.179   1
  -3   8   1 4062.83 260.832   1
  -3  -8  -2 210.534 49.6286   3
   3   8  -2 221.279 85.3478   1
   3   8   2 214.168 76.4854   1
   3   8  -3 11884.6 487.802   1
   3   8   3 11852.4 503.043   1
  -3  -8  -3 11349.5 486.371   3
  -3  -8  -4 451.985 106.847   3
  -3  -8  -5 28.5099 59.6174   3
  -3  -8  -6 2815.84 265.432   3
  -3  -8  -7 230.773 85.5791   3
  -3  -8  -8 7006.40 466.714   3
  -3   8  -9 27805.3 948.618   5
  -3  -8  -9 227.686 101.766   3
  -3   8 -10 14157.6 646.478   5
  -3  -8 -10 83.5148 88.7979   3
  -3   8 -11 1536.75 274.133  16
   3   8 -11 1363.93 248.742  16
   3   8 -11 1455.71 268.643   8
  -3   8 -12 3621.82 419.031  16
   3   8 -12 3738.62 415.656  16
   3   8 -13-60.3969 103.554  16
  -3   8 -13 80.9669 126.967  16
   3   8 -14-11.3151 105.112  16
  -3   8 -14 67.3337 141.226  16
  -3   8 -15-43.9240 98.4948  16
   3   8 -15 128.282 96.8769  16
   3   8 -16 914.809 208.431  13
   3   8 -16 1011.01 224.880  16
  -3   8 -16 1002.30 219.913  16
  -3   8 -17 100.876 109.190   8
   3   8 -17 273.895 119.027  16
  -3   8 -17 213.431 123.275  16
   3   8 -17-8.77660 74.4816  13
   3   8 -18 37.4268 62.6919  13
   3   8 -18 42.3568 79.6703  16
  -3   8 -18 10.5554 85.5525  16
  -3   8 -18-69.1080 94.0064   8
   3   9   0-4.83427 55.2977   1
  -3   9   0-47.7506 60.5396   1
   3   9  -1 73.3130 70.8064   1
   3   9   1 149.192 62.6993   1
  -3  -9  -2 37024.4 899.897   3
   3   9   2 36266.8 921.379   1
   3   9  -2 36423.0 910.409   1
   3   9   3 12700.1 554.380   1
  -3  -9  -3 12560.5 540.874   3
   3   9  -3 12142.4 531.860   1
  -3  -9  -4 65.1610 64.6608   3
   3   9   4 20.2494 60.4256   1
  -3  -9  -5 42171.4 1061.36   3
  -3  -9  -6 714.551 152.955   3
  -3  -9  -7 98.6981 79.0632   3
  -3  -9  -8 16386.0 750.796   3
  -3   9  -9 39075.2 1095.63   5
  -3  -9  -9 8470.57 536.740   3
   3   9 -10 657.625 182.966  16
   3   9 -10 373.694 138.009   8
   3   9 -11 2906.63 375.454   8
  -3   9 -11 2475.73 333.680  16
   3   9 -11 2513.35 349.867  16
   3   9 -12 5021.95 497.512  16
   3   9 -12 5770.71 523.589   8
  -3   9 -12 5368.20 498.956  16
   3   9 -13 4111.40 451.488  16
  -3   9 -13 4431.46 452.622  16
   3   9 -13 4753.94 474.792   8
   3   9 -14 562.131 176.655  16
  -3   9 -14 586.631 180.576  16
  -3   9 -15 1542.50 291.005  16
   3   9 -15 1892.36 303.399  16
   3   9 -15 1477.89 246.374  13
   3   9 -16 818.298 182.355  13
   3   9 -16 791.155 181.942  16
  -3   9 -16 798.930 204.692  16
  -3   9 -16 936.236 224.766   8
   3   9 -17 1356.82 198.265  13
  -3   9 -17 1588.89 238.583  16
   3   9 -17 1337.14 232.444  16
  -3   9 -17 1743.73 266.135   8
   3   9 -18 267.532 105.284  13
   3   9 -18 142.061 85.9121  16
  -3   9 -18 202.350 104.297  16
   3  10   0 67.0704 68.5009   1
   3  10   1 986.261 166.083   1
   3  10  -1 1040.37 165.505   1
  -3 -10  -2 15.2511 55.4400   3
   3  10  -2 154.513 98.8185   1
   3  10   2 46.0249 66.5871   1
   3  10   3 4604.46 355.047   1
  -3 -10  -3 4659.47 345.486   3
   3  10   4 17122.3 705.883   1
  -3 -10  -4 17385.0 692.106   3
   3  10   5 1098.91 202.014   1
  -3 -10  -5 1021.88 168.590   3
  -3 -10  -6 1277.57 206.417   3
   3  10   6 1366.00 216.434   1
  -3 -10  -7-67.4228 90.0239   3
   3  10   7-50.3349 78.4446   1
  -3 -10  -8 3171.76 339.667   3
   3  10  -9 790.461 204.755  16
   3  10  -9 958.807 219.660   8
   3  10 -10 860.697 215.052  16
   3  10 -10 1299.01 271.323   8
   3  10 -11 234.964 124.302   8
   3  10 -11 185.124 141.507  16
   3  10 -12 311.136 154.013  16
   3  10 -12 269.311 125.558   8
  -3  10 -12 171.888 118.318  16
   3  10 -13 383.213 172.875  16
  -3  10 -13 136.856 116.047  16
   3  10 -13 360.264 149.003   8
   3  10 -14 346.795 146.553   8
   3  10 -14 213.204 120.384  16
  -3  10 -14 223.829 114.516  16
   3  10 -15-69.3584 96.9442  16
  -3  10 -15-135.121 113.253  16
  -3  10 -15-47.3128 136.695   8
  -3  10 -16 719.556 195.084   8
  -3  10 -16 366.642 143.406  16
   3  10 -16 403.348 144.083  16
   3  10 -17-102.023 89.0193  16
  -3  10 -17 47.4859 84.5367  16
  -3  10 -17-31.0696 93.1196   8
   3  11   0-18.1037 65.4222   1
   3  11  -1 10934.5 564.965   1
   3  11   1 10622.1 561.204   1
   3  11   2 35043.7 1030.88   1
   3  11  -2 34699.2 1012.68   1
   3  11   3 1927.56 253.342   1
   3  11   4 3488.47 338.926   1
  -3 -11  -4 3795.74 333.254   3
   3  11   5 3165.64 332.732   1
  -3 -11  -5 3106.24 323.434   3
  -3 -11  -6 701.376 164.217   3
   3  11   6 713.140 172.183   1
  -3 -11  -7 202.516 80.2933   3
   3  11   7 446.127 147.396   1
   3  11  -7 226.370 130.273   8
   3  11  -8 3691.95 429.167   8
   3  11  -9 1995.60 335.752   8
   3  11 -10 7278.75 579.611  16
   3  11 -10 7734.91 629.085   8
  -3  11 -11 3477.49 434.070   8
   3  11 -11 2981.23 383.389  16
   3  11 -11 3026.78 393.575   8
   3  11 -12 9113.61 652.576  16
   3  11 -12 9516.95 667.045   8
  -3  11 -12 9901.58 711.230   8
   3  11 -13-155.355 127.121  16
   3  11 -13 21.4562 138.095   8
  -3  11 -13-76.9423 121.130   8
   3  11 -14-27.4692 99.8855   8
   3  11 -14 73.2199 123.359  16
  -3  11 -14 195.722 124.290  16
  -3  11 -14 7.15561 109.510   8
  -3  11 -15 620.628 170.952  16
   3  11 -15 515.122 156.735  16
  -3  11 -15 773.504 199.346   8
  -3  11 -16 130.968 89.1563  16
  -3  11 -16 153.188 98.5957   8
   3  12   0 108.231 86.8611   1
   3  12  -1 423.823 144.642   1
   3  12   1 206.264 97.4237   1
   3  12   2 2428.22 286.086   1
   3  12   3-149.985 105.526   1
   3  12   4 1810.23 257.514   1
   3  12   5-25.0694 78.9124   1
   3  12  -5 24.8216 115.881   8
  -3 -12  -5 205.534 140.423  18
  -3 -12  -5-33.1788 86.1250   3
  -3 -12   5-40.1049 100.871  20
  -3 -12  -5 37.8900 86.9366  19
   3  12  -6 263.959 140.475   8
  -3 -12  -6 154.832 143.176  18
  -3 -12  -6 360.977 192.921  19
  -3 -12   6 294.594 160.302  20
  -3 -12  -7 258.982 131.660  19
   3  12  -7 31.3735 118.665   8
  -3  12  -7 144.423 133.491   8
  -3  12  -8 249.208 119.181   8
   3  12  -8 359.047 131.858   8
   3  12  -9 463.970 211.570   8
  -3  12  -9 58.7783 129.055   8
   3  12 -10-114.919 143.124   8
  -3  12 -10 99.6153 160.696   8
  -3  12 -11 1696.53 308.135   8
   3  12 -11 1549.42 267.161  16
   3  12 -11 1906.06 317.404   8
   3  12 -12-97.0326 117.733  16
   3  12 -12 73.2729 131.595   8
  -3  12 -12 208.335 172.767   8
   3  12 -13-39.0479 83.9050  16
   3  12 -13-215.095 145.328   8
  -3  12 -13 33.0503 117.678   8
   3  12 -14 125.223 115.530   8
  -3  12 -14 205.409 136.382   8
   3  12 -15 6.39599 86.3757   9
   3  12 -15 39.2788 83.4167   8
  -3  12 -15 96.6046 119.138   8
  -3 -13   0-178.832 137.572  20
  -3 -13   0 200.412 149.675  19
  -3 -13  -1 1757.96 295.013  19
  -3 -13   1 2097.41 296.972  19
   3  13  -1 1906.58 296.064   8
  -3 -13   1 2269.86 325.589  20
  -3 -13  -1 1636.98 292.006  20
  -3 -13   2-20.6098 103.530  19
  -3 -13  -2 25.4645 123.036  19
   3  13  -2-75.8605 114.856   8
  -3 -13   2-30.3746 137.941  20
  -3 -13   3 3007.82 367.946  20
  -3 -13  -3 2708.58 362.618  19
  -3 -13   3 2685.82 333.950  19
   3  13  -3 3152.95 380.177   8
   3 -13  -3 2806.08 346.160  19
  -3 -13   4 3584.04 401.158  20
   3  13  -4 4003.99 444.391   8
   3  13  -4 3505.51 386.980   9
  -3 -13  -4 3762.01 416.294  19
   3  13  -5 21915.9 968.923   9
  -3 -13  -5 21860.9 945.435  18
  -3 -13  -5 21501.3 969.658  19
  -3 -13   5 21070.1 956.974  20
   3  13  -5 22245.3 1025.26   8
   3  13  -6 4469.60 471.886   8
  -3 -13   6 4932.84 466.272  20
  -3 -13  -6 4686.98 471.736  19
   3  13  -6 4753.50 473.077   9
   3  13  -7 77.6918 124.154   8
   3  13  -7 340.879 154.051   9
  -3  13  -7-132.351 134.025   8
  -3  13  -8 866.055 246.254   8
   3  13  -8 757.430 212.809   8
   3  13  -9 3942.64 445.836   8
  -3  13  -9 4236.87 475.040   8
   3  13 -10 730.966 203.024   8
  -3  13 -10 536.648 190.324   8
   3  13 -11 17.1119 103.772   8
  -3  13 -11-214.418 106.930   8
   3  13 -12-18.2049 97.8254   8
  -3  13 -12 58.1378 98.4837   8
   3  13 -13 126.509 82.3586   9
   3  13 -13 77.4619 95.3642   8
  -3  13 -13 210.611 128.856   8
   3  13 -14 146.799 95.7694   9
   3  13 -14 199.418 80.7350   8
  -3  13 -14 152.575 107.493   8
  -3  13 -15 166.438 90.5907   8
  -3 -14   0-86.6562 120.747  19
  -3 -14   0 226.948 141.761  20
   3 -14   0 95.7408 137.230  20
  -3 -14   1 98.8756 109.550  20
  -3 -14  -1 30.5258 101.248  19
   3  14  -1 301.773 160.139   8
   3 -14   1 183.148 135.129  20
  -3 -14   1 126.300 117.332  19
  -3 -14   2 1146.44 239.301  20
   3 -14  -2 821.230 205.056  19
  -3 -14  -2 1128.34 246.172  19
  -3 -14   2 1006.05 218.283  19
   3  14  -2 1198.81 251.976   8
  -3 -14   3-159.480 106.802  19
  -3 -14  -3 152.008 147.367  19
   3 -14  -3-139.024 129.902  19
   3  14  -3-232.830 186.225   8
  -3 -14   3 177.095 155.693  20
  -3 -14  -4 112.527 134.909  18
  -3 -14   4 119.317 131.691  20
   3  14  -4-189.407 173.221   8
  -3 -14  -4 233.690 144.433  19
  -3 -14  -5 221.321 142.913  18
  -3 -14  -5 43.4049 108.622  19
  -3 -14   5 230.678 137.593  20
   3  14  -5 72.8203 124.039   8
   3  14  -5 171.360 141.777   9
  -3 -14  -6 235.095 143.523  19
   3  14  -6 282.265 161.034   8
  -3 -14   6 447.016 153.069  20
   3  14  -6 352.383 175.297   9
   3  14  -7-11.1176 105.372   9
   3  14  -7-77.9626 141.605   8
   3  14  -8 529.413 174.645   9
   3  14  -8 628.419 216.091   8
  -3  14  -8 745.123 214.550   8
   3  14  -9 46.1689 116.418   9
   3  14  -9 68.7463 127.841   8
  -3  14  -9-42.6606 109.495   8
   3  14 -10 289.755 129.636   9
   3  14 -10 278.081 130.086   8
  -3  14 -10 80.4979 126.099   8
   3  14 -11 448.012 149.329   9
   3  14 -11 431.827 159.562   8
  -3  14 -11 333.280 139.885   8
   3  14 -12 106.398 100.647   9
   3  14 -12 261.995 124.425   8
  -3  14 -12 183.344 117.638   8
   3  14 -13-46.1169 100.057   9
   3  14 -13 78.7060 90.7815   8
  -3  14 -13 10.4481 82.4013   8
  -3 -15   0 72.5718 146.733  19
   3 -15   0-218.895 145.458  20
   3 -15   0 118.906 119.382  19
   3 -15   1 1718.22 304.790  20
  -3 -15  -1 1579.73 294.319  19
  -3 -15   1 1770.47 305.650  20
  -3 -15   1 1636.95 286.325  19
   3 -15  -1 1470.19 286.020  19
   3  15  -2 6680.46 544.730   8
   3 -15  -2 5491.92 508.081  19
   3 -15   2 6671.32 572.831  20
  -3 -15   2 6125.72 513.540  19
  -3 -15  -2 5797.58 541.286  19
  -3 -15   2 6387.26 556.563  20
  -3 -15   3 3414.44 387.069  19
   3  15  -3 3095.12 370.546   8
   3 -15   3 2965.45 393.019  20
   3 -15  -3 3047.08 366.975  19
  -3 -15   3 3043.52 379.855  20
  -3 -15  -3 3390.90 412.561  19
  -3 -15  -4 449.918 182.692  18
   3  15  -4-97.1008 145.734   8
  -3 -15   4 104.140 120.565  20
  -3 -15  -4 416.825 201.907  19
   3 -15   4 354.549 183.505  20
  -3 -15  -5 2105.20 326.312  19
   3  15  -5 1847.80 304.718   8
  -3 -15   5 2109.44 315.573  20
  -3 -15  -5 1834.11 280.831  18
   3  15  -6 128.400 106.787   8
  -3 -15   6-16.0615 96.5074  20
   3  15  -6 45.9982 90.4107   9
   3  15  -7 81.8816 92.3306   9
  -3 -15   7 104.435 110.024  20
   3  15  -7-67.6128 119.497   8
   3  15  -8 1933.10 302.090   9
   3  15  -8 2432.92 336.106   8
  -3  15  -9-192.516 120.123   8
   3 -15   9-104.376 120.585  20
   3  15  -9 156.825 115.360   8
   3  15  -9 191.667 124.791   9
   3 -15  10 160.478 107.604  20
   3  15 -10 286.211 133.244   9
   3  15 -10 236.307 110.230   8
  -3  15 -10 277.805 119.826   8
   3  15 -11 734.355 163.177   9
   3 -15  11 970.601 190.337  20
   3  15 -11 935.461 197.612   8
  -3  15 -11 1086.83 215.611   8
   3  15 -12 839.145 162.393   9
  -3  15 -12 920.774 180.371   8
   3  15 -12 824.518 172.625   8
   3 -16   0-73.5053 135.173  19
  -3 -16   0-1.56929 93.5777  19
   3 -16   0 154.643 141.037  20
   3 -16   1 255.871 125.187  19
  -3 -16   1 240.873 122.803  19
  -3 -16  -1 359.022 155.547  19
   3 -16   1 173.725 110.608  20
   3 -16  -1 25.6131 100.393  19
  -3 -16   2 699.162 196.867  19
   3 -16   2 655.342 199.217  19
   3 -16   2 748.468 211.449  20
  -3 -16  -2 850.733 240.325  19
   3 -16  -2 855.958 202.818  19
   3 -16   3 393.701 143.245  19
   3 -16  -3 328.751 142.921  19
  -3 -16  -3 19.0884 102.563  18
  -3 -16  -3 495.985 167.134  19
  -3 -16   3 204.349 124.542  19
   3  16  -3 234.070 138.916   8
   3 -16   3 178.286 129.727  20
  -3 -16  -4 232.191 156.395  19
  -3 -16   4 233.437 134.209  20
   3 -16   4 53.6323 109.202  20
  -3 -16  -4 141.923 104.786  18
   3  16  -4 209.871 140.104   8
  -3 -16   5 30.5595 96.7277  20
   3  16  -5 32.6778 97.3461   8
   3 -16   5 58.7794 118.181  20
   3 -16   6 181.927 130.784  20
  -3 -16   6 239.308 138.306  20
   3  16  -6 209.797 137.209   8
   3 -16   7 127.955 123.499  20
   3  16  -7 65.7483 94.5758   8
   3  16  -7 79.9255 101.648   9
   3 -16   8-56.1592 74.2925  19
   3 -16   8 128.241 101.679  20
   3  16  -8 132.242 108.752   9
   3  16  -8-34.6229 87.7815   8
   3 -16   9 139.486 87.0249  20
   3  16  -9 277.596 106.395   9
   3  16  -9 20.9378 81.9380   8
   3  16 -10-60.2406 81.9386   9
   3  16 -10 177.965 119.679   8
   3 -16  10 56.2913 84.0837  20
   3 -17   0-8.00202 92.3447  19
   3 -17   0 91.9338 129.180  20
  -3 -17   0 208.159 131.079  19
   3 -17   1 1071.52 216.139  20
  -3 -17  -1 1052.83 212.477  18
   3 -17  -1 1248.14 227.100  19
  -3 -17   1 1360.06 250.792  19
  -3 -17  -1 1279.68 236.398  19
   3 -17   1 1195.82 245.424  19
  -3 -17  -2 1580.09 259.707  18
  -3 -17  -2 1622.99 279.295  19
   3 -17  -2 1567.23 257.618  19
  -3 -17   2 1415.56 240.970  19
   3 -17   2 1590.15 264.785  20
   3 -17   2 1569.48 264.912  19
   3 -17   3 252.726 129.033  20
   3 -17   3 75.5703 111.767  19
  -3 -17  -3 174.037 135.444  19
  -3 -17   3 172.138 119.095  19
   3 -17  -3 150.244 121.875  19
  -3 -17  -3 176.985 115.866  18
   3 -17   4 1523.12 257.508  20
   3 -17   4 1187.54 216.590  19
  -3 -17  -4 1670.40 253.146  18
   3 -17   5 1125.75 216.892  20
   3 -17   5 1174.79 223.194  19
   3  17  -5 1254.65 218.438   8
   3  17  -6 202.598 117.251   8
   3 -17   6 253.910 109.768  20
   3 -17   6 301.224 121.281  19
   3 -17   7-35.2957 74.0047  20
   3  17  -7 8.34270 95.2614   8
   3 -17   7-37.7556 71.5501  19
   3 -17   8-181.917 100.226  20
   3  17  -8-152.015 99.5728   8
   3 -18   0 133.988 112.476  19
  -3 -18   0 151.917 102.997  18
  -3 -18   0 173.781 95.5445  19
  -3 -18   1 113.433 108.007  19
   3 -18  -1 341.389 138.726  19
  -3 -18  -1-71.4628 81.2341  18
  -3 -18  -1 202.536 132.147  19
   3 -18   1 128.750 103.647  19
  -3 -18   1 405.456 145.779  18
   3 -18   1 197.387 108.224  20
   3 -18   2 155.085 106.799  20
  -3 -18  -2 121.446 72.8929  18
   3 -18  -2 142.767 116.853  19
   3 -18   2-39.0018 84.6700  19
  -3 -18   2-35.1771 71.0290  19
  -3 -18   3 25.9684 65.9285  19
  -3 -18  -3-119.015 100.140  18
   3 -18   3-89.8874 85.5312  19
   3 -18   3 298.586 128.198  20
   3 -18  -3 200.647 110.828  19
   3 -18   4 11.6423 73.3275  20
   3 -18   4-69.3231 85.9288  19
   3 -18   5-32.6915 63.2742  19
   3 -18   5-80.6005 84.1610  20
   4   0   0 167989. 2041.54   4
   4   0  -1 56.4071 52.9080   4
  -4   0   2 82940.8 1511.90   4
   4   0  -2 80745.9 1463.45   4
   4   0   3 28.3866 43.1805   2
  -4   0   3-56.7181 82.7925   4
   4   0   4 36709.6 619.485   2
   4   0   5-43.1492 50.4630   2
  -4   0  -5 133.075 66.9882   5
   4   0   6 31611.7 651.440   2
  -4   0  -6 30293.5 552.758   5
  -4   0  -7 70.5843 53.8670   5
  -4   0  -8 129780. 1397.89   5
  -4   0  -9 94.4332 74.8459   5
  -4   0 -10 20626.2 631.611   5
  -4   0 -11 88.5416 76.2854   5
  -4   0 -12 3620.29 291.799   5
   4   0  13-113.522 91.0967   2
   4   0 -14 8496.27 608.247  12
   4   0  14 7209.03 483.368   2
  -4   0 -14 8596.83 633.897   7
  -4   0 -15-135.691 139.758   7
   4   0 -15 41.0122 105.992  12
   4   0 -16 3202.19 400.678  12
  -4   0 -16 3719.80 436.278   7
   4   0 -17 35.2703 100.715  12
  -4   0 -17-121.942 130.289   7
   4   0 -18 239.435 157.367  12
  -4   0 -18 223.223 146.097   7
  -4   0 -19 1.46077 93.2060  12
  -4   0 -20 620.028 146.177  12
   4  -1   0 10702.3 559.310   4
   4   1   0 10767.4 470.804   4
   4   1  -1 22897.9 681.428   4
   4  -1  -1 22947.6 806.076   4
  -4   1   2 19435.3 779.995   4
   4   1   2 18840.2 413.863   2
  -4  -1   2 19360.9 678.211   4
   4   1  -2 18633.4 639.960   4
   4  -1  -2 19664.9 783.078   4
  -4  -1   3 24861.7 814.328   4
  -4   1   3 24862.7 934.150   4
   4  -1   3 24526.2 470.107   2
   4   1   3 25030.3 497.013   2
  -4  -1  -4 25694.3 493.408   3
   4  -1   4 25754.1 508.721   2
   4   1   4 25292.5 525.505   2
  -4  -1   4 26148.8 929.057   4
  -4  -1  -5 3819.41 198.789   3
   4  -1   5 3471.13 201.166   2
   4   1   5 3748.14 214.209   2
  -4  -1  -6 4908.66 232.790   3
  -4   1  -6 4914.88 268.092   5
   4   1  -6 4911.63 242.806   5
   4   1   6 5098.15 263.222   2
   4   1  -7 35751.0 709.105   5
   4   1   7 37583.2 761.852   2
  -4  -1  -7 37928.6 675.810   5
  -4   1  -7 36356.0 675.980   5
   4   1  -8 3464.53 241.478   5
  -4   1  -8 3620.26 245.825   5
   4   1  -9 292.280 76.3653   5
  -4   1  -9 388.449 100.304   5
  -4   1 -10 13938.2 527.858   5
  -4   1 -11 847.814 158.164   5
   4   1  12 12810.4 603.738   2
  -4   1 -12 13877.1 590.290   5
  -4   1 -13 3682.17 313.955   5
   4   1  13 3986.01 349.771   2
  -4   1 -14 1975.62 302.674   7
   4   1 -14 2181.26 318.567  12
  -4   1 -14 1411.85 204.618   5
   4  -1 -14 1872.39 290.980  12
  -4  -1 -14 2483.56 348.966   7
  -4  -1 -15 1152.50 265.024   7
   4   1 -15 1007.12 227.173  12
   4  -1 -15 1048.33 228.184  12
  -4   1 -15 1080.04 246.753   7
  -4  -1 -16 270.024 136.606   7
   4   1 -16 353.057 166.091  13
   4   1 -16 206.862 134.466  12
   4  -1 -16 211.829 129.711  12
  -4   1 -16 329.571 201.289   7
   4  -1 -17 4927.31 479.768  12
   4   1 -17 5279.78 472.673  13
   4   1 -17 4935.32 484.686  12
  -4   1 -17 5332.50 496.815   7
  -4  -1 -17 5424.73 501.957   7
   4   1 -18 404.195 143.999  13
   4  -1 -18 529.640 205.054  12
  -4  -1 -18 400.305 138.813   7
  -4   1 -18 565.526 173.560   7
  -4   1 -19 208.548 125.803  12
  -4  -1 -19 413.326 158.725  12
   4   1 -19 243.116 90.8881  13
  -4   1 -20 371.670 113.841  12
  -4  -1 -20 409.465 135.945  12
   4  -2   0 38571.3 1153.79   4
   4   2   0 35673.1 728.397   4
   4   2  -1 122707. 1094.65   2
   4   2  -1 119687. 1366.40   4
   4   2   1 122327. 1087.88   2
   4  -2  -1 119275. 1988.53   4
   4  -2   1 124697. 2082.66   4
   4   2  -2 40212.9 646.396   2
  -4   2   2 40007.7 1185.90   4
   4   2   2 38722.1 620.313   2
  -4  -2   2 39058.4 868.212   4
   4   2   3 5591.73 244.264   2
  -4  -2   3 5689.14 364.460   4
  -4  -2  -4 7425.28 292.810   3
   4   2   4 7578.67 294.933   2
  -4  -2   4 7685.40 487.197   4
   4  -2   4 7499.63 273.828   2
   4  -2   5 15127.7 412.863   2
   4   2  -5 13628.4 362.221   5
   4   2   5 15001.8 438.458   2
  -4  -2  -5 14753.5 421.119   3
   4   2   6 4290.45 248.445   2
   4   2  -6 4262.86 226.376   5
  -4  -2  -6 4437.13 240.232   3
   4   2   7 47041.9 858.039   2
   4   2  -7 47170.5 812.808   5
  -4  -2  -7 47202.6 809.335   3
   4   2  -8 17336.2 535.828   5
   4   2   8 17307.7 555.755   2
  -4   2  -8 18852.1 545.518   5
   4   2  -9 33102.8 790.002   5
   4   2   9 34093.0 826.651   2
  -4   2  -9 33945.7 789.893   5
   4   2  10 414.263 112.819   2
   4   2 -10 298.371 75.1537   5
  -4   2 -10 635.725 146.056   5
   4   2 -11 1743.42 205.541   5
   4   2  11 1606.99 203.924   2
   4   2  12 1254.94 187.680   2
  -4   2 -12 1699.25 222.846   5
   4   2  13 3543.21 327.289   2
  -4   2 -13 3580.05 318.111   5
   4   2 -14 3184.82 382.380  12
   4  -2 -14 3382.73 388.982  12
  -4   2 -14 2930.78 367.065   7
  -4  -2 -14 3424.81 402.705   7
   4   2 -15 2823.34 379.897  12
   4  -2 -15 2600.11 350.714  12
  -4   2 -15 2589.55 353.764   7
  -4  -2 -15 2690.40 367.575   7
  -4  -2 -16 1079.88 251.305   7
  -4   2 -16 1197.95 254.536   7
   4  -2 -16 1091.50 246.198  12
   4   2 -16 1817.03 313.878  12
   4  -2 -17 760.354 230.980  12
   4   2 -17 778.514 191.952  13
  -4  -2 -17 594.197 166.448   7
   4   2 -17 630.089 201.758  12
  -4   2 -17 791.021 199.606   7
  -4   2 -18-155.862 119.812   7
   4  -2 -18 252.553 160.020  12
  -4   2 -18 51.7231 109.615  12
  -4   2 -18 118.950 94.9078  16
  -4  -2 -18 419.885 170.453   7
   4   2 -18-60.2392 108.965  13
   4   2 -19-63.4412 83.5221  13
  -4  -2 -19-165.674 124.803  12
  -4   2 -19 95.4466 87.1528  12
   4   2 -20 150.706 95.7543  13
  -4   2 -20 24.5316 60.3368  12
  -4  -2 -20 146.851 59.1259  12
   4   3   0 197507. 1353.74   4
   4   3   0 200642. 1432.23   2
   4   3  -1 26988.3 536.980   2
   4   3   1 27381.9 531.947   2
   4   3   1 26307.9 566.474   4
   4   3  -2 1318.15 130.035   2
   4   3   2 1254.33 126.192   2
   4   3   3 145363. 1269.31   2
  -4  -3  -3 144224. 1302.80   3
  -4  -3  -4 5747.17 276.628   3
   4  -3   4 6059.39 242.646   2
   4   3   4 5895.79 269.490   2
  -4  -3  -5 3235.88 216.051   3
   4   3   5 3334.02 215.946   2
  -4  -3  -6 2068.32 177.685   3
   4   3   6 2260.15 186.115   2
   4   3  -6 2011.09 154.063   5
   4   3  -7 59090.7 909.517   5
   4   3   7 61369.7 1007.09   2
  -4  -3  -7 61090.7 983.550   3
  -4  -3  -8 624.921 104.887   3
   4   3  -8 613.713 107.290   5
  -4  -3  -9 4614.42 304.265   3
   4   3   9 4358.38 303.300   2
   4   3  -9 4046.08 279.414   5
   4   3 -10 7768.83 408.124   5
   4   3  10 7624.91 418.748   2
   4   3 -11 2641.61 245.522   5
   4   3  11 2460.21 252.983   2
  -4   3 -11 1971.92 227.419   5
   4   3  12 84.6071 58.9285   2
   4   3 -12-26.0573 58.7113   5
  -4   3 -12-95.1304 92.1035   5
   4   3  13 4297.76 363.884   2
  -4   3 -13 4876.51 386.218   5
  -4  -3 -14-25.2982 103.339   7
   4   3 -14-80.7509 135.426  12
  -4   3 -14-6.80508 141.612   7
  -4   3 -15 1478.25 275.876   7
   4  -3 -15 1910.43 299.863  12
  -4  -3 -15 1648.82 297.809   7
   4   3 -15 1871.00 311.097  12
   4   3 -16 47.8016 137.254  12
   4  -3 -16 214.723 132.417  12
  -4  -3 -16 251.157 142.830   7
  -4   3 -16-92.5371 135.406   7
   4   3 -17 5355.73 490.193  13
   4  -3 -17 5693.80 495.582  12
  -4   3 -17 4860.13 473.792  16
  -4   3 -17 4851.93 465.575   7
  -4  -3 -17 5400.27 492.464   7
   4   3 -18 158.836 101.045  13
  -4   3 -18 232.742 106.696  12
  -4  -3 -18-45.9959 104.732   7
  -4   3 -18 210.532 116.464  16
  -4   3 -19 727.952 171.146  12
  -4  -3 -19 719.822 176.678  12
   4   3 -19 971.493 187.758  13
  -4   3 -19 891.895 192.259  16
   4   3 -20 165.363 96.3738  13
  -4  -3 -20 143.934 86.8073  12
  -4   3 -20 26.4868 64.6577  12
   4   4   0 63000.3 835.652   2
   4   4   0 62891.0 778.713   1
  -4  -4   0 62229.2 1453.79  21
   4   4  -1 79463.5 960.354   2
   4   4  -1 79011.0 857.115   1
  -4  -4  -1 79538.3 1789.98  21
   4   4   1 78280.7 945.958   2
   4   4  -2 58574.2 843.271   2
   4   4  -2 58864.7 748.449   1
   4   4   2 57287.1 818.668   2
  -4  -4  -3 52536.3 861.092   3
   4   4  -3 55381.8 757.471   1
   4   4   3 53017.5 804.914   2
  -4  -4  -4 11675.3 419.056   3
   4   4   4 11021.3 380.453   2
  -4  -4  -5 12223.2 438.228   3
   4   4   5 12785.9 424.472   2
  -4  -4  -6 22538.7 613.468   3
   4   4   6 22381.1 590.980   2
  -4  -4  -7 22773.7 643.014   3
   4   4   7 23171.3 635.599   2
   4   4   8 10284.5 447.079   2
  -4  -4  -8 9997.87 444.111   3
   4   4   9 22363.8 699.945   2
  -4  -4  -9 23419.5 724.094   3
   4   4 -10 4401.41 307.446   5
   4   4  10 4506.05 332.269   2
  -4  -4 -10 4601.21 341.089   3
   4   4  11 462.064 125.154   2
   4   4 -11 383.680 97.2834   5
  -4   4 -12-112.001 135.490   5
   4   4 -12 12.5618 56.1297   5
   4   4 -13 4451.76 436.536  12
   4   4 -13 3424.90 323.468   5
  -4   4 -13 4236.45 370.093   5
   4   4  13 4006.60 360.543   2
   4   4 -13 4323.90 431.782  16
  -4  -4 -14-27.0266 111.766   7
   4   4 -14 169.510 136.898  12
   4   4 -14 246.739 141.741  16
  -4   4 -14 57.8189 97.3991   7
  -4  -4 -15 2392.25 337.913   7
   4   4 -15 2661.09 355.730  16
   4   4 -15 2939.73 376.573  12
  -4   4 -15 2562.18 342.354   7
   4   4 -16 2127.69 321.198  16
  -4   4 -16 1815.52 298.251   7
  -4  -4 -16 1794.92 288.838   7
  -4  -4 -17 1768.42 279.113   7
   4   4 -17 1807.56 281.855  13
  -4   4 -17 1664.33 266.625   7
  -4   4 -17 1503.85 267.538  16
   4   4 -18 772.888 187.716  13
  -4   4 -18 772.479 193.858  16
   4   4 -19 8.18390 87.8791  13
  -4  -4 -19-52.4956 76.2966  12
   4   4 -20 107.386 79.1294  13
   4   5   0 35383.3 646.903   1
   4   5   0 34755.2 651.253   2
   4   5  -1 1107.72 123.943   2
   4   5  -1 1069.24 114.132   1
   4   5   1 1137.83 123.151   2
  -4  -5  -2 7522.36 343.827   3
   4   5  -2 7699.60 301.885   1
   4   5   2 7482.00 308.402   2
   4   5  -3 4616.74 241.543   1
  -4  -5  -3 4426.94 269.282   3
   4   5   3 4081.99 235.560   2
  -4  -5  -4 13863.2 487.443   3
   4   5   4 14224.6 447.151   2
  -4  -5  -5 3974.53 262.032   3
   4   5   5 4103.72 247.099   2
   4   5   6 22294.3 605.617   2
  -4  -5  -6 21863.2 644.442   3
  -4  -5  -7 92.4379 59.0767   3
   4   5   7 129.794 58.0327   2
  -4  -5  -8 479.628 124.044   3
   4   5   8 417.725 95.5895   2
  -4  -5  -9-48.3592 67.0698   3
   4   5   9-31.6789 58.4514   2
   4   5  10 39826.7 1000.23   2
  -4  -5 -10 41025.5 1056.50   3
   4   5  11 75.3616 66.6633   2
  -4  -5 -11 134.188 79.6275   3
   4   5  12 5282.57 400.067   2
  -4   5 -12 5828.45 417.825   5
   4   5 -13 535.921 171.038  12
   4   5 -13 618.856 185.944  16
  -4   5 -14 839.934 208.542   7
   4   5 -14 1170.54 246.501  16
  -4   5 -15 529.591 186.453   7
   4   5 -15 410.591 161.309  16
  -4   5 -16 371.100 165.849   7
   4   5 -16 724.875 204.822  13
   4   5 -16 631.716 197.289  16
  -4   5 -16 809.578 223.681  16
   4   5 -17-23.8748 95.3003  13
   4   5 -17-78.2505 119.868  16
  -4   5 -17 6.63670 108.836  16
   4   5 -18 787.348 194.195  16
   4   5 -18 552.411 159.729  13
  -4   5 -18 548.884 155.535  16
   4   5 -19 99.7838 107.677  13
  -4  -5 -19 27.8614 83.1320  12
   4   5 -19 94.0383 78.8519  14
  -4   5 -19 244.632 115.060  16
   4   6   0 128753. 1299.53   2
   4   6   0 128584. 1345.18   1
   4   6   1 286.687 60.1301   2
   4   6  -1 391.248 77.8910   1
   4   6   1 438.833 87.1338   1
   4   6  -1 407.794 82.3886   2
  -4  -6  -2 79548.0 1178.55   3
   4   6  -2 80395.4 1072.42   1
  -4  -6  -3 349.748 108.582   3
   4   6  -3 331.735 94.5003   1
  -4  -6  -4 5731.36 329.689   3
  -4  -6  -5 78.8627 89.5132   3
  -4  -6  -6 54403.3 1079.93   3
  -4  -6  -7 946.718 154.401   3
  -4  -6  -8 27350.4 803.125   3
  -4   6  -9 31002.2 913.342   5
  -4  -6  -9 4695.76 361.006   3
  -4   6 -10 19291.3 677.155   5
  -4  -6 -10 3699.04 335.062   3
  -4   6 -11 6074.75 422.460   5
  -4  -6 -11-31.1633 78.9933   3
  -4   6 -12 2432.67 308.461   5
   4   6 -12 337.690 166.528  16
   4   6 -13 1373.75 256.552  16
   4   6 -14 2114.24 338.712  16
   4   6 -15 509.581 188.734  16
  -4   6 -15 250.186 142.828  16
   4   6 -16 2962.83 355.785  13
   4   6 -16 2725.22 364.724  16
  -4   6 -16 2842.91 378.132  16
   4   6 -17-23.8842 114.781  16
  -4   6 -17 17.7276 110.153  16
   4   6 -17 22.9970 97.0405  13
   4   6 -18 334.840 121.502  16
   4   6 -18 276.480 122.709  13
  -4   6 -18 415.994 150.682  16
   4   6 -19 86.4397 88.7935  11
   4   6 -19 100.118 72.1167  13
  -4   6 -19-100.491 64.9542  16
   4   6 -19 259.354 103.552  14
  -4  -7   0 4206.80 305.942   3
   4   7   0 3203.43 236.029   1
  -4  -7  -1 19915.0 612.313   3
   4   7   1 18549.4 564.606   1
   4   7  -1 18241.7 555.085   1
  -4  -7  -2 6419.45 354.809   3
   4   7   2 6520.84 349.282   1
   4   7  -2 6633.53 338.696   1
   4   7  -3 62021.8 1042.73   1
  -4  -7  -3 61981.9 1122.81   3
  -4  -7  -4 1475.17 173.074   3
  -4  -7  -5 120.425 65.4267   3
  -4  -7  -6 2150.27 225.277   3
  -4  -7  -7 23066.5 768.820   3
  -4  -7  -8 3048.76 286.432   3
  -4  -7  -9 9833.01 540.760   3
  -4   7  -9 39051.2 1063.35   5
  -4   7 -10 19598.4 706.860   5
  -4  -7 -10 1816.41 242.588   3
  -4   7 -11 11930.3 610.115   5
  -4  -7 -11 2613.96 289.880   3
   4   7 -12 203.231 154.200  16
   4   7 -13 4459.17 476.581  16
   4   7 -14 259.030 118.021  16
  -4   7 -14 132.087 155.143  16
   4   7 -15 40.6202 93.8298  13
  -4   7 -15 9.77370 109.471  16
   4   7 -15-152.344 120.539  16
   4   7 -16 28.9150 97.0811  13
   4   7 -16-27.1534 131.622  16
  -4   7 -16-6.73452 105.339  16
   4   7 -17 1623.39 268.333  16
  -4   7 -17 1439.29 242.610  16
   4   7 -17 1556.82 249.233  13
   4   7 -18 379.246 122.470  13
   4   7 -18 379.951 137.520  16
  -4   7 -18 396.178 138.003  16
   4   7 -19 372.283 115.286  13
  -4   7 -19 485.946 131.388  16
  -4  -8   0 26293.3 738.268   3
   4   8   0 25870.1 711.534   1
  -4  -8  -1 26580.4 749.679   3
  -4  -8   1 27004.5 738.706   3
   4   8   1 25469.2 715.831   1
   4   8  -1 25656.2 711.509   1
  -4  -8  -2 748.394 137.976   3
   4   8  -2 726.857 137.490   1
   4   8   2 911.464 144.539   1
   4   8  -3 2319.63 226.482   1
  -4  -8  -3 2556.18 238.995   3
   4   8   3 2697.49 247.620   1
  -4  -8  -4 3724.42 292.834   3
  -4  -8  -5 5809.58 379.230   3
  -4  -8  -6 3942.53 328.651   3
  -4  -8  -7 22632.9 795.215   3
  -4  -8  -8 1043.64 185.250   3
  -4  -8  -9 20448.4 838.885   3
  -4   8  -9 46330.9 1184.61   5
  -4  -8 -10 232.841 100.998   3
  -4   8 -10 21084.2 750.546   5
   4   8 -11 419.557 165.383  16
   4   8 -12 129.557 146.506  16
   4   8 -13 3075.74 369.597  13
   4   8 -13 3480.82 415.233  16
  -4   8 -13 3451.69 419.593  16
   4   8 -14 319.035 130.938  13
   4   8 -14 82.4217 118.896  16
  -4   8 -14 343.543 147.057  16
   4   8 -15 2302.09 320.320  13
   4   8 -15 2548.38 352.693  16
  -4   8 -15 2281.56 322.795  16
   4   8 -16 107.273 94.1445  13
   4   8 -16 180.645 136.199  16
  -4   8 -16-71.8275 88.7820  16
   4   8 -17 391.629 123.567  13
  -4   8 -17 230.208 115.251  16
   4   8 -17 339.833 143.443  16
   4   8 -18 33.9281 62.2755  13
  -4   8 -18 121.894 92.9431  16
  -4  -9   0 37976.1 924.248   3
   4   9   0 36866.9 920.574   1
  -4  -9  -1 1575.22 187.003   3
   4   9   1 1588.68 194.876   1
   4   9  -1 1590.67 182.889   1
   4   9  -2 895.001 153.572   1
  -4  -9  -2 609.848 117.830   3
   4   9   2 925.947 156.109   1
   4   9   3 14436.6 604.238   1
   4   9  -3 14642.6 587.881   1
  -4  -9  -3 13798.3 589.677   3
  -4  -9  -4 6448.51 415.397   3
   4   9   4 6293.99 416.574   1
  -4  -9  -5 834.684 162.722   3
  -4  -9  -6 10825.6 568.695   3
  -4  -9  -7 8381.59 507.369   3
  -4  -9  -8 1679.67 245.390   3
  -4  -9  -9 881.387 187.100   3
  -4   9  -9 43717.3 1224.24   5
   4   9 -10 8592.21 622.593   8
   4   9 -10 8471.50 618.698  16
   4   9 -11-57.0614 96.9090  16
  -4   9 -11 22.9360 110.795  16
   4   9 -11-20.7575 106.274   8
  -4   9 -12 2575.94 361.875  16
   4   9 -12 2442.07 349.863  16
   4   9 -13-21.9313 115.391  16
  -4   9 -13-102.054 99.5978  16
   4   9 -14 211.225 153.185  16
  -4   9 -14 278.347 142.653  16
   4   9 -14 388.510 153.411  13
   4   9 -15 738.596 167.068  13
   4   9 -15 1086.13 226.601  16
  -4   9 -15 744.620 182.707  16
   4   9 -16 1250.96 216.950  13
   4   9 -16 1341.92 246.007  16
  -4   9 -16 1118.79 217.221  16
   4   9 -17 336.918 119.853  13
  -4   9 -17 412.632 142.633  16
  -4   9 -17 601.717 165.754   8
   4   9 -18-26.3828 53.7485  14
   4  10   0 210.870 87.1334   1
  -4 -10  -1 3839.91 305.842   3
   4  10   1 4214.92 338.600   1
   4  10  -1 3778.56 322.389   1
   4  10  -2 4424.55 347.607   1
   4  10   2 4755.97 360.264   1
  -4 -10  -2 4614.12 356.328   3
   4  10   3 6705.27 436.730   1
  -4 -10  -3 6400.45 422.321   3
  -4 -10  -4 95.1050 90.1655   3
   4  10   4-74.0554 64.1967   1
  -4 -10  -5 914.294 171.954   3
   4  10   5 945.518 181.211   1
   4  10   6 5404.49 427.908   1
  -4 -10  -6 5178.14 405.926   3
   4  10   7 6225.04 478.125   1
  -4 -10  -7 6726.59 487.795   3
  -4 -10  -8 4888.81 435.117   3
   4  10  -9 2077.78 317.708  16
   4  10  -9 2267.02 338.354   8
   4  10 -10 1618.99 292.018  16
   4  10 -10 1469.93 278.114   8
   4  10 -11 101.531 124.866  16
   4  10 -11-128.911 110.694   8
   4  10 -12 300.244 150.434  16
   4  10 -12 201.949 152.861   8
   4  10 -13 1117.19 241.108  16
  -4  10 -13 1220.15 234.125  16
   4  10 -13 1192.00 226.825   8
  -4  10 -14 1474.97 265.385  16
   4  10 -14 1269.24 254.043  16
   4  10 -15 530.874 167.422  16
  -4  10 -15 674.597 180.932  16
  -4  10 -15 628.669 208.651   8
   4  10 -16 1044.32 192.317   9
  -4  10 -16 822.809 186.319  16
  -4  10 -16 1239.74 235.360   8
  -4  10 -17 141.405 95.3776  16
  -4  10 -17 204.347 110.491   8
   4  11   0 11541.3 588.175   1
   4  11  -1 5950.71 426.051   1
   4  11   1 5399.57 409.091   1
   4  11   2-40.1895 92.3156   1
   4  11  -2 124.248 107.186   1
   4  11   3 14782.3 692.344   1
  -4 -11  -3 15410.5 684.710   3
  -4 -11  -4 3728.10 348.240   3
   4  11   4 4043.24 367.545   1
  -4 -11  -5 486.857 142.289   3
   4  11   5 509.743 149.261   1
  -4 -11  -6 1165.34 215.353   3
   4  11   6 1235.10 215.084   1
   4  11  -7 4247.78 454.208   8
  -4 -11  -7 4675.73 432.500  18
   4  11  -8 1326.64 275.961   8
   4  11  -9 344.265 148.956   8
   4  11  -9 315.988 137.198  16
   4  11 -10 5395.13 511.738   8
   4  11 -10 4392.19 458.505  16
   4  11 -11 70.9993 131.156   8
   4  11 -11 55.2904 97.7091  16
   4  11 -12 1832.43 303.715   8
   4  11 -12 1457.36 272.544  16
   4  11 -13 1464.73 255.819   8
   4  11 -13 1446.70 264.770  16
  -4  11 -13 1421.13 283.684   8
   4  11 -14 702.924 188.825  16
  -4  11 -14 959.502 215.711   8
   4  11 -15-104.473 114.872   9
  -4  11 -15 15.5647 72.3289  16
  -4  11 -15 103.100 107.092   8
  -4  11 -16 252.627 102.305   8
   4  11 -16 260.638 95.9748   9
  -4  11 -16-20.3133 77.8439  16
   4  12   0 9575.24 572.977   1
   4  12  -1 3123.91 330.017   1
   4  12   1 2916.68 318.799   1
   4  12   2 2813.49 315.027   1
   4  12   3 136.983 65.4501   1
   4  12   4 359.698 137.672   1
  -4 -12   4 112.322 85.9385  20
   4  12  -4 278.186 123.699   9
  -4 -12  -4 181.392 115.844  19
   4  12  -4 130.287 150.509   8
   4  12  -5 2073.51 307.199   9
  -4 -12  -5 2279.96 320.798  18
  -4 -12   5 2261.21 314.295  20
   4  12  -5 2453.09 353.879   8
  -4 -12  -5 2144.31 321.603  19
  -4 -12  -6 3105.15 366.284  18
  -4 -12  -6 2867.86 383.643  19
   4  12  -6 2469.21 334.521   9
   4  12  -6 3168.36 389.596   8
   4  12  -7 0.93997 113.425   8
  -4 -12  -7-87.4497 126.917  18
  -4  12  -8 5993.00 552.170   8
   4  12  -8 5631.10 524.884   8
   4  12  -9 0.47118 120.108   8
  -4  12  -9 98.6969 137.758   8
   4  12 -10 1333.95 273.913   8
  -4  12 -10 1224.68 269.552   8
   4  12 -11 117.870 142.159   8
  -4  12 -11 7.73614 136.541   8
   4  12 -12 915.509 216.930   8
  -4  12 -12 467.232 177.515   8
   4  12 -13-158.884 117.448   9
   4  12 -13-56.2225 104.664   8
  -4  12 -13 142.092 136.898   8
   4  12 -14 1398.29 224.735   9
   4  12 -14 1417.98 232.096   8
  -4  12 -14 1352.04 254.958   8
   4  12 -15 91.3594 89.6050   9
  -4  12 -15-45.7664 73.4049   8
  -4 -13   0 1827.99 294.849  20
   4  13   0 1766.16 279.968   8
  -4 -13   0 1759.07 287.606  19
  -4 -13   1 74.0198 103.400  20
  -4 -13  -1-134.499 127.109  19
   4  13  -1-86.8561 101.184   8
  -4 -13   1-152.921 150.009  19
  -4 -13   2 1082.52 247.173  20
  -4 -13  -2 1099.46 250.561  19
  -4 -13   2 1027.32 215.013  19
   4  13  -2 902.686 215.435   8
   4  13  -3 8219.78 618.981   8
  -4 -13   3 7631.17 583.840  20
  -4 -13  -3 7346.69 580.931  19
   4  13  -3 7743.92 578.651   9
   4  13  -4-29.6411 107.712   9
  -4 -13   4 231.390 122.685  20
  -4 -13  -4 16.5688 120.077  19
  -4 -13  -4 353.407 165.203  18
   4  13  -4 52.7297 148.729   8
  -4 -13   5 122.610 101.902  20
  -4 -13  -5 718.367 205.072  18
   4  13  -5 547.556 185.878   9
  -4 -13  -5 577.813 204.197  19
   4  13  -5 268.613 151.884   8
  -4 -13  -6 895.935 208.500  18
   4  13  -6 962.556 249.886   9
   4  13  -6 993.360 241.988   8
   4  13  -7 4038.68 452.764   8
  -4 -13  -7 3497.72 394.088  18
   4  13  -7 3659.35 410.880   9
   4  13  -8 235.758 147.096   9
   4  13  -8 352.636 177.768   8
   4  13  -9 257.566 144.184   9
   4  13  -9 191.861 114.171   8
  -4  13  -9 375.368 164.952   8
   4  13 -10 798.607 224.525   9
   4  13 -10 601.316 196.729   8
  -4  13 -10 406.881 184.471   8
   4  13 -11 38.0327 133.964   9
   4  13 -11 111.310 116.415   8
  -4  13 -11 22.8628 110.969   8
   4  13 -12 156.355 127.158   9
   4  13 -12 56.9177 91.6877   8
  -4  13 -12-14.2997 96.1537   8
   4  13 -13 588.023 151.188   9
   4  13 -13 885.396 186.839   8
  -4  13 -13 665.806 180.481   8
   4  13 -14-142.882 103.810   9
   4  13 -14 153.903 100.250   8
  -4  13 -14-41.1978 85.9960   8
  -4 -14   0 104.554 143.200  19
   4 -14   0 283.575 166.133  20
  -4 -14   1 4232.21 434.974  19
   4  14  -1 4187.43 445.226   8
  -4 -14  -1 3831.06 423.935  19
   4 -14  -2-16.1915 108.417  19
  -4 -14  -2 11.7113 145.774  19
  -4 -14   2 294.388 175.527  20
  -4 -14   2-87.2280 105.141  19
   4  14  -2 25.6994 115.503   8
  -4 -14   3 461.847 200.161  20
  -4 -14  -3 341.543 163.223  19
   4 -14  -3 184.378 113.194  19
   4  14  -3 580.773 191.678   8
  -4 -14  -4 200.159 110.579  18
   4  14  -4 200.883 135.427   9
  -4 -14   4 82.3429 119.398  20
   4  14  -4 267.465 186.118   8
  -4 -14  -4 13.6216 107.530  19
  -4 -14  -5 1636.59 284.744  18
  -4 -14  -5 1999.42 336.432  19
  -4 -14   5 2088.65 312.597  20
   4  14  -5 1760.66 293.275   8
   4  14  -5 1873.46 304.080   9
  -4 -14  -6 15.2646 121.264  18
   4  14  -6 100.292 107.115   9
   4  14  -6-99.1174 110.622   8
   4  14  -7 2679.70 384.812   8
   4  14  -7 2245.71 344.136   9
   4  14  -8 78.1037 103.410   9
   4  14  -8 34.4677 124.770   8
   4  14  -9 1396.88 256.710   9
   4  14  -9 1907.34 297.214   8
  -4  14  -9 1554.74 277.887   8
   4  14 -10 386.196 165.477   8
  -4  14 -10 258.854 135.371   8
   4  14 -10 402.684 173.877   9
   4  14 -11 109.500 97.0453   9
   4  14 -11-21.7408 95.4102   8
  -4  14 -11-124.725 126.651   8
   4  14 -12 12.7380 80.9557   8
  -4  14 -12-57.7701 112.612   8
   4  14 -12 95.2272 97.1579   9
   4  14 -13 522.369 142.932   8
  -4  14 -13 346.842 127.757   8
   4  14 -13 374.841 124.864   9
   4 -15   0 3743.04 423.070  20
  -4 -15   0 3837.98 429.600  19
   4 -15   1 1115.39 243.130  20
  -4 -15  -1 1213.21 254.090  19
   4 -15  -1 1055.72 227.161  19
  -4 -15   1 970.258 233.687  19
   4 -15   2 116.281 127.994  20
  -4 -15   2 116.088 125.511  19
   4  15  -2-169.120 156.503   8
  -4 -15  -2-29.8762 109.936  19
   4 -15  -2-238.672 130.812  19
   4 -15  -3-77.4603 128.630  19
  -4 -15  -3 14.6399 117.653  19
  -4 -15   3 142.146 115.809  19
   4  15  -3 62.0680 126.046   8
  -4 -15  -3 21.9254 104.441  18
   4 -15   3 240.867 142.127  20
  -4 -15  -4 1086.54 225.182  18
  -4 -15  -4 1603.40 301.022  19
   4  15  -4 1364.81 269.023   8
   4  15  -5-29.5824 126.498   9
   4  15  -5 19.1901 119.979   8
  -4 -15  -5-85.7132 119.330  18
   4  15  -6 1980.86 298.480   9
  -4 -15  -6 2005.09 302.670  18
   4  15  -6 1935.67 311.780   8
   4  15  -7 180.471 126.413   9
   4  15  -7 264.410 143.462   8
   4  15  -8 37.0161 109.768   9
   4  15  -8-72.0081 134.054   8
   4  15  -9 466.098 149.116   8
   4  15  -9 292.138 135.517   9
   4  15 -10 1990.03 288.948   8
   4  15 -10 1713.24 260.769   9
   4  15 -11 248.064 93.5684   8
  -4  15 -11 356.304 140.537   8
   4 -15  11 135.548 99.8297  20
   4  15 -11 231.759 108.480   9
   4  15 -12 42.0374 66.6477   9
   4  15 -12 2.22097 63.9936   8
   4 -16   0 2636.39 344.252  19
  -4 -16   0 2968.36 365.092  19
   4 -16  -1 1165.39 230.861  19
  -4 -16  -1 1333.10 264.900  19
   4 -16   1 1308.93 259.426  20
   4 -16   1 1193.11 238.694  19
  -4 -16   1 1079.58 225.678  19
   4 -16   2 798.642 217.247  19
   4 -16   2 906.990 235.084  20
  -4 -16  -2 969.722 250.682  19
  -4 -16   2 705.256 181.328  19
   4 -16  -2 727.138 206.738  19
  -4 -16  -2 928.457 217.557  18
  -4 -16  -3 40.4902 148.881  19
  -4 -16   3-96.2411 96.2996  19
   4 -16  -3-31.7232 112.880  19
  -4 -16  -3-82.8125 100.243  18
   4 -16   3-41.2813 99.8366  20
   4  16  -4 298.970 146.110   8
  -4 -16  -4 231.030 135.710  18
   4 -16   4-7.71207 102.581  20
  -4 -16  -5 265.627 127.200  18
   4  16  -5 26.4555 99.1952   8
   4 -16   5 167.104 121.472  20
   4  16  -6 1543.57 259.056   8
   4 -16   6 1455.11 262.097  20
   4  16  -6 1586.84 250.519   9
   4  16  -7 444.278 155.932   8
   4  16  -7 667.682 179.423   9
   4 -16   7 595.401 182.188  20
   4  16  -8 488.143 148.344   9
   4 -16   8 356.755 139.165  20
   4  16  -8 461.764 170.909   8
   4  16  -9-45.7782 92.9256   9
   4  16  -9-58.7058 76.2260   8
   4 -16   9-40.7267 74.7130  20
   4 -16  10 35.5840 64.7492  20
   4  16 -10 263.428 105.622   8
   4  16 -10 198.021 101.437   9
   4 -17   0 303.323 122.571  19
  -4 -17   0 351.384 146.247  18
  -4 -17   0 271.558 145.089  19
  -4 -17  -1 1113.91 238.740  19
  -4 -17  -1 1005.08 207.014  18
  -4 -17   1 838.557 187.153  19
   4 -17  -1 795.563 187.080  19
   4 -17   1 1154.90 235.309  20
   4 -17   1 1232.37 233.869  19
   4 -17   2 81.6413 90.4729  19
   4 -17   2-16.7050 92.0463  20
   4 -17  -2 336.264 154.833  19
  -4 -17  -2 240.426 118.267  18
  -4 -17   2 29.8747 84.6739  19
   4 -17   3 1315.78 240.132  20
   4 -17   3 1424.02 244.768  19
  -4 -17  -3 1200.75 222.994  18
   4 -17   4 47.3164 93.2059  20
  -4 -17  -4 179.777 125.823  18
   4 -17   4 167.520 110.082  19
  -4 -17  -5 97.3643 86.3335  18
   4 -17   5-110.392 86.5347  20
   4 -17   5-70.5030 91.4285  19
   4 -17   6-53.2289 86.8384  20
   4 -17   6-159.453 105.994  19
   4 -17   7 544.860 158.386  20
   4 -17   7 394.816 131.223  19
   4 -17   8 121.954 78.8555  20
   4 -18   0 510.688 150.208  19
  -4 -18   0 580.896 151.983  18
  -4 -18   1 425.508 152.810  18
  -4 -18  -1 233.064 116.377  18
   4 -18   1 237.911 107.682  20
   4 -18  -1 242.344 113.191  19
   4 -18   1 260.979 132.469  19
  -4 -18   2 4.82090 75.4945  18
  -4 -18  -2 146.410 104.908  18
   4 -18   2 211.075 122.726  20
   4 -18  -2 261.709 121.043  19
   4 -18   2 91.3841 87.2633  19
  -4 -18  -3-66.7824 77.9773  18
   4 -18   3-46.1449 72.8260  20
   4 -18   3 127.521 94.2492  19
   4 -18   4 116.735 97.5480  20
   4 -18   4-42.0544 63.6235  19
   4 -18   5-19.7630 71.0909  19
   5   0   0-21.6504 55.3653   4
   5   0   0-9.75785 44.4583   2
   5   0   1 59.4674 50.7619   2
   5   0  -1 73.7242 47.9052   2
   5   0  -1-22.5071 55.8789   4
   5   0   1 69.1206 71.4421   4
   5   0   2 378.195 79.0526   2
   5   0  -2 270.753 108.694   4
  -5   0   2 191.327 87.1524   4
   5   0  -2 326.458 72.2601   2
   5   0   3 51.7792 47.5193   2
   5   0   4 111708. 1189.19   2
   5   0   5-2.13336 55.3912   2
   5   0   6 56978.2 942.251   2
   5   0   7 68.4171 63.7869   2
   5   0   8 8051.20 393.015   2
   5   0   9-7.38647 60.7872   2
   5   0  10 590.657 137.723   2
   5   0  11-11.3404 78.3365   2
   5   0  12 795.809 164.161   2
   5   0  13-51.7539 65.7301   2
   5   0 -14 5346.85 481.351  13
  -5   0 -14 4994.38 506.322   7
   5   0 -14 4780.29 474.354  12
   5   0 -15 95.1145 134.984  13
  -5   0 -15 126.636 103.411   7
   5   0 -15-40.0540 120.858  12
  -5   0 -16 269.630 136.459   7
   5   0 -16 421.026 170.076  12
  -5   0 -17 117.241 118.609   7
  -5   0 -18 1250.88 253.543   7
  -5   0 -19 55.0992 95.6644  12
  -5   0 -19 88.0960 92.7689   7
  -5   0 -20-163.860 105.931  12
   5   1   0 18.8621 46.9291   2
   5  -1   0-1.20031 40.0814   2
   5   1   0 43.0956 45.6289   4
   5  -1  -1 35281.2 599.495   2
   5  -1   1 35770.3 602.843   2
   5   1  -1 33682.1 947.524   4
   5   1   1 35826.6 640.164   2
   5   1  -1 35030.9 632.884   2
   5   1   1 34955.9 993.056   4
   5   1  -2 4852.63 244.061   2
   5  -1  -2 4912.84 231.271   2
   5   1   2 4612.15 239.536   2
   5  -1   2 4970.17 231.700   2
   5   1  -2 4648.00 366.155   4
  -5  -1   2 4721.77 372.890   4
   5   1   3 8699.21 325.559   2
  -5  -1   3 9152.23 565.787   4
   5  -1   3 8885.89 315.959   2
   5   1   4 143405. 1368.71   2
   5  -1   4 142778. 1322.75   2
   5  -1   5-52.2024 50.3220   2
   5   1   5 24.1864 59.6117   2
  -5  -1  -5 10.8821 40.8898   3
   5  -1   6 28887.7 658.816   2
   5   1   6 28945.0 675.632   2
   5  -1   7 20311.4 584.022   2
   5   1   7 20440.9 598.697   2
  -5   1  -7 19880.7 501.925   5
   5  -1   8 24455.3 675.593   2
   5   1   8 23760.0 679.965   2
  -5   1  -8 23311.3 598.345   5
   5  -1   9-45.6260 81.5823   2
   5   1   9 8.53219 73.1207   2
  -5   1  -9 169.176 90.2299   5
  -5   1 -10 6808.96 364.268   5
   5  -1  10 7017.85 405.856   2
   5   1  10 7161.55 414.967   2
   5  -1  11 21173.9 750.176   2
   5   1  11 21315.0 759.226   2
  -5   1 -11 21086.1 691.885   5
   5  -1  12 736.983 153.216   2
   5   1  12 827.934 160.862   2
   5  -1  13 253.071 91.0164   2
   5   1  13 293.843 122.862   2
   5   1 -14 11022.4 694.602  13
   5   1 -14 10736.8 695.956  12
   5  -1 -14 11201.3 704.616  12
  -5  -1 -14 10758.4 710.388   7
  -5   1 -14 10675.2 705.973   7
   5   1 -15 2066.68 314.714  13
  -5  -1 -15 2213.94 335.373   7
   5   1 -15 2097.05 334.938  12
  -5   1 -15 2008.42 316.759   7
   5  -1 -15 1950.13 317.649  12
   5   1 -16 76.0434 136.031  13
   5  -1 -16 47.0907 98.5317  12
  -5   1 -16-57.5197 106.517   7
   5   1 -16-46.6099 103.103  12
  -5  -1 -16 159.081 120.956   7
  -5  -1 -17 299.209 150.362   7
   5   1 -17 140.787 123.790  13
  -5   1 -17 301.252 166.434   7
   5   1 -18 6215.11 480.781  13
  -5   1 -18 5784.16 498.153   7
  -5  -1 -18 5886.64 493.412   7
  -5   1 -19-88.1587 93.0367  12
  -5  -1 -19 66.5943 94.9243   7
  -5   1 -20 102.007 72.8526  12
  -5  -1 -20 98.8603 75.1620  12
   5   2   0-31.6733 46.0018   2
   5   2   0 7.26169 36.6357   4
   5   2  -1 78038.8 970.562   2
   5   2  -1 75505.9 1286.45   4
   5   2   1 77659.0 1353.18   4
   5   2   1 77562.7 969.446   2
   5   2  -2 2987.51 198.342   2
   5   2   2 3001.06 195.935   2
   5  -2   2 2987.05 178.628   2
   5   2   3 43116.4 752.562   2
   5  -2   3 42662.6 679.993   2
  -5  -2  -4 25984.2 574.216   3
   5   2   4 27021.6 608.086   2
   5  -2   4 27387.9 571.914   2
  -5  -2  -5 3208.05 214.815   3
   5  -2   5 3606.67 223.920   2
   5   2   5 3257.87 226.555   2
  -5  -2  -6 7621.38 332.482   3
   5  -2   6 7945.37 339.994   2
   5   2   6 7898.03 360.656   2
   5   2   7 341.733 101.064   2
  -5  -2  -7 293.545 81.0246   3
   5  -2   8-39.2676 79.3498   2
   5   2   8-44.7528 66.7281   2
   5  -2   9 2580.64 233.374   2
   5   2   9 2635.64 246.963   2
   5  -2  10 30.6342 56.5793   2
   5   2  10 155.288 97.0695   2
  -5   2 -11 14510.0 590.593   5
   5  -2  11 16244.4 649.979   2
   5   2  11 16616.9 673.912   2
   5  -2  12 136.917 76.4462   2
   5   2  12 90.9357 67.1101   2
  -5   2 -12 237.374 111.070   5
   5  -2  13 135.644 93.6058   2
   5   2  13 176.944 93.9198   2
  -5   2 -13 179.939 96.6186   5
   5   2 -14 14.1853 105.974  13
  -5   2 -14 154.832 133.362   7
  -5  -2 -14 267.242 141.135   7
   5   2 -14 332.237 191.813  12
   5  -2 -14 390.151 178.688  12
   5   2 -15 646.468 195.105  13
  -5   2 -15 724.798 207.597   7
  -5  -2 -15 1085.87 252.258   7
   5  -2 -15 879.416 218.271  12
   5   2 -15 659.953 196.487  12
  -5   2 -16-7.21840 105.363   7
   5   2 -16-75.2338 100.365  13
   5  -2 -16 318.377 162.024  12
  -5  -2 -16 278.551 140.219   7
  -5   2 -17 449.373 177.116   7
   5   2 -17 269.188 125.293  13
  -5  -2 -17 480.481 183.958   7
   5   2 -18 206.549 112.017  13
  -5   2 -18-24.0085 111.488   7
  -5  -2 -18 107.801 132.587   7
  -5   2 -18 254.314 131.895  16
  -5   2 -19-98.4472 97.2297  12
  -5   2 -19-101.861 97.2711  16
   5   2 -19 15.1005 79.8627  13
  -5   2 -20-91.0000 86.7725  12
  -5  -2 -20-124.938 103.814  12
   5   3   0-80.3720 70.9074   2
   5   3  -1 89312.3 1079.74   2
   5   3   1 88381.1 1072.82   2
   5   3  -2 32027.3 658.118   2
   5   3   2 32115.4 655.902   2
   5   3   3 124928. 1312.64   2
   5  -3   3 124401. 1135.67   2
  -5  -3  -4 1643.75 168.394   3
   5  -3   4 2003.36 156.788   2
   5   3   4 1736.17 163.222   2
   5  -3   5 97.8299 51.1845   2
   5   3   5 91.0127 56.0224   2
  -5  -3  -5 69.6060 59.1856   3
  -5  -3  -6 7935.00 359.403   3
   5  -3   6 8022.53 340.966   2
   5   3   6 8125.45 374.213   2
  -5  -3  -7 5489.38 312.101   3
   5  -3   7 5314.31 297.013   2
   5   3   7 5470.32 324.160   2
   5  -3   8 8013.15 388.464   2
   5   3   8 8070.85 408.401   2
  -5  -3  -8 8199.16 388.865   3
   5  -3   9 838.011 142.896   2
   5   3   9 704.226 134.321   2
   5  -3  10 990.069 155.474   2
   5   3  10 1122.77 168.318   2
   5   3  11 77400.2 1475.52   2
   5  -3  11 77722.8 1424.43   2
  -5   3 -11 74555.8 1364.62   5
   5  -3  12 1849.33 231.268   2
   5   3  12 1977.14 252.675   2
  -5  -3 -13 3145.10 380.911   7
   5   3 -13 3225.63 383.306  12
   5  -3  13 2472.41 274.793   2
  -5   3 -13 3083.54 298.608   5
   5   3  13 2863.98 308.892   2
  -5   3 -13 3224.66 372.272   7
  -5   3 -14-148.342 132.320   7
   5   3 -14 70.3503 122.996  12
  -5  -3 -14-92.8401 116.067   7
   5   3 -14 154.496 127.155  13
   5   3 -15 1994.54 317.154  13
  -5  -3 -15 2178.41 334.103   7
  -5   3 -15 2319.96 340.374   7
  -5   3 -16-150.582 127.407   7
   5   3 -16 127.422 110.845  13
  -5  -3 -16-69.9736 121.826   7
   5   3 -17 77.2298 120.154  13
  -5  -3 -17 235.687 135.136   7
   5   3 -17 76.5890 104.446  14
  -5   3 -17-100.351 104.549   7
  -5  -3 -18 539.823 156.470   7
   5   3 -18 489.979 150.315  13
  -5   3 -18 251.859 119.947  12
  -5   3 -18 287.999 116.722   7
  -5   3 -18 132.004 104.515  16
   5   3 -19 1068.05 187.935  13
  -5   3 -19 883.247 168.763  12
  -5   3 -19 875.814 184.081  16
  -5  -3 -20-211.008 105.333  12
   5   3 -20 42.4475 63.2602  11
   5   4   0 1.64116 35.0448   1
   5   4   0 27.5562 49.1714   2
   5   4  -1 494.549 75.8697   1
   5   4   1 419.274 96.5318   2
   5   4  -1 728.535 113.766   2
   5   4  -2 2777.79 204.678   2
   5   4   2 2805.41 209.121   2
  -5  -4  -3 1833.11 182.133   3
   5   4   3 1910.69 174.859   2
  -5  -4  -4 39087.5 805.981   3
   5   4   4 40372.1 787.526   2
  -5  -4  -5 1128.76 144.792   3
   5   4   5 1067.53 138.746   2
   5   4   6 857.131 131.342   2
  -5  -4  -6 823.024 118.685   3
  -5  -4  -7 9019.76 420.516   3
   5   4   7 9052.98 424.299   2
   5   4   8 27910.2 779.455   2
  -5  -4  -8 26426.3 745.280   3
   5  -4   9 654.094 121.024   2
   5   4   9 608.014 130.199   2
   5  -4  10 71.4151 52.1670   2
   5   4  10 59.9968 68.1811   2
   5  -4  11 4012.56 329.608   2
   5   4  11 4545.83 359.429   2
   5  -4  12 1476.17 205.496   2
   5   4  12 1457.47 214.043   2
  -5   4 -13-114.371 99.2671   7
  -5  -4 -13 0.89261 88.8434   7
   5   4 -13-51.9315 116.605  16
  -5   4 -14 184.611 123.396   7
   5   4 -14 66.2350 102.968  13
  -5  -4 -14 310.712 161.359   7
   5   4 -14 62.8018 112.664  16
   5   4 -15 318.854 159.787  13
   5   4 -15 727.901 196.706  16
  -5  -4 -15 405.956 145.659   7
  -5   4 -15 488.698 193.845   7
  -5   4 -16 583.159 195.055   7
  -5  -4 -16 242.944 158.373   7
   5   4 -16 463.852 170.300  13
   5   4 -17 113.330 117.781  14
  -5   4 -17-95.5512 104.043   7
  -5  -4 -17 21.1639 96.2655   7
   5   4 -17 241.223 155.329  13
  -5   4 -17 53.4567 122.470  16
   5   4 -18 1566.60 251.606  13
  -5   4 -18 1372.97 239.388  16
  -5  -4 -18 1400.79 236.855   7
   5   4 -18 1242.21 212.551  14
   5   4 -19 132.490 94.1602  13
  -5   4 -19 64.1750 68.9135  16
   5   5   0 86.3003 54.7076   1
   5   5   0-9.69243 44.1105   2
   5   5  -1 146.399 49.9301   1
   5   5   1 98.0955 60.0838   2
   5   5  -1 81.1062 52.0453   2
   5   5  -2 167.273 60.5593   1
   5   5   2 134.469 67.9817   2
  -5  -5  -3 4517.34 292.852   3
   5   5   3 4276.87 263.563   2
  -5  -5  -4 148075. 1664.15   3
   5   5   4 147841. 1569.01   2
  -5  -5  -5 14515.3 535.018   3
   5   5   5 14966.0 514.014   2
   5   5   6 37143.7 838.863   2
  -5  -5  -6 36744.0 864.575   3
   5   5   7 1822.93 194.214   2
  -5  -5  -7 1991.61 214.535   3
  -5  -5  -8 38304.1 953.452   3
   5   5   8 40387.9 959.000   2
   5   5   9 2565.17 252.267   2
  -5  -5  -9 2463.74 246.706   3
   5   5  10 14952.0 644.776   2
  -5  -5 -10 14579.2 641.135   3
  -5   5 -11 8842.96 497.499   5
   5   5  11 3838.10 342.376   2
   5   5  12 43.7488 57.7356   2
  -5   5 -12 2021.40 257.031   5
   5   5 -13 1031.77 231.541  16
   5   5 -14 7313.09 592.511  16
   5   5 -14 6672.47 563.032  13
   5   5 -15 159.706 126.539  13
  -5   5 -15 100.624 100.760   7
   5   5 -15 40.4151 102.674  16
   5   5 -16-111.917 123.148  13
  -5   5 -16-145.969 128.164   7
   5   5 -16-140.065 135.039  16
   5   5 -17 413.346 147.624  13
   5   5 -17 443.893 153.994  16
  -5   5 -17 411.178 171.904  16
  -5   5 -17 307.402 129.629   7
   5   5 -18 5668.88 424.733  14
  -5   5 -18 5281.11 450.357  16
   5   5 -18 5264.26 437.397  13
   5   5 -19 202.140 105.846  13
  -5  -5 -19-72.8214 87.3420  12
   5   5 -19 110.822 89.2972  11
   5   5 -19 232.850 102.152  14
  -5   5 -19 209.264 111.254  16
   5   6   0 15.8629 46.0251   2
   5   6   0 47.2603 49.2177   1
   5   6   1 7191.17 337.568   1
   5   6  -1 7324.21 342.643   2
   5   6  -1 7596.15 333.222   1
   5   6   1 7637.38 351.819   2
   5   6   2 780.196 110.537   2
   5   6  -2 759.609 111.842   1
  -5  -6  -3 2229.63 224.293   3
   5   6  -3 2183.87 186.519   1
   5   6   3 2124.77 190.433   2
  -5  -6  -4 30561.6 805.638   3
   5   6   4 31440.2 750.788   2
  -5  -6  -5 2117.12 212.383   3
   5   6   5 2045.76 198.823   2
  -5  -6  -6 2991.68 268.055   3
   5   6   6 3248.23 259.014   2
  -5  -6  -7 278.499 95.1617   3
   5   6   7 242.551 87.1252   2
   5   6   8 7862.96 431.477   2
  -5  -6  -8 7756.01 453.112   3
  -5   6  -9 39915.6 1038.46   5
  -5  -6  -9 1277.88 191.060   3
  -5  -6 -10 334.852 110.375   3
  -5   6 -10 19730.1 709.303   5
  -5   6 -11 11763.7 595.816   5
  -5  -6 -11 3234.70 324.004   3
  -5  -6 -12 451.537 157.274  17
   5   6 -12 614.015 184.155  16
   5   6 -13 40.1579 98.6574  13
   5   6 -13 41.3678 110.030  16
   5   6 -14 152.999 128.856  13
   5   6 -14 242.363 156.894  16
   5   6 -15 120.837 135.249  13
   5   6 -15-110.475 126.087  16
   5   6 -16-113.193 118.685  13
   5   6 -16 148.815 124.950  16
  -5   6 -16 48.2808 110.800  16
   5   6 -17 206.163 126.696  13
   5   6 -17-68.1502 90.7030  16
  -5   6 -17-44.4439 86.7831  16
   5   6 -18 802.296 170.719  13
   5   6 -18 869.211 185.608  14
   5   6 -18 664.697 155.071  11
  -5   6 -18 762.801 189.858  16
   5   6 -19 1.50644 64.4554  13
  -5   6 -19-91.5155 87.9122  16
   5   7   0 2.17028 54.6594   1
  -5  -7   0 2164.52 301.176   3
   5   7   1 39362.6 842.877   1
  -5  -7  -1 41125.6 929.102   3
   5   7  -1 39318.0 832.126   1
   5   7   2 1839.48 197.145   1
  -5  -7  -2 2445.39 257.016   3
   5   7  -2 1945.35 186.939   1
  -5  -7  -3 41736.3 973.739   3
   5   7  -3 43700.8 887.431   1
  -5  -7  -4 24028.5 755.547   3
  -5  -7  -5 92.3170 63.6600   3
  -5  -7  -6 69.2837 79.3557   3
  -5  -7  -7 13222.0 596.868   3
  -5  -7  -8 882.819 162.205   3
  -5  -7  -9 1051.87 186.575   3
  -5   7  -9 44558.3 1117.03   5
  -5   7 -10 25967.6 836.742   5
  -5  -7 -10 3586.30 354.092   3
  -5  -7 -11 31754.6 1107.73  17
  -5   7 -11 37020.2 1019.02   5
   5   7 -11 31313.0 1115.87  13
   5   7 -11 34316.3 1246.05  16
  -5  -7 -11 27881.2 973.283   3
   5   7 -12 7316.56 552.846  13
   5   7 -12 7295.31 597.384  16
   5   7 -13 1664.88 287.792  13
   5   7 -13 1361.15 282.334  16
   5   7 -14 180.778 141.559  16
   5   7 -14 35.0862 105.026  13
   5   7 -15 1085.78 244.866  13
   5   7 -15 1005.35 238.062  16
  -5   7 -15 1013.29 245.378  16
   5   7 -16 1140.59 231.738  13
   5   7 -16 1185.25 226.023  11
   5   7 -16 1001.11 228.946  16
  -5   7 -16 1051.87 224.947  16
   5   7 -17 23.0265 82.5976  11
   5   7 -17 6.61173 82.1393  13
  -5   7 -17 25.2792 89.4401  16
   5   7 -17 63.8445 124.992  16
   5   7 -18 875.796 171.871  13
   5   7 -18 771.563 159.517  14
  -5   7 -18 754.309 174.531  16
  -5  -8   0 909.040 225.925   3
   5   8   0 64.1146 58.3720   1
  -5  -8  -1 7884.54 438.280   3
   5   8   1 7254.06 389.588   1
   5   8  -1 6779.87 375.130   1
  -5  -8  -2 5780.39 382.295   3
   5   8   2 5643.57 351.917   1
   5   8  -2 5757.92 349.249   1
   5   8   3 10599.2 500.566   1
  -5  -8  -3 9809.72 493.931   3
   5   8  -3 10278.9 465.756   1
  -5  -8  -4 124.191 101.597   3
  -5  -8  -5 400.573 116.561   3
  -5  -8  -6 88.1123 60.9163   3
  -5  -8  -7 1117.25 187.810   3
  -5  -8  -8 4006.98 352.034   3
  -5  -8  -9 176.848 99.5665   3
  -5  -8 -10 96.4366 91.0602   3
   5   8 -10 196.691 121.427  16
   5   8 -11 9263.10 602.225  13
   5   8 -11 8885.11 661.142  16
   5   8 -12 917.971 236.540  13
   5   8 -12 911.359 226.657  16
   5   8 -13-82.2971 92.0461  13
   5   8 -13 103.333 146.166  16
   5   8 -14-49.1937 126.678  13
   5   8 -14 28.1290 127.528  16
  -5   8 -14 118.590 117.476  16
   5   8 -15 443.568 162.629  13
   5   8 -15 650.109 183.831  16
  -5   8 -15 416.847 147.403  16
   5   8 -16 61.9755 91.4527  13
   5   8 -16 321.904 164.786  16
  -5   8 -16 118.980 87.1473  16
   5   8 -17-1.77392 72.1366  13
  -5   8 -17 33.3804 92.9391  16
   5   8 -18 38.1637 61.6728  14
   5   8 -18-53.3198 57.0771  13
  -5   8 -18 153.908 100.567  16
  -5   8 -18 30.0806 87.7219   8
  -5  -9   0 460.023 149.887   3
   5   9   0-9.72025 65.6455   1
  -5  -9  -1 11568.3 546.653   3
  -5  -9   1 12381.9 561.542   3
   5   9   1 11295.3 524.247   1
   5   9  -1 11163.5 511.734   1
  -5  -9  -2 21325.7 748.515   3
   5   9  -2 20831.9 705.809   1
   5   9   2 20629.5 720.870   1
  -5  -9  -3 24277.7 810.896   3
   5   9   3 25239.5 810.920   1
   5   9  -3 25278.0 781.277   1
  -5  -9  -4 33132.8 971.562   3
   5   9   4 33379.9 962.768   1
   5   9   5 2569.40 281.571   1
  -5  -9  -5 2859.99 291.147   3
  -5  -9  -6 10653.7 581.906   3
  -5  -9  -7 816.879 169.920   3
  -5  -9  -8 8947.33 559.872   3
  -5  -9  -9 821.973 193.013   3
  -5  -9  -9 595.954 170.386  18
  -5  -9  -9 803.655 170.689  17
   5   9  -9 822.901 198.414  16
   5   9  -9 727.839 187.008   8
   5   9 -10 455.476 167.358  16
   5   9 -10 571.607 203.689   8
   5   9 -11 8304.88 634.622  16
   5   9 -12 817.529 213.048  16
  -5   9 -12 1005.07 222.375  16
   5   9 -13 820.285 226.046  16
  -5   9 -13 877.882 219.645  16
   5   9 -14 1176.53 217.029  13
   5   9 -14 1546.75 273.731  16
  -5   9 -14 1197.95 253.892  16
   5   9 -15 172.526 117.327  13
   5   9 -15 212.965 128.036  16
  -5   9 -15 105.247 93.0526  16
   5   9 -16 368.243 129.985  13
  -5   9 -16 493.000 149.206  16
   5   9 -17 9.90239 72.3075  14
   5   9 -17-21.3643 61.1951  13
  -5   9 -17 233.057 114.097  16
  -5   9 -17 141.357 110.170   8
   5  10   0-53.2611 73.7445   1
   5  10   1-33.6562 72.1556   1
   5  10  -1 76.6600 73.6276   1
  -5 -10  -1-131.705 110.163   3
  -5 -10  -2 5252.47 383.635   3
   5  10  -2 5417.49 390.048   1
   5  10   2 5472.35 394.215   1
  -5 -10  -3 1147.21 194.298   3
   5  10   3 775.684 158.422   1
  -5 -10  -4 5346.85 411.713   3
   5  10   4 5017.30 394.820   1
  -5 -10  -5 1712.11 245.100   3
   5  10   5 1601.68 230.692   1
  -5 -10  -6 5168.73 422.416   3
   5  10   6 5661.81 447.242   1
   5  10   7 3308.42 353.561   1
  -5 -10  -7 3225.92 338.095   3
  -5 -10  -8 4540.17 434.457  18
  -5 -10  -8 4534.41 415.399  17
   5  10  -8 4070.63 438.228  16
   5  10  -8 4559.15 454.470   8
  -5 -10  -9 793.470 201.322  18
   5  10  -9 993.459 229.336  16
   5  10  -9 814.170 208.183   8
   5  10 -10 654.456 194.837   8
   5  10 -10 1010.92 247.081  16
   5  10 -11 280.962 174.669  16
   5  10 -11 115.889 110.511   8
   5  10 -12-35.3443 119.738  16
   5  10 -13 510.236 181.070  16
  -5  10 -14 933.299 218.993  16
   5  10 -15-42.2730 94.5921   9
  -5  10 -15-53.4543 98.9153  16
  -5  10 -16 313.589 124.928   8
  -5  10 -16 113.617 89.2863  16
   5  10 -17-81.9969 61.9162  14
   5  11   0-45.5902 76.2857   1
   5  11  -1 4036.36 353.475   1
   5  11   1 3865.97 350.396   1
   5  11  -2 1075.90 200.489   1
  -5 -11  -2 923.588 176.462   3
   5  11   2 603.971 143.242   1
   5  11   3-180.173 118.702   1
  -5 -11  -3-106.033 78.3819   3
   5  11   4 23773.3 897.680   1
  -5 -11  -4 22925.9 883.694   3
   5  11   5 7854.34 529.557   1
  -5 -11  -5 7411.91 511.091   3
   5  11   6 5675.33 464.074   1
   5  11  -6 6594.01 551.949   8
   5  11  -6 5969.28 521.663   9
  -5 -11  -6 6370.82 506.008  18
   5  11  -7-130.315 144.521   9
  -5 -11  -7 34.5355 106.138  17
   5  11  -7 152.792 104.816   8
  -5 -11  -7 93.4444 109.654  18
  -5 -11  -8 3184.66 381.266  18
   5  11  -8 3469.10 404.281   8
  -5 -11  -9 946.063 206.390  18
   5  11  -9 811.205 213.615   8
   5  11 -10 1290.52 254.205   8
   5  11 -11 359.710 153.527   8
   5  11 -12 181.062 138.579   9
   5  11 -12 209.894 148.540   8
   5  11 -13 372.022 142.276   9
  -5  11 -13 434.026 163.391   8
  -5  11 -14 1703.22 278.494   8
   5  11 -14 1236.24 215.846   9
   5  11 -15 584.861 153.719   9
  -5  11 -15 471.148 149.293   8
   5  11 -16 4.29936 58.3815  14
  -5  11 -16-13.3720 69.8000   8
   5  12   0 65.2643 90.1878   1
   5  12  -1 4361.05 432.733   8
   5  12  -1 3629.06 357.975   1
  -5 -12  -1 4166.89 412.145  19
   5  12   1 3871.79 367.354   1
  -5 -12   2 596.453 172.512  20
  -5 -12  -2 626.055 184.231  19
   5  12  -2 666.181 203.352   8
   5  12  -2 584.185 156.820   9
   5  12   2 630.833 147.864   1
  -5 -12   3 385.127 161.923  20
  -5 -12  -3 173.026 137.295  19
   5  12   3 262.324 119.097   1
   5  12  -3 718.685 214.726   8
   5  12  -3 344.498 143.589   9
  -5 -12  -4 3969.18 407.424  18
  -5 -12   4 4008.27 418.810  20
   5  12  -4 4021.72 434.173   8
   5  12  -4 4473.29 444.500   9
  -5 -12  -4 3789.49 423.352  19
   5  12  -5 1572.37 274.324   9
   5  12  -5 1693.87 294.817   8
  -5 -12  -5 1903.55 307.703  18
  -5 -12  -6-7.03663 139.261  18
   5  12  -6-2.79721 113.358   9
   5  12  -6-58.4277 149.935   8
  -5 -12  -7-32.9375 92.5886  17
  -5 -12  -7 82.2679 106.782  18
   5  12  -7 101.833 147.164   9
   5  12  -7-3.72566 105.937   8
  -5 -12  -8-32.0516 100.312  18
   5  12  -8-59.0144 127.159   9
   5  12  -8 56.5582 120.164   8
   5  12  -9-92.3464 132.116   9
   5  12  -9 14.6304 111.889   8
  -5  12  -9-58.7610 141.385   8
   5  12 -10-111.326 109.061   9
   5  12 -10 135.726 127.592   8
  -5  12 -10-5.78152 148.407   8
   5  12 -11 1266.82 254.369   9
   5  12 -11 1493.91 267.999   8
  -5  12 -11 1435.82 290.069   8
   5  12 -12 205.855 141.343   9
   5  12 -12 331.192 142.775   8
  -5  12 -12 448.639 177.735   8
   5  12 -13-81.9223 95.9501   9
   5  12 -13 169.483 117.144   8
  -5  12 -13 304.663 165.324   8
   5  12 -14-166.072 110.899   9
  -5  12 -14-41.5008 95.1711   8
  -5  12 -15 131.447 94.5603   8
   5  12 -15 93.6962 75.4932   9
   5  12 -15-27.5866 65.2551  14
  -5 -13   0 6.40352 100.602  19
  -5 -13  -1 2078.36 308.466  19
  -5 -13   1 1782.05 287.475  19
   5  13  -1 2048.54 324.878   8
   5  13  -2 8374.71 621.508   8
  -5 -13  -2 8973.94 634.335  19
   5  13  -2 8950.16 627.999   9
   5  13  -3 2708.99 354.324   9
  -5 -13  -3 2572.63 354.079  19
  -5 -13  -3 2262.69 322.328  18
   5  13  -3 2357.16 342.668   8
  -5 -13  -4 464.668 180.349  18
  -5 -13   4 339.176 128.036  20
  -5 -13  -4 579.144 203.238  19
   5  13  -4 471.973 178.870   8
   5  13  -4 403.205 181.639   9
   5  13  -5 238.461 145.914   9
  -5 -13  -5-19.2686 115.586  18
   5  13  -5 63.3240 118.751   8
   5  13  -6 104.853 141.152   9
  -5 -13  -6 119.568 137.889  18
   5  13  -6-167.313 145.595   8
  -5 -13  -7 1560.44 279.970  18
   5  13  -7 1754.02 307.314   8
   5  13  -7 1858.51 311.395   9
   5  13  -8 1579.94 300.586   9
  -5 -13  -8 1396.64 248.321  18
   5  13  -8 1605.91 303.326   8
   5  13  -9-42.9120 121.122   8
   5  13  -9 97.9774 133.845   9
   5  13 -10 164.740 150.323   9
   5  13 -10 370.194 172.435   8
  -5  13 -10 39.3961 105.715   8
  -5  13 -11 5278.18 486.620   8
   5  13 -11 4999.44 455.878   9
   5  13 -11 5694.62 476.996   8
   5  13 -12 2323.80 308.803   8
   5  13 -12 2766.24 323.919   9
  -5  13 -12 2656.64 337.269   8
   5  13 -13 111.798 90.7529   8
   5  13 -13 194.455 91.4744   9
   5  13 -14-12.9458 70.4009   9
  -5  13 -14 253.338 113.934   8
  -5 -14   0-26.7109 113.662  19
  -5 -14  -1 137.897 106.750  19
  -5 -14   1 266.641 139.766  19
  -5 -14  -2 666.805 193.786  19
  -5 -14   2 815.899 203.609  19
   5  14  -2 881.401 225.946   8
   5  14  -3 345.252 152.372   9
  -5 -14  -3 199.608 137.198  18
   5  14  -3 417.557 182.165   8
  -5 -14  -3 314.836 165.186  19
   5  14  -4 675.185 197.404   9
   5  14  -4 718.143 182.536   8
  -5 -14  -4 655.466 193.858  18
  -5 -14  -5 345.725 156.184  18
   5  14  -5 78.6451 104.017   9
   5  14  -5 266.431 161.038   8
  -5 -14  -6 74.6340 111.212  18
   5  14  -6 172.881 131.482   9
   5  14  -7 65.0052 118.604   9
  -5 -14  -7 166.755 124.162  18
   5  14  -7 52.7537 140.789   8
  -5 -14  -8 1395.33 239.686  18
   5  14  -8 1299.95 251.630   8
   5  14  -8 1278.63 246.722   9
   5  14  -9 168.678 107.735   8
   5  14  -9-41.9341 122.022   9
   5  14 -10-51.0840 97.3438   9
   5  14 -10-58.9927 96.0148   8
   5  14 -11 51.1534 111.347   8
   5  14 -11 309.986 123.666   9
  -5  14 -11 151.718 107.475   8
   5  14 -12 208.663 115.386   9
   5  14 -12 416.700 126.049   8
  -5  14 -12 137.794 96.4487   8
   5  14 -13 78.4006 84.9736   9
  -5 -15   0 273.396 156.325  19
  -5 -15  -1 306.516 147.524  19
   5 -15   1 180.477 128.198  20
  -5 -15   1 147.064 120.857  19
   5 -15  -1-37.5028 127.848  19
   5 -15  -2 1292.76 239.687  19
  -5 -15   2 1546.86 263.537  19
  -5 -15  -2 1682.28 281.015  18
   5 -15   2 1174.61 249.107  20
  -5 -15  -2 1621.35 270.442  19
   5  15  -3 1722.87 290.911   8
  -5 -15  -3 1748.29 289.826  18
  -5 -15  -4 2455.43 336.774  18
   5  15  -4 2609.35 354.869   9
   5  15  -4 2836.23 371.470   8
  -5 -15  -5 2441.06 341.171  18
   5  15  -5 1875.23 287.414   9
   5  15  -5 2126.28 329.292   8
  -5 -15  -6 1221.52 231.495  18
   5  15  -6 1399.23 269.442   8
   5  15  -6 1450.71 259.347   9
  -5 -15  -7 65.9167 108.490  18
   5  15  -7 169.092 126.198   9
   5  15  -7 55.4578 120.703   8
   5  15  -8 1845.36 279.520   8
   5  15  -8 1280.19 229.835   9
   5  15  -9 838.149 192.938   9
   5  15  -9 763.725 194.754   8
   5  15 -10 157.590 89.2491   9
   5  15 -10 188.428 112.861   8
   5  15 -11 279.383 111.529   9
   5 -15  11 87.5746 80.4928  20
   5  15 -11 307.369 104.146   8
   5 -16   0 15.2281 112.373  19
  -5 -16   0-22.5305 109.452  19
  -5 -16   1 161.889 121.896  19
   5 -16  -1 183.059 125.187  19
  -5 -16  -1 341.507 158.227  19
   5 -16   1 315.564 149.150  19
   5 -16   1 258.697 129.091  20
  -5 -16  -1 319.707 163.274  18
   5 -16  -2 50.1533 82.8413  19
   5 -16   2-94.9646 106.428  20
  -5 -16   2-25.0930 92.2780  19
  -5 -16  -2 114.236 118.977  18
   5 -16   3 118.642 120.255  20
  -5 -16  -3 462.859 172.886  18
  -5 -16  -4 358.816 147.833  18
   5 -16   4 215.418 135.673  20
   5  16  -5 101.735 101.323   9
  -5 -16  -5 295.410 108.833  18
   5 -16   5 163.213 130.283  20
  -5 -16  -6-19.2217 106.107  18
   5  16  -6-90.7975 111.442   8
   5  16  -6-97.9067 113.192   9
   5 -16   6-37.1418 105.114  20
   5  16  -7-71.7122 95.6423   9
   5 -16   7 288.757 131.398  20
  -5 -16  -7 164.160 88.6300  18
   5  16  -7-18.7027 103.601   8
   5  16  -8 63.4356 79.0280   9
   5 -16   8 104.767 93.7013  20
   5  16  -8 335.090 118.782   8
   5  16  -9 7.33984 83.3710   9
   5 -16   9 135.226 93.0775  20
   5 -17   0-140.097 106.286  19
  -5 -17   0 92.7346 113.626  18
   5 -17  -1 1060.61 207.812  19
   5 -17   1 768.007 182.078  19
  -5 -17  -1 801.083 187.620  18
  -5 -17   1 822.192 192.376  18
   5 -17   2 498.138 154.036  19
  -5 -17  -2 789.968 190.372  18
   5 -17  -2 759.267 177.061  19
   5 -17   2 638.399 174.993  20
   5 -17   3 336.660 138.755  20
   5 -17   3 93.9216 105.757  19
  -5 -17  -3 407.891 150.725  18
  -5 -17  -4 1054.33 212.030  18
   5 -17   4 757.951 182.850  19
   5 -17   4 935.083 199.135  20
  -5 -17  -5 437.613 140.907  18
   5 -17   5 349.849 134.654  20
   5 -17   5 289.080 112.928  19
   5 -17   6 53.5764 64.1106  19
  -5 -17  -6-21.7746 87.2774  18
   5 -17   6 182.351 91.8125  20
   5 -17   7-33.9598 63.7204  20
   5 -17   7-55.6896 76.6670  19
  -5 -18   0 74.7569 89.0893  18
   5 -18   0-30.5680 70.9734  19
   5 -18  -1 52.1726 75.2752  19
   5 -18   1-47.6161 80.5380  19
  -5 -18   1-20.3502 80.1324  18
  -5 -18  -1 71.9876 79.8891  18
  -5 -18  -2 195.022 109.760  18
   5 -18   2 48.8484 80.9167  19
  -5 -18   2 72.4542 87.8592  18
   5 -18   3 80.4281 79.3618  19
  -5 -18   3 223.823 98.4666  18
   6   0   0 196065. 1600.01   2
   6   0   1 34.4936 45.8957   2
   6   0  -1 2.91749 46.0384   2
   6   0  -2 1774.86 160.885   2
   6   0   2 1727.66 157.495   2
   6   0   3 99.2635 58.4448   2
   6   0   4 16275.1 500.815   2
   6   0   5-3.92709 51.8242   2
   6   0   6 280.814 86.3047   2
   6   0   7-60.6364 70.5254   2
   6   0   8 6547.09 377.026   2
   6   0   9 63.7307 62.9512   2
   6   0  10 33517.0 944.088   2
   6   0  11 18.1851 73.0985   2
   6   0  12 17880.9 747.992   2
   6   0 -13 83.8676 87.5483  13
   6   0 -13-75.0793 103.027  12
  -6   0 -13-68.7399 104.854   7
   6   0  13 128.659 85.5884   2
   6   0 -14 9306.49 628.534  13
  -6   0 -14 8180.41 627.751   7
   6   0 -15 87.2001 107.911  13
  -6   0 -15 30.4744 110.288   7
  -6   0 -16 148.347 146.560   7
  -6   0 -17-2.33056 115.527   7
  -6   0 -18 46.5987 96.3608   7
  -6   0 -19 119.099 107.262   7
   6   1   0 747.182 113.905   2
   6   1   0 707.785 159.275   4
   6  -1   0 877.412 114.511   2
   6  -1  -1 3614.94 214.541   2
   6   1  -1 3244.50 339.529   4
   6   1   1 3569.98 364.116   4
   6   1  -1 3565.33 229.624   2
   6  -1   1 3912.82 228.550   2
   6   1   1 3476.92 228.393   2
   6   1  -2 7056.20 327.112   2
   6  -1  -2 7416.76 314.235   2
   6  -1   2 6890.74 309.046   2
   6   1   2 6907.90 320.057   2
   6   1   3 4785.67 276.002   2
   6  -1   3 4978.90 267.816   2
   6  -1   4 1014.67 132.279   2
   6   1   4 1112.78 143.210   2
  -6  -1  -5 872.683 116.894   3
   6  -1   5 1004.43 131.909   2
   6   1   5 838.802 120.010   2
   6  -1   6 53341.3 968.741   2
   6   1   6 54270.3 1005.62   2
   6   1   7 915.743 143.745   2
   6  -1   7 1129.69 157.124   2
   6  -1   8 182.969 73.7596   2
   6   1   8 88.2905 80.8958   2
   6  -1   9 16588.0 628.284   2
   6   1   9 16156.4 628.234   2
   6  -1  10 2277.70 256.895   2
   6   1  10 2426.60 253.193   2
   6  -1  11 4782.17 373.445   2
   6   1  11 4801.08 376.132   2
   6  -1  12 1933.23 251.963   2
   6   1  12 1766.29 246.457   2
   6   1 -13 4232.48 422.775  13
   6  -1 -13 4179.43 429.180  12
  -6  -1 -13 4263.30 438.771   7
   6  -1  13 3227.26 331.895   2
   6   1  13 3431.31 351.711   2
  -6   1 -13 3754.59 412.236   7
   6   1 -13 4116.83 402.993  14
   6   1 -14 538.084 186.502  13
  -6   1 -14 462.577 168.456   7
  -6  -1 -14 576.333 196.123   7
   6   1 -15-34.3224 126.576  13
  -6   1 -15-134.602 124.680   7
  -6  -1 -15-32.8196 111.793   7
   6   1 -16 4955.83 458.900  13
  -6   1 -16 4963.79 480.075   7
  -6  -1 -16 4837.95 480.646   7
  -6  -1 -17 123.662 109.464   7
   6   1 -17 104.037 100.953  13
  -6   1 -17-3.31114 110.296   7
  -6   1 -18 230.109 131.748   7
   6   1 -18 165.895 95.3518  13
  -6  -1 -18 219.752 122.021   7
  -6   1 -19 67.3847 84.2953  12
  -6   1 -19-11.1702 70.3476   7
  -6  -1 -19 224.914 107.478   7
   6   2   0 9401.89 367.093   2
   6  -2   0 9535.05 339.698   2
   6   2   1 615.291 111.512   2
   6  -2   1 484.551 90.9484   2
   6   2  -1 393.097 86.9541   2
   6  -2  -1 621.248 95.2390   2
   6  -2   2 109.528 50.8466   2
   6   2   2 138.100 66.1430   2
   6   2  -2 96.9741 62.2318   2
   6  -2   3 156832. 1455.73   2
   6   2   3 155922. 1569.30   2
   6  -2   4 3797.00 237.558   2
  -6  -2  -4 3571.35 236.513   3
   6   2   4 3668.18 252.018   2
  -6  -2  -5 10355.9 400.651   3
   6  -2   5 11151.0 425.399   2
   6   2   5 11102.1 442.382   2
  -6  -2  -6 2239.24 189.664   3
   6   2   6 1941.27 194.634   2
   6  -2   6 2149.41 198.212   2
   6  -2   7 103506. 1411.75   2
   6   2   7 104602. 1487.74   2
   6  -2   8 8486.45 426.752   2
   6   2   8 8235.38 435.854   2
   6  -2   9 112.317 80.9058   2
   6   2   9 141.369 80.7826   2
   6  -2  10 7450.39 443.076   2
   6   2  10 7757.58 461.965   2
   6  -2  11 1973.00 244.664   2
   6   2  11 1771.65 231.469   2
   6  -2  12 1469.43 214.126   2
   6   2  12 1421.21 224.114   2
   6   2 -13 1600.75 272.630  13
   6  -2 -13 1287.93 240.830  12
  -6   2 -13 1560.57 279.099   7
  -6  -2 -13 1754.96 301.054   7
   6   2 -14 2749.18 362.884  13
  -6   2 -14 2631.47 357.142   7
  -6  -2 -14 2797.13 379.748   7
   6   2 -15 2741.73 357.567  13
  -6   2 -15 2148.20 321.634   7
   6   2 -15 2702.65 334.300  14
  -6  -2 -15 2540.93 362.216   7
  -6   2 -16 441.615 149.498   7
   6   2 -16 393.782 169.032  13
  -6  -2 -16 606.959 195.552   7
   6   2 -17 7611.96 558.061  13
  -6   2 -17 6642.41 532.034   7
  -6  -2 -17 7870.33 591.347   7
  -6  -2 -18 19.9611 87.2262   7
  -6   2 -18 278.083 117.349   7
   6   2 -18 381.440 136.917  13
  -6   2 -18 375.237 139.137  16
   6   2 -19 617.772 149.717  13
  -6   2 -19 490.492 141.172  12
  -6  -2 -19 924.087 185.674   7
  -6   2 -19 902.811 175.761  16
   6   3   0 26619.6 641.836   2
   6   3  -1 23155.5 607.915   2
   6   3   1 23105.5 606.735   2
   6   3  -2 1404.89 158.227   2
   6   3   2 1469.60 161.285   2
   6  -3   3 16479.4 468.509   2
   6   3   3 16049.6 519.490   2
  -6  -3  -4 19035.9 560.800   3
   6   3   4 20526.4 599.618   2
   6  -3   4 20715.7 538.347   2
   6  -3   5 2.86628 47.4083   2
  -6  -3  -5 70.1999 64.9676   3
   6   3   5-46.7727 73.7119   2
  -6  -3  -6 5388.38 312.620   3
   6  -3   6 6032.83 323.591   2
   6   3   6 5726.08 338.244   2
   6  -3   7 1093.34 147.798   2
  -6  -3  -7 947.032 132.692   3
   6   3   7 1349.09 175.393   2
   6   3   8 1343.93 184.552   2
   6  -3   8 1404.49 176.634   2
   6  -3   9 11382.2 518.079   2
   6   3   9 11332.1 542.734   2
   6  -3  10 69.7965 84.5211   2
   6   3  10-33.3692 76.4369   2
   6  -3  11 77.4500 75.0799   2
   6   3  11 374.135 128.439   2
   6  -3  12 334.975 115.396   2
   6   3  12 482.486 139.329   2
   6   3 -13 10344.4 676.679  13
  -6  -3 -13 10275.2 685.351   7
  -6   3 -13 9985.37 667.938   7
   6   3 -14 334.024 167.465  13
  -6   3 -14 144.285 109.887   7
  -6  -3 -14 207.712 158.850   7
   6   3 -15 1303.13 247.779  14
   6   3 -15 977.515 232.916  13
  -6   3 -15 1135.22 242.291   7
  -6  -3 -15 1081.73 233.376   7
  -6   3 -16-55.5265 97.1701   7
   6   3 -16 52.3076 111.563  14
  -6  -3 -16-3.77025 96.8756   7
   6   3 -16-14.1622 106.109  13
   6   3 -17 330.990 151.470  14
  -6   3 -17 106.368 120.339   7
  -6  -3 -17 258.788 143.869   7
   6   3 -17 15.6461 91.4871  13
  -6  -3 -18 19.8490 85.0033   7
  -6   3 -18-49.6864 83.0417  12
   6   3 -18 29.7822 85.6138  13
  -6   3 -18 162.679 120.493  16
  -6   3 -18-102.775 101.036   7
   6   3 -19 839.609 165.016  13
   6   3 -19 585.664 146.150  11
  -6   3 -19 945.153 190.730  16
  -6  -3 -19 823.770 162.666   7
   6   4   0 190157. 1775.42   2
   6   4  -1 20043.9 581.072   2
   6   4   1 19789.0 569.329   2
   6   4   2 822.526 126.595   2
   6   4  -2 681.974 108.182   2
   6   4   3 78185.4 1171.09   2
  -6  -4  -4 19784.0 613.362   3
   6   4   4 20433.2 611.768   2
  -6  -4  -5 21329.3 649.202   3
   6   4   5 22864.3 672.396   2
  -6  -4  -6 325.908 72.7626   3
   6   4   6 394.847 102.177   2
   6   4   7 72873.6 1275.64   2
  -6  -4  -7 68900.6 1201.17   3
   6   4   8 2493.62 252.385   2
  -6  -4  -8 2419.04 236.689   3
  -6  -4  -9 2379.71 236.805   3
   6   4   9 2378.08 256.362   2
   6   4  10 20987.9 780.547   2
  -6   4 -10 23800.5 757.812   5
   6   4  11 961.048 181.602   2
  -6   4 -11 4507.30 377.657   5
   6   4 -12 3063.16 356.634  13
   6   4 -12 2819.14 359.551  16
   6   4  12 2377.33 290.050   2
   6   4 -13 45.7149 99.9075  13
  -6   4 -13-106.690 110.142   7
  -6  -4 -13-241.605 164.158   7
   6   4 -13-22.8422 108.100  16
   6   4 -14 1104.66 229.935  13
  -6   4 -14 1335.76 252.779   7
  -6  -4 -14 1634.78 277.520   7
   6   4 -14 1150.97 233.847  16
   6   4 -15 1829.57 298.858  13
  -6  -4 -15 2003.31 305.125   7
  -6   4 -15 1764.56 293.141   7
   6   4 -15 2162.92 331.357  16
  -6   4 -16 62.2700 94.6672   7
   6   4 -16 54.6302 97.0477  14
   6   4 -16 36.0717 107.785  13
  -6  -4 -16-34.9965 101.456   7
   6   4 -17 3362.30 366.203  13
   6   4 -17 3589.29 358.028  14
  -6   4 -17 3250.13 369.926   7
  -6  -4 -17 3874.70 396.742   7
  -6  -4 -18 514.182 153.188   7
   6   4 -18 620.834 169.417  11
   6   4 -18 549.672 155.114  14
  -6   4 -18 554.345 164.614  16
   6   4 -18 404.210 139.343  13
  -6   4 -18 384.140 132.627   7
   6   4 -19 56.7757 79.5752  11
   6   4 -19 123.474 83.8828  13
  -6   4 -19 188.085 129.819  16
   6   5   0 8616.56 389.271   2
   6   5   1 3644.46 229.193   1
   6   5  -1 3503.73 254.832   2
   6   5   1 3441.51 248.934   2
   6   5  -2 12972.7 491.918   2
   6   5   2 13020.2 490.726   2
  -6  -5  -3 5528.26 352.915   3
   6   5   3 5226.39 312.485   2
  -6  -5  -4 18824.2 631.522   3
   6   5   4 19464.2 621.035   2
  -6  -5  -5 445.899 112.130   3
   6   5   5 664.686 116.626   2
  -6  -5  -6 22517.2 714.883   3
   6   5   6 23845.7 726.748   2
   6   5   7 11180.4 522.826   2
  -6  -5  -7 10096.3 488.601   3
  -6  -5  -8 2931.84 273.541   3
   6   5   8 3169.93 288.003   2
  -6  -5  -9 2135.67 229.169   3
   6   5   9 2159.40 247.617   2
  -6  -5 -10 225.857 100.542   3
   6   5  10 89.4085 86.4346   2
   6   5  11 464.232 127.184   2
  -6   5 -11 5371.94 422.488   5
   6   5 -12 917.485 227.068  13
   6   5 -12 847.589 213.323  16
   6   5 -13 167.694 99.8793  13
   6   5 -13 384.471 168.534  16
   6   5 -14 248.848 130.941  13
   6   5 -14 414.531 168.665  16
   6   5 -15 282.685 127.297  13
   6   5 -15 44.5815 108.289  16
   6   5 -16 4719.83 457.642  13
   6   5 -16 4806.56 444.721  14
   6   5 -16 4901.73 460.383  16
  -6   5 -16 4729.68 431.287   7
   6   5 -17 39.2228 84.7476  13
   6   5 -17 202.395 141.886  11
  -6   5 -17 222.856 101.846   7
  -6   5 -17 388.057 161.362  16
   6   5 -17 109.287 84.7596  14
   6   5 -18 113.953 98.8489  14
   6   5 -18 253.087 124.374  13
   6   5 -18 248.587 111.551  11
  -6   5 -18-18.0720 74.7178  16
   6   5 -19 73.7660 59.0663  13
   6   5 -19 54.4196 82.6525  11
  -6   5 -19-98.0874 75.1883  16
   6   6   0 103661. 1275.48   1
   6   6   0 105514. 1409.03   2
   6   6   1 35.1533 61.3729   2
   6   6   1 30.9130 53.0328   1
   6   6  -1 136.977 53.4105   2
  -6  -6  -2 20427.4 682.860   3
   6   6   2 18756.8 598.289   2
  -6  -6  -3 21151.2 704.324   3
   6   6   3 21078.4 651.173   2
  -6  -6  -4 6953.82 411.682   3
   6   6   4 7325.45 393.225   2
  -6  -6  -5 4650.43 335.796   3
   6   6   5 4974.19 334.144   2
  -6  -6  -6 3862.15 310.072   3
   6   6   6 4707.14 332.327   2
  -6  -6  -7 14102.0 604.705   3
   6   6   7 14866.9 613.906   2
  -6  -6  -8 19104.7 728.711   3
   6   6   8 20607.1 746.196   2
   6   6   9 1763.18 235.303   2
  -6  -6  -9 1486.10 207.347   3
   6   6  10 33121.9 1020.18   2
  -6  -6 -10 33089.1 1027.82   3
   6   6 -11 1110.92 220.439  13
  -6  -6 -11 682.584 151.457   3
  -6  -6 -11 1036.22 212.345  17
   6   6 -11 1384.38 253.099  16
   6   6 -12 5139.25 469.467  13
  -6  -6 -12 5239.00 478.683  17
   6   6 -12 5070.61 497.056  16
   6   6 -13 198.404 130.028  13
   6   6 -13 500.218 185.613  16
   6   6 -14 6059.58 514.836  13
   6   6 -14 5896.35 537.196  16
   6   6 -15 139.460 121.445  13
   6   6 -15-72.9677 95.1859  16
   6   6 -16 66.8560 102.655  14
   6   6 -16 358.081 151.495  13
   6   6 -16 328.895 144.134  11
  -6   6 -16 257.756 145.494  16
   6   6 -17 998.138 196.183  13
   6   6 -17 944.760 189.972  11
   6   6 -17 1035.62 211.206  14
  -6   6 -17 1053.61 211.894  16
   6   6 -18 208.855 101.693  13
   6   6 -18 675.583 153.084  11
   6   6 -18 412.419 131.367  14
  -6   6 -18 490.901 147.661  16
   6   7   0 13941.4 532.782   2
   6   7   0 14518.9 517.834   1
  -6  -7  -1 25352.6 776.549   3
   6   7   1 21776.9 647.176   1
  -6  -7  -2 1477.46 249.765   3
   6   7   2 333.451 86.1315   1
  -6  -7  -3 7313.10 437.823   3
  -6  -7  -4 4226.07 332.543   3
  -6  -7  -5-15.1911 97.0407   3
  -6  -7  -6 654.644 131.720   3
  -6  -7  -7 942.015 171.700   3
  -6  -7  -8 4913.55 388.096   3
  -6  -7  -9 8349.58 508.391   3
  -6  -7 -10 744.034 179.710   3
   6   7 -10 760.549 206.968  16
   6   7 -11 1848.31 277.243  13
   6   7 -11 1987.63 293.244  11
  -6  -7 -11 1912.99 298.825  17
   6   7 -11 1999.47 324.893  16
   6   7 -12 65.2220 98.2376  13
   6   7 -12-26.1732 107.840  11
   6   7 -12 91.6753 134.919  16
  -6  -7 -12 109.095 103.489  17
   6   7 -13 4195.85 436.286  13
   6   7 -13 3944.71 399.289  11
   6   7 -13 4456.21 473.478  16
   6   7 -14 2210.11 320.208  13
   6   7 -14 2025.55 290.886  11
   6   7 -14 2204.06 331.973  16
   6   7 -15 80.2080 91.6394  11
   6   7 -15 15.5204 106.309  13
   6   7 -15-51.7951 114.745  16
  -6   7 -15 197.470 113.454  16
   6   7 -16 710.561 175.920  14
   6   7 -16 583.468 147.790  11
   6   7 -16 791.406 188.034  13
  -6   7 -16 843.087 208.808  16
   6   7 -17 71.9152 86.5375  14
   6   7 -17 46.1463 86.9902  11
   6   7 -17 206.401 96.4719  13
  -6   7 -17 175.551 115.363  16
   6   7 -18 91.4088 69.4498  14
   6   7 -18 58.7068 59.5616  13
   6   7 -18-117.365 66.2165  11
  -6   7 -18 12.6656 76.5867  16
  -6  -8   0 5076.40 406.257   3
   6   8   0 2252.39 218.745   1
   6   8  -1 241.521 80.8735   1
   6   8   1 120.418 58.8819   1
  -6  -8  -2 6840.65 434.128   3
   6   8   2 6239.87 379.976   1
  -6  -8  -3 43336.9 1080.43   3
   6   8   3 42072.3 1012.38   1
  -6  -8  -4 5.55144 89.8606   3
  -6  -8  -5 2337.29 251.697   3
  -6  -8  -6 3714.38 336.503   3
  -6  -8  -7 45248.2 1203.92   3
  -6  -8  -8 1085.24 191.437   3
  -6  -8  -9 1347.63 224.129   3
  -6  -8 -10 2225.58 308.691  17
   6   8 -10 2017.20 315.060  16
   6   8 -11 1024.86 207.948  13
  -6  -8 -11 944.564 208.611  17
   6   8 -11 1068.73 255.063  16
   6   8 -12 313.548 132.760  13
  -6  -8 -12 21.3779 125.156  17
   6   8 -12 274.224 175.197  16
   6   8 -13 59.2248 104.584  13
   6   8 -13 267.960 168.095  16
   6   8 -14-21.7630 110.618  13
   6   8 -14-202.008 133.792  16
  -6   8 -14 12.1206 98.2293  16
   6   8 -15 1803.92 272.879  13
  -6   8 -15 1750.67 279.751  16
   6   8 -16 225.004 107.750  13
   6   8 -16 37.5872 84.0634  14
  -6   8 -16 66.1661 93.5880  16
   6   8 -17 2117.33 258.515  13
  -6   8 -17 1885.74 248.384  16
   6   8 -17 2028.56 254.121  14
  -6  -9   0 5748.66 420.411   3
   6   9   0 4721.67 342.571   1
  -6  -9  -1 2567.71 290.286   3
   6   9   1 2411.67 243.895   1
   6   9  -1 2279.31 241.927   1
   6   9   2 901.173 160.211   1
  -6  -9  -2 1256.47 204.391   3
  -6  -9  -3 157.898 76.8656   3
   6   9   3 237.551 90.9494   1
  -6  -9  -4 10570.0 564.603   3
   6   9   4 11495.4 576.737   1
  -6  -9  -5 422.181 120.962   3
   6   9   5 349.391 94.9506   1
  -6  -9  -6 7684.10 500.525   3
  -6  -9  -7 840.319 174.256   3
  -6  -9  -8 2102.78 287.825  18
  -6  -9  -8 2130.91 289.791  17
  -6  -9  -8 2075.21 273.328   3
  -6  -9  -9 3142.45 368.102  18
  -6  -9  -9 3751.14 402.271  17
   6   9  -9 3904.80 413.405   8
   6   9  -9 3542.40 422.081  16
   6   9 -10 3704.86 436.077  16
  -6  -9 -10 3605.93 398.217  17
  -6  -9 -11-29.8578 133.460  17
   6   9 -11 48.9023 124.593  16
   6   9 -13 771.598 190.524  13
   6   9 -13 632.335 190.275   9
  -6   9 -13 550.053 183.350  16
   6   9 -14 814.489 186.762  13
  -6   9 -14 646.503 181.651  16
   6   9 -15 145.361 109.650  13
  -6   9 -15-63.4933 107.799  16
   6   9 -16 279.958 115.967  14
   6   9 -16 378.643 119.371  13
  -6   9 -16 415.357 141.872  16
   6   9 -17 143.954 87.4365  14
   6   9 -17 253.231 93.9407  13
  -6   9 -17 345.409 116.138  16
  -6   9 -17 131.782 91.4046   8
  -6 -10   0 42052.2 1118.64   3
   6  10   0 39782.0 1052.37   1
   6  10  -1 5444.86 390.076   1
  -6 -10  -1 5686.28 412.975   3
   6  10   1 5406.20 394.250   1
   6  10   2 62.0276 81.3225   1
  -6 -10  -2-155.525 129.964   3
   6  10   3 385.121 116.682   1
  -6 -10  -3 70.7652 117.472   3
   6  10   4 7551.34 492.721   1
  -6 -10  -4 7539.67 501.880   3
  -6 -10  -5 1927.97 261.530   3
   6  10   5 1954.11 259.221   1
  -6 -10  -6 214.642 103.160   3
   6  10   6 549.226 155.962   1
  -6 -10  -7 552.704 171.244  18
   6  10   7 518.304 126.395   1
   6  10  -7 782.972 181.407   9
  -6 -10  -7 670.980 185.637  17
   6  10  -7 867.554 224.865   8
   6  10  -8 547.347 183.503   9
  -6 -10  -8 675.265 182.580  17
  -6 -10  -8 674.296 206.643  18
   6  10  -8 346.538 128.100   8
   6  10  -9 823.042 226.059   9
  -6 -10  -9 1125.17 230.227  18
  -6 -10  -9 1008.27 215.208  17
   6  10  -9 919.352 215.588   8
  -6 -10 -10 5283.78 477.063  17
   6  10 -10 5552.91 496.522   8
   6  10 -10 5194.24 485.009   9
   6  10 -11-168.530 118.533   9
   6  10 -12 3283.51 378.918   9
   6  10 -13 516.479 154.417   9
   6  10 -14 1784.70 255.435   9
   6  10 -15 134.601 99.5301  14
  -6  10 -15 280.100 122.129  16
   6  10 -16 51.0218 70.3841  14
  -6  10 -16 176.379 95.4529  16
  -6  10 -16 109.861 82.5224   8
   6  11   0 1251.35 205.120   1
   6  11   1 514.207 147.649   1
   6  11  -1 950.081 192.833   1
  -6 -11  -2 4546.47 393.878   3
   6  11   2 4403.16 384.178   1
  -6 -11  -3 2387.44 289.471   3
   6  11   3 2337.06 282.292   1
   6  11   4 15.6825 75.0775   1
  -6 -11  -4 13.9118 83.8505   3
   6  11  -4-56.9133 107.658   9
  -6 -11  -4 66.8355 118.187  18
   6  11  -4 112.555 130.021   8
  -6 -11  -5-71.0231 102.055  18
   6  11  -5 189.720 145.802   9
   6  11  -5 179.138 129.552   8
   6  11  -6 3726.94 419.172   9
  -6 -11  -6 4126.86 425.049  18
   6  11  -6 4072.84 437.621   8
  -6 -11  -7 5069.77 466.377  17
   6  11  -7 4714.57 468.424   9
  -6 -11  -7 4640.46 458.102  18
   6  11  -7 4750.03 478.138   8
  -6 -11  -8 198.583 126.563  18
   6  11  -8 377.441 186.785   9
  -6 -11  -8 265.188 134.117  17
   6  11  -8 104.570 124.901   8
  -6 -11  -9 935.449 212.600  17
  -6 -11  -9 865.536 205.918  18
   6  11  -9 933.473 207.759   9
   6  11  -9 933.034 220.277   8
   6  11 -10-3.34866 111.098   9
   6  11 -10 105.042 135.582   8
   6  11 -11 1201.70 243.441   9
   6  11 -11 1187.26 238.010   8
   6  11 -12 301.735 141.687   9
   6  11 -13 380.862 122.397   9
   6  11 -14-26.2838 79.0284  14
  -6  11 -14 27.8282 101.657   8
   6  11 -15 26.0897 81.4746   9
   6  11 -15 11.9399 76.5224  14
  -6  11 -15-117.539 97.5340   8
  -6 -12   0 2620.37 341.087  19
   6  12   0 2581.23 339.103   9
  -6 -12  -1 188.079 108.566  19
  -6 -12   1 99.1705 99.8288  19
   6  12   1 216.997 131.511   9
   6  12  -1 146.399 117.537   9
   6  12  -1 288.223 157.663   8
   6  12  -2 1978.55 302.975   9
  -6 -12  -2 1792.18 289.104  19
   6  12  -2 1806.07 308.173   8
  -6 -12  -3 9526.81 660.913  19
   6  12  -3 10140.3 667.202   9
  -6 -12  -3 9941.24 654.667  18
   6  12  -3 9998.56 673.990   8
  -6 -12  -4 723.873 210.634  18
   6  12  -4 579.759 183.551   9
   6  12  -4 696.873 193.388   8
  -6 -12  -5 317.188 161.731  18
   6  12  -5 739.663 216.674   9
   6  12  -5 659.452 192.517   8
   6  12  -6 298.169 140.409   9
   6  12  -6 235.673 148.130   8
  -6 -12  -6 303.828 175.769  18
  -6 -12  -7 5137.77 474.629  17
   6  12  -7 5350.65 513.288   9
   6  12  -7 5180.66 497.400   8
  -6 -12  -7 4809.77 465.990  18
   6  12  -8 4199.18 445.055   8
   6  12  -8 4089.01 440.906   9
  -6 -12  -8 3903.25 423.626  18
  -6 -12  -8 3788.72 414.288  17
  -6 -12  -9 258.553 141.030  18
   6  12  -9 400.534 176.424   9
  -6 -12  -9 365.239 155.871  17
   6  12  -9 532.137 194.930   8
  -6  12 -10 2529.46 366.639   8
   6  12 -10 2026.61 309.268   8
   6  12 -10 2340.33 335.491   9
   6  12 -11 217.267 119.013   9
   6  12 -11 288.748 144.982   8
  -6  12 -11 170.805 155.819   8
   6  12 -12 140.781 113.607   8
   6  12 -12 344.634 153.179   9
  -6  12 -12 299.736 145.095   8
   6  12 -13 426.500 151.874   9
  -6  12 -13 279.437 116.554   8
   6  12 -14 1038.48 181.253   9
   6  12 -14 766.350 149.777  14
  -6  12 -14 983.489 203.649   8
  -6 -13   0 4861.04 465.905  19
   6  13   0 4846.38 465.291   9
  -6 -13  -1 3442.34 397.542  19
   6  13  -1 3717.22 405.054   9
  -6 -13   1 3418.65 390.413  19
   6  13  -2-89.7694 103.861   9
  -6 -13  -2 129.039 102.698  19
  -6 -13  -2 13.8402 118.172  18
   6  13  -2 70.6139 103.672   8
   6  13  -3 428.701 171.093   9
  -6 -13  -3 846.609 214.449  18
   6  13  -3 997.912 246.084   8
   6  13  -4 2641.19 366.200   9
  -6 -13  -4 2673.11 361.184  18
   6  13  -4 3126.96 392.171   8
  -6 -13  -5 507.927 177.691  18
   6  13  -5 703.100 203.485   9
   6  13  -5 716.109 170.962   8
  -6 -13  -6 180.237 153.913  17
  -6 -13  -6 164.250 118.075  18
   6  13  -6 139.456 131.768   8
   6  13  -6 174.624 133.132   9
  -6 -13  -7 95.0899 122.995  17
  -6 -13  -7 55.2961 121.315  18
   6  13  -7 5.49460 123.989   9
   6  13  -7 253.277 131.474   8
   6  13  -8-69.1109 125.550   9
  -6 -13  -8-124.797 110.469  17
  -6 -13  -8 24.4540 98.6404  18
   6  13  -8-102.157 131.330   8
   6  13  -9 1961.66 295.082   9
   6  13  -9 1908.61 299.695   8
  -6 -13  -9 1952.24 296.221  18
   6  13 -10 549.422 179.044   9
   6  13 -10 434.921 164.013   8
   6  13 -11 138.306 127.577   9
   6  13 -11 172.227 124.472   8
  -6  13 -11 287.008 131.671   8
   6  13 -12 181.438 121.923   8
  -6  13 -12 5.19488 92.2464   8
   6  13 -12-2.76459 80.0850   9
   6  13 -13 419.725 133.349   9
  -6  13 -13 278.477 113.462   8
  -6 -14   0 882.624 231.268  19
  -6 -14  -1 2622.63 355.924  18
  -6 -14  -1 2884.02 367.193  19
  -6 -14   1 2773.67 354.561  19
   6  14  -1 2754.59 357.520   9
   6  14  -2 570.827 183.088   9
  -6 -14  -2 732.280 197.889  18
  -6 -14  -3 1576.39 270.109  18
   6  14  -3 1860.18 301.970   9
   6  14  -3 1564.14 281.047   8
  -6 -14  -4 352.365 158.878  18
   6  14  -4 471.651 197.800   9
   6  14  -4 391.417 191.069   8
  -6 -14  -5 1527.52 273.059  18
   6  14  -5 1707.96 299.273   9
   6  14  -5 1439.27 293.531   8
  -6 -14  -6 1590.82 279.051  18
   6  14  -6 1555.22 269.709   9
  -6 -14  -6 1791.23 295.626  17
   6  14  -6 1259.66 275.923   8
  -6 -14  -7 3994.41 410.025  18
   6  14  -7 4506.40 442.303   9
  -6 -14  -7 4616.41 427.446  17
   6  14  -7 4313.39 437.305   8
  -6 -14  -8-20.4134 93.6254  18
   6  14  -8-27.5911 128.620   9
   6  14  -8 290.952 155.583   8
   6  14  -9 812.257 200.663   9
   6  14  -9 817.678 188.658   8
   6  14 -10 973.498 216.841   8
   6  14 -10 1075.25 209.488   9
   6  14 -11 62.9489 112.437   9
   6  14 -11-92.9905 87.0004   8
   6  14 -12 170.721 94.0910   9
   6  14 -12 43.3760 67.1701   8
  -6 -15   0 1831.82 288.246  19
  -6 -15   0 1807.84 291.376  18
  -6 -15   1 135.732 138.194  19
   6 -15  -1 86.5649 93.7491  19
  -6 -15  -1-18.6312 137.466  18
   6 -15   2 453.560 180.797  20
   6  15  -2 294.649 140.049   9
  -6 -15  -2 440.618 178.929  18
  -6 -15  -3 892.089 211.841  18
   6  15  -3 1123.64 229.515   9
   6  15  -4 1210.96 256.913   9
  -6 -15  -4 1127.33 235.569  18
  -6 -15  -5 53.4752 91.8889  18
   6  15  -5 94.1809 101.758   9
  -6 -15  -5 155.480 93.5681  17
  -6 -15  -6 444.628 166.961  18
   6  15  -6 390.155 159.398   9
   6  15  -6 760.474 211.996   8
  -6 -15  -6 477.492 147.055  17
  -6 -15  -7 634.897 177.984  18
   6  15  -7 657.636 178.658   9
   6  15  -7 865.999 213.642   8
   6  15  -8 25.4835 89.8096   9
   6  15  -8 79.1667 97.4524   8
  -6 -15  -8 180.154 90.1674  18
   6  15  -9-7.45678 84.0596   8
   6  15  -9-59.7690 108.114   9
   6  15 -10 221.005 96.3846   9
   6  15 -10 165.499 102.329   8
   6  15 -11-46.5003 70.8976   9
   6 -16   0 3544.51 388.451  19
  -6 -16   0 3850.84 410.412  18
   6 -16  -1 1347.77 246.844  19
   6 -16   1 1200.71 235.581  19
  -6 -16  -1 1302.54 234.032  18
  -6 -16   1 1333.40 246.237  18
   6 -16   2 851.817 198.185  20
  -6 -16  -2 646.763 200.872  18
   6 -16   3 137.086 109.594  20
  -6 -16  -3 394.501 171.640  18
   6  16  -4 776.856 194.632   9
  -6 -16  -4 897.088 191.580  18
  -6 -16  -4 1128.11 215.133  17
   6 -16   4 758.891 187.642  20
   6 -16   5 122.745 94.1118  20
   6  16  -5 15.7933 94.8868   9
  -6 -16  -5-56.0625 115.322  18
  -6 -16  -5 80.7277 85.0027  17
   6 -16   6 40.4875 98.2448  20
  -6 -16  -6-44.1056 95.8632  18
   6  16  -6-178.524 105.517   9
  -6 -16  -7 238.179 111.617  18
   6  16  -7-54.1242 112.121   9
   6 -16   7 39.7285 93.4190  20
   6  16  -8 255.197 106.795   9
   6 -16   8 430.607 131.163  20
   6 -16   9 314.022 108.311  20
   6  16  -9 534.693 141.964   9
   6 -17   0 793.218 175.366  19
  -6 -17   0 998.820 185.696  18
   6 -17  -1 383.866 140.472  19
   6 -17   1 54.7274 80.3771  19
  -6 -17  -1 131.093 98.7545  18
  -6 -17   1 148.123 107.592  18
   6 -17   2-78.5441 103.422  19
  -6 -17  -2 253.252 105.405  18
  -6 -17   2 115.369 107.647  18
  -6 -17  -3 185.967 108.508  18
   6 -17   3 498.932 151.952  20
  -6 -17   3 245.988 114.732  18
   6 -17   3 397.478 117.735  19
  -6 -17  -3 475.070 134.563  17
  -6 -17  -4-8.94353 75.8918  18
   6 -17   4-51.2981 81.3261  20
   6 -17   4 16.9074 69.3385  19
  -6 -17   4-181.076 100.385  18
  -6 -17  -4-168.073 97.4772  17
   6 -17   5-43.5040 71.3058  20
   6 -17   5 81.8194 88.2298  19
  -6 -17  -5 79.9363 82.7629  18
  -6 -17   5 64.7431 99.9729  18
   6 -17   6 125.239 95.1777  20
   6 -17   6 61.7604 64.8894  19
   7   0   0-46.7103 49.8716   2
   7   0   1-32.4428 66.0239   2
   7   0  -1-1.08588 48.5157   2
   7   0  -2 113891. 1371.49   2
   7   0   2 114372. 1380.80   2
   7   0   3 62.2974 56.4019   2
   7   0   4 155.021 70.6104   2
   7   0   5 1.94461 54.4495   2
   7   0   6 632.420 121.861   2
   7   0   7 33.4492 72.3626   2
   7   0   8 42232.2 1024.56   2
   7   0   9-51.0406 60.7676   2
   7   0  10 2656.99 282.802   2
   7   0  11 26.6184 64.2408   2
  -7   0 -12 15373.7 825.065   7
   7   0  12 13577.4 680.324   2
   7   0 -13 102.345 88.2807  13
  -7   0 -13-118.782 146.417   7
   7   0 -14 2534.19 345.523  13
  -7   0 -14 2000.65 326.016   7
   7   0 -15-43.2911 104.886  13
  -7   0 -15-197.856 138.051   7
  -7   0 -16 2928.66 388.820   7
  -7   0 -17-114.801 129.051   7
  -7   0 -18 775.131 169.147   7
  -7   0 -19 82.1405 83.4389   7
   7   0 -19-54.0559 89.2171  11
   7   1   0 49.0013 66.4381   2
   7  -1   0-7.20332 57.2705   2
   7  -1   1 429.339 84.1772   2
   7   1   1 411.681 95.9718   2
   7   1  -1 417.554 93.3204   2
   7  -1  -1 526.412 103.511   2
   7   1  -2 5925.17 328.082   2
   7  -1  -2 6176.01 316.080   2
   7  -1   2 6005.63 310.953   2
   7   1   2 5724.60 320.827   2
   7  -1   3 11283.5 434.862   2
   7   1   3 11012.0 448.235   2
   7  -1   4 33084.7 770.213   2
   7   1   4 33425.5 794.878   2
   7  -1   5 24117.0 673.492   2
   7   1   5 24843.6 708.096   2
   7  -1   6 22470.0 680.685   2
   7   1   6 22055.8 684.587   2
   7   1   7 7654.82 420.565   2
   7  -1   7 7811.39 416.433   2
   7   1   8 1752.89 207.287   2
   7  -1   8 1819.73 217.015   2
   7  -1   9 1327.40 186.109   2
   7   1   9 1466.11 208.751   2
   7  -1  10 12065.9 586.950   2
   7   1  10 12045.9 600.337   2
   7  -1  11 1927.13 245.930   2
   7   1  11 1963.18 255.914   2
  -7   1 -12 12028.6 726.471   7
   7   1 -12 12782.7 720.807  13
  -7  -1 -12 12540.8 747.933   7
   7  -1  12 11231.3 613.439   2
   7   1  12 11286.8 625.234   2
   7   1 -13 114.127 127.897  14
   7   1 -13-20.8385 110.487  13
  -7   1 -13 89.5606 137.264   7
  -7  -1 -13-69.3240 121.222   7
   7   1 -14 88.3863 115.147  14
   7   1 -14-85.6541 120.184  13
  -7   1 -14 98.5006 106.232   7
  -7  -1 -14 69.5656 109.385   7
   7   1 -15-85.0716 98.3035  13
  -7   1 -15 117.012 138.325   7
  -7  -1 -15 194.501 162.943   7
  -7   1 -16 84.2520 114.619   7
  -7  -1 -16 114.424 158.192   7
   7   1 -16 20.4330 86.8341  13
   7   1 -17 562.666 164.058  13
  -7   1 -17 735.446 184.810   7
  -7  -1 -17 862.036 215.944   7
  -7  -1 -18 546.308 160.599   7
   7   1 -18 450.462 141.447  13
   7   1 -18 478.245 152.075  11
   7  -1 -18 522.024 135.015  11
  -7   1 -18 300.461 114.027   7
  -7   1 -19 142.645 71.5194   7
  -7   1 -19 246.040 103.634  12
   7  -1 -19 190.468 74.1374  11
   7   1 -19 251.879 89.9321  11
   7   2   0 39.9501 65.8714   2
   7  -2   0-7.56989 46.6443   2
   7   2  -1 36656.2 816.862   2
   7  -2  -1 38621.0 761.647   2
   7  -2   1 38211.2 760.781   2
   7   2   1 36967.6 813.814   2
   7   2  -2 13237.4 493.621   2
   7  -2   2 13636.8 463.449   2
   7   2   2 12951.8 492.994   2
   7  -2   3 1797.67 182.288   2
   7   2   3 1790.19 187.693   2
   7  -2   4 494.889 106.476   2
   7   2   4 495.420 109.186   2
   7   2   5 88555.1 1358.27   2
   7  -2   5 89285.7 1282.05   2
   7  -2   6-10.1674 67.3476   2
   7   2   6-13.0492 89.8626   2
   7  -2   7 213.376 95.9760   2
   7   2   7 336.741 102.947   2
   7   2   8 2745.95 264.150   2
   7  -2   8 2683.40 255.631   2
   7   2   9 21674.2 777.353   2
   7  -2   9 21889.8 761.937   2
   7  -2  10 1317.10 191.747   2
   7   2  10 1266.80 198.068   2
   7  -2  11 3387.71 329.763   2
   7   2  11 3551.77 342.862   2
  -7   2 -12 3493.66 396.947   7
   7   2 -12 3481.81 383.442  13
  -7  -2 -12 3245.76 391.568   7
   7  -2  12 2642.63 300.220   2
   7   2  12 3039.05 328.449   2
   7   2 -12 3888.94 399.375  14
   7   2 -13 202.527 145.925  14
   7   2 -13 384.927 160.782  13
  -7   2 -13 176.746 117.367   7
  -7  -2 -13 404.472 161.206   7
   7   2 -14 39.4245 106.991  14
   7   2 -14 50.7898 104.387  13
  -7   2 -14-59.6385 124.527   7
  -7  -2 -14 141.366 119.627   7
   7   2 -15 1922.35 306.155  13
  -7   2 -15 1976.44 308.021   7
  -7  -2 -15 1719.45 302.760   7
   7   2 -15 1962.80 284.895  14
   7   2 -16-91.3090 128.194  13
  -7   2 -16 113.973 126.317   7
  -7  -2 -16 171.663 133.238   7
   7   2 -16 111.688 84.1587  14
   7   2 -17 639.070 169.198  13
  -7  -2 -17 718.973 202.136   7
  -7   2 -17 611.599 184.238   7
   7   2 -18-95.6766 101.446  13
   7   2 -18-185.483 135.816  11
  -7  -2 -18 8.51506 77.3009   7
  -7   2 -18-142.115 99.8974   7
   7   2 -19 659.120 157.978  13
  -7   2 -19 533.572 123.185  12
   7   2 -19 409.539 116.910  11
  -7  -2 -19 364.352 113.846   7
  -7   2 -19 347.034 113.542  16
  -7   2 -19 417.233 115.027   7
   7   3   0 4.32127 57.8882   2
   7   3  -1 6234.55 345.101   2
   7   3   1 5333.25 321.325   2
   7   3  -2 1790.14 198.057   2
   7   3   2 1713.37 193.849   2
   7   3   3 44079.9 937.276   2
  -7  -3  -4 3057.21 258.892   3
   7   3   4 2363.66 232.939   2
   7  -3   5 61970.7 1064.58   2
   7   3   5 60152.6 1153.78   2
  -7  -3  -6 2964.68 247.606   3
   7   3   6 3218.56 277.405   2
   7  -3   6 3234.64 254.072   2
   7  -3   7 527.556 118.732   2
  -7  -3  -7 274.164 70.3319   3
   7   3   7 328.882 113.959   2
   7  -3   8 688.891 136.046   2
   7   3   8 678.343 135.252   2
   7   3   9 4987.58 376.255   2
   7  -3   9 4788.71 355.458   2
   7  -3  10-89.2105 86.9469   2
   7   3  10-14.7885 84.0303   2
   7  -3  11 9054.26 523.426   2
   7   3  11 9535.32 564.156   2
   7   3 -12 108.509 109.341  13
  -7   3 -12-99.5885 91.0546   7
  -7  -3 -12-57.7519 132.125   7
   7  -3  12 205.205 108.060   2
  -7   3 -13 2790.46 367.714   7
  -7  -3 -13 3391.31 416.126   7
   7   3 -13 3612.43 412.818  13
   7   3 -13 3572.24 402.489  14
   7   3 -14 120.090 110.292  14
   7   3 -14 240.205 169.527  13
  -7   3 -14 125.412 123.374   7
  -7  -3 -14 90.6922 128.003   7
   7   3 -15 521.287 173.501  13
  -7   3 -15 719.459 190.758   7
  -7  -3 -15 553.210 210.479   7
   7   3 -15 669.932 174.496  14
   7   3 -16-117.794 103.268  14
  -7   3 -16 148.962 96.9148   7
  -7  -3 -16-33.2415 135.353   7
   7   3 -16-59.7918 90.8981  13
   7   3 -17 1207.99 233.064  13
  -7  -3 -17 1300.04 252.311   7
  -7   3 -17 1250.01 234.207   7
   7   3 -17 1281.06 236.679  11
   7   3 -17 1362.13 218.623  14
   7   3 -18 55.6862 93.0383  13
   7   3 -18-105.909 135.716  11
  -7   3 -18 113.694 95.2384   7
  -7  -3 -18-64.9567 85.1521   7
  -7   3 -18 63.8077 98.1013  16
   7   3 -19 1009.92 174.819  13
   7   3 -19 801.854 154.392  11
  -7   3 -19 768.485 157.577  16
  -7  -3 -19 775.468 156.451   7
   7   4   0 42.4848 59.8335   2
   7   4  -1 1672.32 185.261   2
   7   4   1 1568.34 181.158   2
   7   4  -2 60912.7 1114.40   2
   7   4   2 60938.9 1112.93   2
   7   4   3 12626.5 512.322   2
  -7  -4  -4 433.282 146.282   3
   7   4   4 104.707 64.3642   2
  -7  -4  -5 56361.5 1108.01   3
   7   4   5 60131.8 1175.37   2
  -7  -4  -6 8989.17 449.336   3
   7   4   6 10204.6 499.680   2
  -7  -4  -7-77.8618 87.2732   3
   7   4   7 62.4892 63.4303   2
  -7  -4  -8 7574.42 424.433   3
   7   4   8 8171.09 480.755   2
   7   4   9 12606.5 616.599   2
  -7   4  -9 25979.8 754.951   5
   7   4  10 1095.97 196.501   2
  -7   4 -10 8457.68 493.518   5
   7   4  11 1044.36 209.008   2
   7   4 -12 9314.75 654.228  16
  -7   4 -12 9046.92 618.959   7
  -7  -4 -12 9267.04 650.296   7
   7   4 -12 8860.67 621.864  13
   7   4 -13 500.253 183.237  13
  -7   4 -13 340.427 150.330   7
  -7  -4 -13 414.717 182.031   7
   7   4 -13 386.304 156.006  16
   7   4 -14 38.4808 97.0012  14
   7   4 -14 656.464 190.589  13
  -7   4 -14 325.063 135.866   7
  -7  -4 -14 479.975 161.238   7
   7   4 -15 1080.46 237.338  14
   7   4 -15 946.085 221.132  13
  -7   4 -15 937.270 202.971   7
  -7  -4 -15 1402.70 268.894   7
  -7   4 -16 7.31049 83.3867   7
  -7  -4 -16 379.030 169.952   7
   7   4 -16 103.985 107.917  14
   7   4 -16 152.316 121.904  13
  -7  -4 -17 97.4611 105.476   7
   7   4 -17 264.968 119.713  13
   7   4 -17 179.969 112.962  11
   7   4 -17 44.9630 85.1491  14
  -7   4 -17 64.6571 100.942   7
   7   4 -18 538.603 146.542  13
   7   4 -18 509.842 137.476  14
  -7   4 -18 352.645 124.794   7
  -7  -4 -18 644.043 145.705   7
  -7   4 -18 319.165 128.371  16
   7   4 -18 428.473 117.599  11
   7   5   0-4.82372 51.7137   2
   7   5   1 4019.34 291.928   2
   7   5  -1 4213.02 302.119   2
   7   5  -2 25971.2 742.042   2
   7   5   2 25613.5 733.761   2
  -7  -5  -3 6878.59 441.030   3
   7   5   3 5574.09 352.846   2
  -7  -5  -4 47493.5 1053.49   3
   7   5   4 49761.4 1065.50   2
  -7  -5  -5 1363.37 195.613   3
   7   5   5 1207.26 174.140   2
  -7  -5  -6 2301.33 240.169   3
   7   5   6 2760.67 266.790   2
  -7  -5  -7 1855.50 211.432   3
   7   5   7 2265.02 254.165   2
  -7  -5  -8 1430.76 202.833   3
   7   5   8 1637.34 224.304   2
  -7  -5  -9-48.9910 67.6999   3
   7   5   9 152.727 73.9465   2
   7   5  10 14683.4 704.680   2
  -7   5 -10 26611.7 799.848   5
   7   5 -11 2184.07 303.837  13
   7   5  11 1843.80 261.107   2
  -7  -5 -11 1763.23 259.681  17
   7   5 -11 2170.65 322.766  16
   7   5 -12 6031.85 510.813  13
   7   5 -12 6346.35 554.683  16
   7   5 -13 752.769 191.945  13
   7   5 -13 1151.19 259.590  16
   7   5 -14 729.941 180.481  13
   7   5 -14 592.063 178.802  14
   7   5 -15 208.023 130.987  14
   7   5 -15 266.076 142.654  13
   7   5 -15 272.552 144.293  11
   7   5 -16 118.979 124.950  14
   7   5 -16 175.229 123.233  13
   7   5 -16 180.874 136.367  11
   7   5 -17 254.916 130.294  13
   7   5 -17 287.693 123.033  11
   7   5 -17 277.686 113.139  14
  -7   5 -17 228.229 140.160  16
   7   5 -18 548.682 146.842  14
   7   5 -18 333.494 111.173  13
   7   5 -18 292.266 96.8941  11
  -7   5 -18 289.745 129.581  16
   7   6   0-115.310 76.8338   2
   7   6   1 2913.53 257.836   2
   7   6  -1 2900.98 255.378   2
  -7  -6  -2 82103.7 1428.13   3
   7   6   2 81537.4 1350.57   2
  -7  -6  -3 1503.91 261.923   3
   7   6   3 120.265 73.2004   2
  -7  -6  -4 820.475 180.377   3
   7   6   4 155.699 81.5260   2
  -7  -6  -5 3830.57 317.730   3
   7   6   5 4277.51 330.357   2
  -7  -6  -6 189.111 70.1769   3
   7   6   6 769.645 159.907   2
  -7  -6  -7 1209.10 195.395   3
   7   6   7 1172.05 187.861   2
  -7  -6  -8 9122.20 513.810   3
   7   6   8 9843.38 544.995   2
  -7  -6  -9 6250.40 434.716   3
   7   6   9 6649.66 465.361   2
   7   6  10 2483.12 296.760   2
   7   6 -10 2899.59 376.524  16
   7   6 -11 2097.68 302.036  13
   7   6 -11 2012.43 271.546  11
  -7  -6 -11 2064.65 290.898  17
   7   6 -11 2415.34 349.724  16
   7   6 -12 6043.48 519.791  13
   7   6 -12 6610.79 516.081  11
   7   6 -12 7083.76 587.293  16
   7   6 -13 202.761 110.771  13
   7   6 -13 357.588 164.847  11
   7   6 -14 116.920 100.846  14
   7   6 -14 191.597 118.917  13
   7   6 -14-59.2524 116.130  11
   7   6 -15 226.239 119.616  13
   7   6 -15 385.422 146.326  11
   7   6 -15 185.105 120.999  14
   7   6 -16 807.592 190.202  13
   7   6 -16 427.057 148.461  14
   7   6 -16 465.831 149.081  11
   7   6 -17 113.510 99.0991  14
   7   6 -17-2.44478 72.9754  13
   7   6 -17 96.4987 88.3259  11
  -7   6 -17 133.904 78.3400  16
   7   6 -18-62.2200 69.3024  14
   7   6 -18 114.831 81.5037  13
   7   6 -18 217.567 103.919  11
  -7   6 -18-153.743 110.526  16
   7   7   0 100.369 75.5490   2
  -7  -7  -1 3434.55 412.526   3
   7   7   1-22.3713 63.9620   2
  -7  -7  -2 2187.45 304.935   3
   7   7   2 518.958 118.132   2
   7   7   3 3902.87 301.634   1
   7   7   3 3927.81 313.782   2
  -7  -7  -4 4695.22 370.845   3
   7   7   4 4566.84 346.288   2
  -7  -7  -5 35071.3 1003.59   3
  -7  -7  -6 4654.66 365.541   3
  -7  -7  -7 33.9483 78.2915   3
  -7  -7  -8 171.651 80.0404   3
  -7   7  -9 64361.4 1369.99   5
  -7  -7  -9 4851.30 401.896   3
   7   7 -10 5412.53 468.163  13
  -7  -7 -10 5831.51 501.586  17
   7   7 -10 5494.53 453.469  11
   7   7 -11 2555.42 337.245  13
   7   7 -11 2179.17 299.623  11
  -7  -7 -11 2648.37 343.239  17
   7   7 -12 865.802 210.529  13
   7   7 -12 806.924 182.410  11
  -7  -7 -12 711.809 209.500  17
   7   7 -13 589.598 196.409  13
   7   7 -13 730.506 195.181  11
   7   7 -14-37.0014 94.7617  14
   7   7 -14-30.3007 126.572  13
   7   7 -14 22.6919 97.4135  11
   7   7 -15 633.636 185.704  14
   7   7 -15 760.457 186.847  13
   7   7 -15 1104.21 210.445  11
   7   7 -16 122.833 92.5494  14
   7   7 -16 116.645 97.7359  13
  -7   7 -16 28.0355 86.3490  16
   7   7 -17 345.863 126.513  14
   7   7 -17 580.939 141.451  13
   7   7 -17 486.921 132.449  11
  -7   7 -17 454.134 141.588  16
  -7  -8   0 4580.37 423.177   3
  -7  -8  -1 15466.4 694.776   3
  -7  -8  -2 1250.18 239.809   3
  -7  -8  -3 1027.55 199.932   3
   7   8   3 700.349 142.786   1
   7   8   4 5840.31 400.458   1
  -7  -8  -4 4814.67 385.797   3
  -7  -8  -5 34251.7 1028.14   3
  -7  -8  -6 268.092 105.000   3
  -7  -8  -7 188.602 68.6012   3
  -7  -8  -8 962.678 184.221   3
   7   8  -9 8269.74 576.005   9
  -7  -8  -9 8024.85 573.309  17
  -7  -8 -10 782.978 189.963  17
   7   8 -10 735.214 206.819   9
   7   8 -11 212.425 139.102  13
  -7  -8 -11-153.884 147.015  17
   7   8 -12 1092.59 232.301  13
  -7  -8 -12 686.936 175.194  17
   7   8 -13 737.268 181.355  13
   7   8 -14 10.9563 86.2945  13
   7   8 -14 55.6909 112.792  14
   7   8 -15 644.191 175.677  14
   7   8 -15 586.844 156.849  13
  -7   8 -15 610.522 168.010  16
   7   8 -16 9.08850 93.1344  14
   7   8 -16 287.033 121.068  13
  -7   8 -16 125.822 78.1045  16
   7   8 -17 746.717 153.819  13
   7   8 -17 622.276 148.961  14
  -7   8 -17 415.773 126.158  16
  -7  -9   0 1796.98 301.341   3
  -7  -9  -1 3658.83 367.965   3
  -7  -9   1 5697.57 471.261   3
  -7  -9  -2 2213.74 287.713   3
   7   9   2 1783.46 225.635   1
  -7  -9  -3 24850.7 894.968   3
   7   9   3 25317.5 848.379   1
  -7  -9  -4 863.684 158.231   3
   7   9   4 1022.58 179.538   1
  -7  -9  -5 5253.48 425.791   3
   7   9   5 4963.83 396.399   1
   7   9   6 618.281 151.424   1
  -7  -9  -6 856.489 182.270   3
  -7  -9  -7 16.1131 77.3520   3
  -7  -9  -7 89.4367 87.0941  18
   7   9  -7 147.390 115.742   9
  -7  -9  -7 56.1513 95.1732  17
   7   9  -7 142.337 118.257   8
   7   9  -8 929.071 212.257   9
  -7  -9  -8 861.334 207.763  18
  -7  -9  -8 925.054 207.504  17
  -7  -9  -9 350.541 156.246  17
  -7  -9  -9 622.588 201.472  18
   7   9  -9 570.840 180.538   9
  -7  -9 -10 1222.36 250.696  17
   7   9 -10 991.146 210.339   9
   7   9 -11 3154.41 372.187   9
  -7  -9 -11 3224.76 382.895  17
   7   9 -12 2169.08 315.465   9
  -7  -9 -12 1849.44 283.743  17
   7   9 -13 913.153 195.171  13
   7   9 -13 955.261 210.438  14
  -7   9 -13 737.028 191.470  16
   7   9 -14-71.8871 89.8667  14
   7   9 -14 148.790 88.9433  13
  -7   9 -14 102.858 86.3735  16
   7   9 -15 3.33048 82.2588  14
   7   9 -15-23.1896 74.0019  13
  -7   9 -15-49.8186 111.794  16
   7   9 -16 12.3565 72.3566  14
   7   9 -16 9.36731 67.9403  13
  -7   9 -16 141.312 93.4851  16
  -7 -10   0 414.724 166.019   3
  -7 -10  -1 631.265 175.320   3
  -7 -10  -2 26638.3 947.290   3
   7  10   2 26306.9 894.780   1
   7  10   3 102.252 77.5081   1
  -7 -10  -3-0.93934 113.145   3
  -7 -10  -4 1516.20 239.772   3
   7  10   4 1408.41 215.008   1
  -7 -10  -5 3031.30 336.885   3
   7  10   5 2751.88 316.008   1
   7  10  -5 3264.54 370.905   9
   7  10  -5 3641.65 400.300   8
  -7 -10  -5 3197.59 368.852  18
  -7 -10  -6 1932.67 290.988  18
  -7 -10  -6 2155.94 302.830  17
   7  10  -6 2133.21 315.674   9
   7  10  -6 2109.07 304.052   8
  -7 -10  -7 555.727 180.021  18
   7  10  -7 341.587 159.275   9
  -7 -10  -7 222.673 117.674  17
   7  10  -7 454.010 165.313   8
  -7 -10  -8 2759.20 351.903  18
   7  10  -8 2767.07 358.040   9
  -7 -10  -8 3010.95 364.895  17
   7  10  -8 2639.89 352.217   8
   7  10  -9 105.654 110.795   9
  -7 -10  -9 446.854 168.847  17
   7  10  -9 160.807 153.210   8
  -7 -10  -9 183.994 100.376  18
  -7 -10 -10 852.036 214.719  17
   7  10 -10 927.089 206.527   9
   7  10 -11 28.4160 102.014   9
  -7 -10 -11-7.23792 112.833  17
   7  10 -12 3400.09 372.743   9
  -7 -10 -12 2798.47 342.626  17
   7  10 -12 2660.34 325.671  14
   7  10 -13-41.6781 92.9738  14
   7  10 -13 96.6005 101.690   9
   7  10 -14 289.678 130.873  14
   7  10 -15 35.5663 63.8645  14
  -7  10 -16 407.574 139.577   8
   7  11   0 19.6902 93.8462   9
  -7 -11  -1 1124.42 184.572   3
  -7 -11  -1 1816.92 269.097  19
   7  11  -1 1571.63 251.569  10
   7  11   1 1537.74 258.743   9
   7  11  -1 1681.46 272.590   9
  -7 -11  -2 2724.33 342.451  18
   7  11  -2 2223.82 310.883   9
   7  11   2 1870.11 253.779   1
   7  11  -2 2537.38 349.124   8
   7  11   3 201.163 82.7878   1
   7  11  -3 534.708 182.707   9
  -7 -11  -3 381.696 154.122  18
   7  11  -3 231.664 127.438   8
   7  11  -4 3456.09 400.873   8
  -7 -11  -4 3698.01 393.724  18
   7  11  -4 3453.15 400.723   9
  -7 -11  -5 2090.12 317.409  18
   7  11  -5 2062.34 327.324   9
   7  11  -5 2332.86 343.063   8
  -7 -11  -6 3577.91 416.326  18
   7  11  -6 3724.73 426.095   9
  -7 -11  -6 3403.71 392.622  17
   7  11  -6 3622.64 420.295   8
  -7 -11  -7 1385.75 276.876  18
   7  11  -7 1507.03 278.204   9
  -7 -11  -7 1399.10 286.087  17
   7  11  -7 1809.69 300.087   8
   7  11  -8 15.4292 116.685   9
  -7 -11  -8 30.7529 130.922  18
  -7 -11  -8-64.9882 156.395  17
   7  11  -8 279.703 156.061   8
   7  11  -9 834.099 203.456   9
  -7 -11  -9 1018.87 238.478  17
   7  11  -9 572.079 183.274   8
  -7 -11  -9 1070.59 241.987  18
   7  11 -10 2464.52 337.711   9
  -7 -11 -10 2709.18 353.636  17
   7  11 -10 2624.82 348.323   8
  -7 -11 -11 346.876 159.221  17
   7  11 -11 200.751 112.012   9
   7  11 -12 1715.78 262.332   9
   7  11 -13 760.205 157.222  14
   7  11 -13 902.783 195.434   9
   7  11 -14 36.1629 60.6724  14
   7  11 -14 127.501 114.195   9
  -7  11 -14 121.211 103.543   8
  -7  11 -15 59.2250 82.8379   8
  -7 -12   0-6.98133 92.9420  19
   7  12   0 36.7496 107.238   9
   7  12   1 930.377 215.607   9
   7  12  -1 747.700 189.336   9
  -7 -12  -1 757.161 208.506  18
   7  12  -2 982.529 219.243  10
   7  12  -2 875.516 230.358   9
  -7 -12  -2 969.362 233.011  18
   7  12  -3 149.273 157.303   9
   7  12  -3 79.9986 126.142   8
  -7 -12  -3 82.3095 110.390  18
   7  12  -4 327.265 172.334   9
   7  12  -4 427.541 127.637   8
  -7 -12  -4 539.209 190.091  18
   7  12  -5 2959.99 371.820   9
   7  12  -5 2357.06 335.041   8
  -7 -12  -5 2544.07 358.407  18
  -7 -12  -6 304.514 161.571  18
   7  12  -6-9.66541 119.363   9
  -7 -12  -6 227.499 143.948  17
   7  12  -6-13.0943 140.428   8
  -7 -12  -7 845.253 211.538  18
   7  12  -7 751.893 214.221   9
  -7 -12  -7 1224.41 247.559  17
   7  12  -7 548.481 181.058   8
  -7 -12  -8 313.706 155.717  18
  -7 -12  -8 416.130 176.288  17
   7  12  -8 195.875 159.862   9
   7  12  -8 81.5717 103.612   8
   7  12  -9 1559.37 274.563   9
  -7 -12  -9 1772.42 293.205  17
   7  12  -9 1533.11 275.966   8
   7  12 -10 461.679 183.506   9
  -7 -12 -10 136.557 106.843  17
   7  12 -10 434.457 147.504   8
   7  12 -11 1583.86 266.659   9
   7  12 -11 1368.24 236.536   8
  -7  12 -11 1076.84 233.149   8
   7  12 -12 1242.46 225.540   9
  -7  12 -12 1331.05 234.676   8
   7  12 -13-53.1490 73.8914   9
  -7  12 -13-37.7288 95.9585   8
  -7  12 -14-11.7710 90.7749   8
   7  13   0 51.8087 105.731   9
   7  13  -1 10.1524 126.320   9
  -7 -13  -1-49.9433 121.478  18
  -7 -13  -2-6.00918 100.685  18
   7  13  -2-47.2655 122.836   9
   7  13  -3 997.133 218.080  10
  -7 -13  -3 1230.78 262.610  18
   7  13  -3 1152.30 265.029   9
   7  13  -4 3699.36 433.439   8
  -7 -13  -4 4093.73 433.124  18
   7  13  -4 4092.72 440.895   9
  -7 -13  -5 2015.51 316.246  18
   7  13  -5 1900.93 308.513   9
   7  13  -5 2029.08 324.294   8
  -7 -13  -6 1186.27 253.687  17
  -7 -13  -6 1109.62 251.876  18
   7  13  -6 877.063 217.717   9
   7  13  -6 1350.98 276.468   8
   7  13  -7-42.0988 109.136   9
  -7 -13  -7 36.5885 107.986  18
  -7 -13  -7-100.654 126.031  17
   7  13  -7-54.2541 136.849   8
  -7 -13  -8 61.5176 101.072  18
  -7 -13  -8-70.9759 98.6044  17
   7  13  -8 137.555 129.620   8
   7  13  -8 98.4661 150.376   9
   7  13  -9 923.266 228.162   9
  -7 -13  -9 889.595 193.129  17
   7  13  -9 739.138 197.336   8
   7  13 -10-2.38157 99.4651   9
   7  13 -10 279.338 121.989   8
   7  13 -11 510.359 153.681   9
   7  13 -11 342.179 153.322   8
   7  13 -12 198.358 113.152   9
  -7 -14   0 38.7616 108.201  18
   7  14  -1 136.779 149.070   9
  -7 -14  -1 15.4057 105.319  18
   7  14  -2 975.537 227.519   9
  -7 -14  -2 751.375 213.244  18
   7  14  -3 331.954 137.012   9
  -7 -14  -3 187.455 118.801  18
  -7 -14  -4 836.791 214.978  18
   7  14  -4 890.567 203.375  10
   7  14  -4 846.900 243.439   9
  -7 -14  -5 1913.13 308.184  18
   7  14  -5 2329.38 312.616  10
   7  14  -5 1989.19 293.414   9
  -7 -14  -5 2623.01 342.822  17
  -7 -14  -6 848.254 204.957  18
   7  14  -6 903.762 216.604   9
   7  14  -6 1454.34 280.280   8
  -7 -14  -6 1010.81 226.098  17
   7  14  -7 100.237 107.954   8
  -7 -14  -7-5.51116 119.282  18
   7  14  -7 259.909 141.376   9
  -7 -14  -7 36.2567 109.482  17
   7  14  -8 1133.64 243.886   9
  -7 -14  -8 1236.05 233.579  18
  -7 -14  -8 1162.44 218.720  17
   7  14  -8 1453.39 256.499   8
   7  14  -9 364.978 147.220   9
   7  14  -9 496.665 157.298   8
   7  14 -10 23.5336 84.1349   9
   7  14 -10-111.948 80.3562   8
   7  14 -11 92.6103 84.3538   9
  -7 -15   0 93.2698 93.7980  18
  -7 -15  -1 633.080 194.444  18
  -7 -15   1 794.956 210.921  18
   7  15  -2 701.761 183.245   9
  -7 -15  -2 849.539 209.767  18
  -7 -15   2 660.047 183.520  18
  -7 -15  -3 2023.50 301.111  18
   7  15  -3 1976.29 307.992   9
   7  15  -4 586.152 179.528   9
  -7 -15  -4 502.932 190.699  18
  -7 -15  -4 769.584 198.544  17
   7  15  -5-69.3023 106.707   9
  -7 -15  -5-153.533 123.116  18
  -7 -15  -5-89.6552 116.174  17
   7  15  -6-130.774 95.6991  10
   7  15  -6-58.7612 110.413   9
  -7 -15  -6-40.7295 89.2064  18
  -7 -15  -6 20.7445 100.508  17
   7  15  -7-20.4945 96.7513   9
   7  15  -7-43.0584 100.473  10
  -7 -15  -7 120.492 103.483  18
  -7 -15  -7 272.312 117.361  17
   7  15  -8 121.832 104.298  10
   7  15  -8 52.8354 80.8834   9
   7  15  -9 15.4295 78.4843   9
   7  15  -9 75.5103 94.4152  10
   7  15 -10 323.031 116.666   9
  -7 -16   0-19.1867 90.8974  18
   7 -16   0-81.2898 79.2175  19
   7 -16   1 540.625 166.556  19
  -7 -16  -1 327.372 145.470  18
  -7 -16   1 552.532 164.773  18
  -7 -16  -2 2384.82 311.511  18
  -7 -16   2 2123.67 285.856  18
   7 -16   3 46.8016 95.5734  20
  -7 -16  -3-40.4996 106.754  18
  -7 -16   3 185.954 88.7791  18
  -7 -16  -3 69.8073 102.317  17
   7 -16   4 96.7462 105.870  20
   7  16  -4-44.0382 88.6766   9
  -7 -16   4-84.2768 111.669  18
  -7 -16  -4 122.932 93.9836  17
  -7 -16  -4-76.4151 109.434  18
   7 -16   5 15.3139 95.5948  20
   7  16  -5-64.5585 108.677   9
  -7 -16  -5 131.207 105.464  18
  -7 -16   5-47.5584 101.282  18
  -7 -16  -5-19.0500 93.1121  17
  -7 -16  -6-44.5649 90.3211  17
   7 -16   6 11.5278 98.2309  20
   7  16  -6-103.683 103.921   9
  -7 -16  -6-13.1943 78.3979  18
   7 -16   7 97.3419 97.8961  20
   7  16  -7-157.139 100.440   9
   7 -16   8-24.7725 70.0376  20
   7  16  -8-81.9740 85.2515   9
   7 -17   0-46.4522 86.0649  19
  -7 -17   0-113.337 94.9823  18
   7 -17   1-99.8790 101.713  19
  -7 -17   1 60.0027 79.4190  18
  -7 -17  -1 45.9716 87.7314  18
  -7 -17  -2 112.513 95.3490  17
   7 -17   2 75.4013 77.7291  19
  -7 -17  -2 29.4013 72.4416  18
   7 -17   3-82.7429 76.8290  19
  -7 -17   3-40.0834 71.3608  18
  -7 -17  -3 80.2572 98.2947  18
  -7 -17  -3 215.688 104.106  17
   7 -17   4 308.559 119.238  19
  -7 -17  -4 437.018 133.908  18
  -7 -17   4 408.321 128.273  18
   7 -17   5 34.5409 73.5951  19
   8   0   0 49115.6 979.561   2
   8   0   1-43.1339 74.5103   2
   8   0  -1 448.311 104.372   2
   8   0  -2 29355.6 763.212   2
   8   0   2 30270.9 782.460   2
   8   0   3 29.5032 67.2669   2
   8   0   4 37874.8 906.054   2
   8   0   5-14.2142 56.3704   2
   8   0   6 86399.0 1456.43   2
   8   0   7-9.74205 61.6573   2
   8   0   8 28731.5 889.813   2
   8   0   9 12.2686 65.6199   2
   8   0  10 10693.6 584.475   2
   8   0  11 95.4722 78.6158   2
   8   0 -12 261.092 122.149  13
  -8   0 -12 396.646 168.066   7
   8   0 -12 106.349 96.6426  14
   8   0 -13-89.4648 107.530  14
  -8   0 -13 80.3467 115.546   7
   8   0 -13 117.984 119.881  13
   8   0 -14 232.062 130.701  13
  -8   0 -14 114.661 120.041   7
   8   0 -15 39.1349 111.465  13
  -8   0 -15 56.0521 105.250   7
   8   0 -16 10468.7 632.142  11
  -8   0 -16 10990.5 691.854   7
  -8   0 -17 76.0883 115.626   7
   8   0 -17-179.967 145.047  11
  -8   0 -18 379.369 139.183   7
   8   0 -18 143.483 104.643  11
  -8   0 -19 67.0133 72.2418   7
   8   1   0 3245.15 257.503   2
   8  -1   0 3238.21 250.255   2
   8   1  -1 4316.28 304.190   2
   8  -1  -1 4395.21 291.954   2
   8   1   1 4208.93 297.604   2
   8  -1   1 4394.98 291.821   2
   8   1  -2 4439.63 310.056   2
   8  -1  -2 4332.75 296.356   2
   8  -1   2 4325.19 297.685   2
   8   1   2 4086.60 299.200   2
   8  -1   3 1513.05 182.442   2
   8   1   3 1599.49 195.679   2
   8  -1   4 510.878 121.549   2
   8   1   4 405.793 108.041   2
   8  -1   5 174.839 88.4248   2
   8   1   5 222.503 101.582   2
   8  -1   6 2056.89 228.179   2
   8   1   6 2054.90 231.216   2
   8  -1   7 181.429 89.1517   2
   8   1   7 2.98180 59.7106   2
   8  -1   8 8338.40 480.857   2
   8   1   8 8798.77 508.396   2
   8  -1   9 2543.48 272.657   2
   8   1   9 2713.81 289.490   2
   8  -1  10 301.332 123.030   2
   8   1  10 248.267 116.361   2
   8  -1  11 120.961 99.8706   2
   8   1  11 79.1394 76.8569   2
   8   1 -12 840.238 203.988  13
  -8   1 -12 788.907 207.214   7
  -8  -1 -12 990.381 248.179   7
   8   1 -12 779.073 195.836  14
   8   1 -13 1209.00 251.147  13
  -8   1 -13 1323.49 271.188   7
  -8  -1 -13 1211.69 257.546   7
   8   1 -13 1422.62 267.943  14
  -8  -1 -14 2757.29 367.142   7
   8   1 -14 2625.70 358.554  13
  -8   1 -14 2513.91 350.546   7
   8   1 -14 2959.64 352.546  14
   8   1 -15 925.237 210.006  14
   8   1 -15 680.852 186.859  13
  -8   1 -15 675.579 193.159   7
  -8  -1 -15 773.740 226.370   7
   8   1 -16 1479.63 263.305  13
  -8   1 -16 1215.79 239.715   7
  -8  -1 -16 1300.12 246.128   7
   8   1 -16 1447.59 261.368  11
   8  -1 -16 1615.67 263.329  11
  -8   1 -17 317.063 131.505   7
  -8  -1 -17 60.0978 98.6632   7
   8   1 -17 240.317 138.415  13
   8   1 -17-65.7519 120.588  11
   8  -1 -17-81.6484 109.246  11
  -8   1 -18 104.686 82.1432   7
  -8  -1 -18 33.3114 78.4010   7
   8  -1 -18 92.0392 84.7646  11
   8   1 -18 190.669 87.8617  11
   8   2   0 7448.96 400.717   2
   8  -2   0 7441.35 368.782   2
   8   2  -1 67377.0 1203.20   2
   8  -2  -1 71167.7 1131.95   2
   8   2   1 67441.5 1186.01   2
   8  -2   1 70758.7 1128.18   2
   8   2  -2 4867.23 325.761   2
   8  -2   2 5113.41 318.034   2
   8   2   2 4819.08 327.265   2
   8  -2   3 20058.1 632.639   2
   8   2   3 19162.4 656.439   2
   8  -2   4 5904.80 354.138   2
   8   2   4 5390.89 362.046   2
  -8  -2  -5 8312.88 410.391   3
   8  -2   5 9296.56 453.981   2
   8   2   5 8363.96 458.193   2
   8  -2   6 14452.8 583.380   2
   8   2   6 13628.2 598.370   2
   8  -2   7 2878.36 276.163   2
   8   2   7 2943.33 288.418   2
   8  -2   8 7079.93 437.395   2
   8   2   8 7057.33 459.500   2
   8  -2   9 25496.1 859.990   2
   8   2   9 24297.6 879.966   2
   8  -2  10-173.553 105.460   2
   8   2  10 201.245 74.5797   2
   8   2 -11 4575.07 438.943  13
  -8  -2 -11 4598.94 458.319   7
   8  -2  11 4076.29 370.641   2
   8   2  11 4080.72 384.196   2
   8   2 -11 4241.98 413.866  14
   8   2 -12 14.0395 102.778  13
  -8   2 -12 78.7920 98.5223   7
  -8  -2 -12-212.416 151.143   7
   8   2 -12-112.870 120.526  14
  -8   2 -13 14872.2 827.890   7
  -8  -2 -13 15614.9 865.731   7
   8   2 -13 15437.6 836.476  13
   8   2 -13 15220.0 806.396  14
   8   2 -14 65.0679 103.060  14
   8   2 -14 68.7597 104.029  13
  -8   2 -14-30.5636 102.423   7
  -8  -2 -14-3.48136 111.386   7
   8   2 -15 1923.06 283.061  14
  -8   2 -15 1572.02 285.587   7
  -8  -2 -15 1754.24 313.261   7
   8   2 -15 1892.97 301.342  13
   8   2 -16 522.778 146.690  14
  -8   2 -16 712.621 181.711   7
  -8  -2 -16 764.801 208.893   7
   8   2 -16 663.691 184.444  13
   8   2 -16 855.651 206.079  11
   8   2 -17-112.246 129.343  13
  -8   2 -17 74.0396 79.2613   7
  -8  -2 -17-103.494 92.1532   7
   8   2 -17-188.723 154.468  11
  -8   2 -18-122.347 93.7322   7
  -8  -2 -18 28.6746 71.1875   7
   8   2 -18 18.2140 87.0924  11
   8   3   0 13654.6 551.844   2
   8   3  -1 21923.8 709.565   2
   8   3   1 21949.6 689.496   2
   8   3   2 5.02822 62.0154   2
   8   3  -2 33.0479 70.8575   2
   8   3   3 10670.5 506.794   2
  -8  -3  -4 2265.66 265.330   3
   8   3   4 1446.22 188.556   2
  -8  -3  -5 1564.10 211.584   3
   8   3   5 1618.33 219.371   2
  -8  -3  -6 2164.48 222.328   3
   8   3   6 2161.21 246.030   2
   8   3   7 2713.48 276.991   2
   8   3   8 511.236 137.785   2
   8   3   9 11521.3 612.880   2
   8   3  10 42.6655 82.1578   2
   8   3 -11 1507.23 253.742  14
   8   3 -11 1118.67 202.833  13
  -8   3 -11 1489.53 262.058   7
  -8  -3 -11 1345.12 260.267   7
   8   3  11 1097.61 208.759   2
   8   3 -12 127.961 102.732  14
   8   3 -12-5.55749 121.720  13
  -8   3 -12 68.3674 113.004   7
  -8  -3 -12-2.78967 98.6348   7
   8   3 -13 1528.89 265.625  14
   8   3 -13 1598.83 276.505  13
  -8   3 -13 1373.02 258.405   7
  -8  -3 -13 1317.90 270.245   7
   8   3 -14 62.4577 92.6532  14
   8   3 -14 145.469 109.262  13
  -8   3 -14-93.1239 131.471   7
  -8  -3 -14 292.813 163.484   7
   8   3 -14-1.25632 117.402  11
   8   3 -15 4130.72 439.906  13
   8   3 -15 3957.09 418.628  11
   8   3 -15 4281.74 427.473  14
  -8   3 -15 4068.33 429.577   7
  -8  -3 -15 4605.70 455.983   7
   8   3 -16 41.6543 87.5000  14
   8   3 -16 67.3297 122.387  13
  -8   3 -16 12.8279 85.8420   7
  -8  -3 -16 174.329 110.228   7
   8   3 -16-34.0270 129.861  11
   8   3 -17 67.0707 97.7207  13
  -8   3 -17-4.80718 96.6341   7
  -8  -3 -17 12.1946 86.5842   7
   8   3 -17-83.0090 122.071  11
   8   3 -17-20.2798 72.6275  14
  -8   3 -18 155.265 87.2757   7
  -8  -3 -18 31.4679 70.5551   7
   8   3 -18 115.655 102.864  11
  -8   3 -18 23.3234 76.5166  16
   8   4   0 8394.45 442.416   2
   8   4   1 55246.3 1128.14   2
   8   4  -1 55070.4 1131.22   2
   8   4  -2 25701.0 782.256   2
   8   4   2 26272.5 781.274   2
   8   4   3 13482.1 576.799   2
  -8  -4  -4 17546.5 646.724   3
   8   4   4 18310.2 678.911   2
  -8  -4  -5 5032.75 356.925   3
   8   4   5 5002.90 367.981   2
  -8  -4  -6 40270.7 995.402   3
   8   4   6 45478.8 1124.19   2
  -8  -4  -7 797.006 130.826   3
   8   4   7 770.937 157.482   2
   8   4   8 11990.2 615.211   2
   8   4   9 19093.4 796.740   2
   8   4  10 1254.78 205.885   2
   8   4 -11 2278.75 318.481  14
   8   4 -11 2297.02 325.666  13
  -8  -4 -11 1966.42 320.712   7
   8   4 -11 2130.51 303.960  11
   8   4 -12 465.011 175.962  14
   8   4 -12 618.546 199.820  13
  -8   4 -12 441.614 161.738   7
  -8  -4 -12 382.632 174.082   7
   8   4 -12 560.651 169.665  11
  -8  -4 -13 4698.00 486.103   7
   8   4 -13 4877.13 475.488  13
   8   4 -13 5437.70 483.961  11
   8   4 -13 5330.20 496.705  14
  -8   4 -13 5090.36 476.562   7
   8   4 -14 189.085 135.043  14
   8   4 -14-26.0156 105.874  13
  -8   4 -14 97.0610 109.302   7
  -8  -4 -14 32.5900 103.091   7
   8   4 -14 291.445 167.542  11
   8   4 -15 2090.69 292.691  14
   8   4 -15 2049.77 321.886  13
  -8   4 -15 1763.57 276.005   7
  -8  -4 -15 1812.72 289.909   7
   8   4 -15 2065.00 301.779  11
   8   4 -16 2085.68 277.690  14
   8   4 -16 2101.14 295.408  13
  -8   4 -16 2012.76 278.295   7
  -8  -4 -16 2057.92 290.840   7
   8   4 -16 1851.59 278.990  11
   8   4 -17 55.7152 74.4271  14
  -8   4 -17 124.228 95.8265   7
   8   4 -17 2.76124 93.5518  13
  -8  -4 -17 95.0756 88.5503   7
   8   4 -17 84.9147 93.0474  11
  -8   4 -18-49.7975 84.7096   7
  -8  -4 -18 121.604 66.0982   7
   8   4 -18 204.594 99.7104  11
  -8   4 -18 135.062 91.3553  16
   8   4 -18 41.7201 66.7762  14
   8   5   0 13515.0 573.752   2
   8   5   1 243.951 79.3225   2
   8   5  -1 377.977 107.645   2
   8   5   2 7858.88 449.305   2
  -8  -5  -3 3191.81 351.363   3
   8   5   3 135.056 83.0604   2
  -8  -5  -4 1827.57 250.594   3
   8   5   4 601.164 140.463   2
  -8  -5  -5 1562.80 225.376   3
   8   5   5 1245.90 194.963   2
  -8  -5  -6 7099.06 442.789   3
   8   5   6 7965.33 492.855   2
  -8  -5  -7 80.6713 80.0102   3
   8   5   7 402.267 120.518   2
  -8  -5  -8 11415.2 569.460   3
   8   5   8 13516.8 660.183   2
   8   5   9 597.005 152.419   2
   8   5 -10 108.012 135.182  14
   8   5 -10 0.13647 87.4544  13
   8   5 -10 56.3185 100.170  11
   8   5  10 101.617 99.5871   2
  -8  -5 -10-19.7207 123.372  17
   8   5 -11 369.449 173.876  14
   8   5 -11 186.592 115.222  13
  -8  -5 -11 250.609 136.842   7
   8   5 -11 85.8371 109.404  11
  -8  -5 -11-27.0697 133.423  17
   8   5 -12 81.1229 143.766  14
   8   5 -12 45.3510 126.184  13
  -8  -5 -12-44.0241 114.871   7
   8   5 -12 60.4505 140.032  11
   8   5 -13 1301.18 263.332  14
   8   5 -13 1203.07 228.497  13
  -8  -5 -13 1590.33 274.459   7
   8   5 -13 1443.55 253.760  11
   8   5 -14 2576.56 357.364  13
   8   5 -14 2473.22 323.100  11
   8   5 -14 2481.96 335.266  14
  -8  -5 -14 2779.74 366.559   7
   8   5 -15 286.384 97.9952  14
   8   5 -15 386.800 163.396  13
  -8  -5 -15 544.956 179.213   7
   8   5 -15 127.683 116.437  11
   8   5 -16 710.730 179.015  14
   8   5 -16 1109.20 229.550  13
   8   5 -16 547.962 166.221  11
   8   5 -17 147.202 91.7243  14
   8   5 -17-1.96840 71.5466  13
   8   5 -17-77.4587 106.272  11
  -8   5 -17-139.830 103.402  16
   8   5 -18 151.930 94.5770  11
  -8   5 -18-12.6922 66.2206  16
   8   5 -18-2.45325 59.5706  14
   8   6   0 1376.55 194.791   2
   8   6   1 2149.83 245.047   2
   8   6  -1 2177.03 241.192   2
   8   6   2 24901.0 807.346   2
  -8  -6  -2 30356.7 912.557   3
  -8  -6  -3 5367.34 442.782   3
   8   6   3 3639.19 314.770   2
  -8  -6  -4 15353.7 661.781   3
   8   6   4 14888.6 649.819   2
  -8  -6  -5 403.447 130.878   3
   8   6   5 505.282 141.584   2
  -8  -6  -6 40199.1 1085.31   3
   8   6   6 43765.0 1146.59   2
  -8  -6  -7 3.74753 76.8781   3
   8   6   7 180.868 99.1363   2
  -8  -6  -8 21120.3 806.987   3
   8   6   8 22476.6 869.631   2
  -8  -6  -9 4906.72 447.799  17
   8   6   9 4314.88 394.280   2
   8   6 -10 1002.54 213.267  14
   8   6 -10 1031.14 224.327  13
   8   6 -10 1159.76 224.865  11
  -8  -6 -10 1007.27 216.654  17
   8   6 -11 129.300 110.126  13
   8   6 -11-175.058 133.088  11
  -8  -6 -11-104.070 117.784  17
   8   6 -12-72.5303 134.132  14
   8   6 -12 10.5887 101.507  13
   8   6 -12-29.2954 117.500  11
   8   6 -13 905.077 206.185  14
   8   6 -13 1078.35 225.792  13
   8   6 -13 1041.78 224.371  11
   8   6 -14 170.819 109.003  14
   8   6 -14 293.628 130.057  13
   8   6 -14-87.3151 133.142  11
   8   6 -15-87.0168 105.701  14
   8   6 -15 106.731 116.292  13
   8   6 -15 141.463 131.073  11
   8   6 -16 3474.21 343.333  11
   8   6 -16 3650.81 373.404  13
   8   6 -16 3622.42 355.942  14
   8   6 -17 354.441 122.097  14
   8   6 -17 151.499 83.3749  13
   8   6 -17 212.446 91.5100  11
  -8   6 -17 124.223 95.4858  16
   8   7   0 161.821 89.8219   2
   8   7   1 6805.59 441.061   2
  -8  -7  -1 14889.0 685.791   3
  -8  -7  -2 3859.02 376.233   3
   8   7   2-30.1212 73.5351   2
  -8  -7  -3 1534.37 262.986   3
   8   7   3 47.2741 76.7560   2
  -8  -7  -4 492.095 155.798   3
   8   7   4 350.250 114.427   2
  -8  -7  -5 64.2412 73.8869   3
   8   7   5 79.1681 80.2891   2
  -8  -7  -6 1738.10 228.573   3
   8   7   6 2414.10 274.302   2
  -8  -7  -7 390.455 122.687   3
  -8  -7  -8 2231.29 279.982   3
   8   7  -9 4799.72 449.890  13
   8   7  -9 5903.02 478.117  11
  -8  -7  -9 5444.60 496.340  17
   8   7  -9 5242.13 456.933  14
   8   7 -10 365.723 143.775  14
   8   7 -10 295.800 124.248  13
   8   7 -10-8.53079 118.254  11
  -8  -7 -10 412.637 152.661  17
   8   7 -11 1539.28 282.498  14
   8   7 -11 1198.86 254.464  13
   8   7 -11 1519.67 258.394  11
  -8  -7 -11 1510.82 265.860  17
   8   7 -12 184.876 140.325  14
   8   7 -12 133.024 112.928  13
   8   7 -12 198.429 152.000  11
   8   7 -13 459.363 181.642  14
   8   7 -13 670.796 205.376  13
   8   7 -13 544.223 159.894  11
   8   7 -14 868.045 202.282  14
   8   7 -14 936.534 207.828  13
   8   7 -14 1116.58 228.090  11
   8   7 -15 1304.56 232.588  14
   8   7 -15 1238.82 220.134  13
   8   7 -15 1193.14 217.874  11
   8   7 -16 767.561 179.058  14
   8   7 -16 599.886 165.272  13
   8   7 -16 487.316 144.241  11
  -8   7 -16 497.072 142.124  16
   8   7 -17-39.4533 75.6210  14
   8   7 -17-181.517 100.279  11
  -8   7 -17-183.766 95.9901  16
  -8  -8   0 12729.7 684.104   3
  -8  -8  -1 38634.1 1112.53   3
  -8  -8  -2 1296.61 281.643   3
  -8  -8  -3 8137.43 523.517   3
  -8  -8  -4 1489.75 229.493   3
  -8  -8  -5 1878.15 243.514   3
  -8  -8  -6 2.21498 96.0732   3
   8   8  -7 738.100 174.623   9
  -8  -8  -7 620.091 159.250   3
  -8  -8  -7 534.661 146.660  18
  -8  -8  -7 566.814 144.550  17
  -8  -8  -8 922.991 223.228  18
   8   8  -8 838.040 212.373   9
  -8  -8  -8 875.260 215.730  17
   8   8  -9 10404.0 652.266   9
  -8  -8  -9 10404.5 669.768  17
   8   8  -9 9312.21 605.732  14
   8   8 -10 422.403 163.905  14
   8   8 -10 589.636 182.211  13
  -8  -8 -10 405.296 170.412  17
   8   8 -11 1114.34 231.249  14
   8   8 -11 971.062 214.604  13
   8   8 -11 1285.22 223.969  11
  -8  -8 -11 852.168 197.532  17
   8   8 -12 230.629 126.672  14
   8   8 -12 380.679 156.231  13
   8   8 -12 446.492 171.360  11
  -8  -8 -12 274.523 162.814  17
   8   8 -13 5572.83 477.621  13
   8   8 -13 5769.08 470.795  11
   8   8 -13 5240.14 475.171  14
   8   8 -14 209.630 121.664  14
   8   8 -14 226.099 105.966  13
   8   8 -14 290.346 127.292  11
   8   8 -15 348.225 114.380  14
   8   8 -15 733.604 159.072  13
   8   8 -15 348.633 122.747  11
  -8   8 -15 449.429 144.094  16
   8   8 -16 79.8449 89.1711  14
  -8   8 -16-119.005 95.4414  16
  -8  -9   0 2874.86 376.802   3
  -8  -9  -1 13831.9 695.584   3
  -8  -9   1 15677.6 744.403   3
  -8  -9  -2 1453.26 266.324   3
  -8  -9   2 9033.59 585.821   3
  -8  -9  -3 502.609 148.654   3
  -8  -9  -4-181.538 120.491   3
  -8  -9  -5 1377.40 223.764   3
  -8  -9  -6 33.3205 133.007  18
   8   9  -6-92.2957 99.5228   9
  -8  -9  -6-172.697 158.321  17
   8   9  -6 138.878 83.8630   8
  -8  -9  -7 606.674 182.652  18
   8   9  -7 942.141 248.081   9
  -8  -9  -7 734.647 202.575  17
  -8  -9  -8 1620.30 273.781  18
   8   9  -8 2067.71 318.665   9
  -8  -9  -8 2119.39 315.345  17
   8   9  -9 279.337 136.437   9
  -8  -9  -9 439.125 187.133  17
   8   9 -10 49.8129 97.2875  14
  -8  -9 -10 238.171 141.572  17
   8   9 -10 119.874 129.356   9
   8   9 -11 404.912 156.015  14
  -8  -9 -11 179.258 117.440  17
   8   9 -11 168.438 160.223   9
   8   9 -12 894.577 209.402  14
  -8  -9 -12 804.125 213.216  17
   8   9 -13 121.578 87.8435  14
   8   9 -13-71.8436 112.276  13
   8   9 -14 40.2288 74.0658  14
  -8   9 -14-64.0418 94.1174  16
   8   9 -15 451.842 131.036  14
  -8   9 -15 216.238 106.294  16
   8   9 -16 61.1132 56.4569  14
  -8 -10   0 2626.33 330.741   3
  -8 -10  -1 3595.01 368.237   3
  -8 -10   1 5832.54 457.840   3
  -8 -10  -2 4031.50 379.826   3
   8  10  -2 4449.58 425.767  10
   8  10  -2 4568.30 441.341   9
  -8 -10  -2 4891.48 444.728  18
  -8 -10  -3-16.9468 111.649   3
  -8 -10  -3 363.635 155.155  18
   8  10  -3 505.938 179.996   9
   8  10  -3 376.544 162.581   8
   8  10  -4 6733.05 556.106   8
  -8 -10  -4 6798.58 543.359  18
   8  10  -4 6621.77 542.195   9
   8  10  -5 3315.99 386.835   8
   8  10  -5 3210.18 384.894   9
  -8 -10  -5 3142.59 379.490  18
   8  10  -6 9574.20 651.435   8
   8  10  -6 8417.40 621.619   9
  -8 -10  -6 9062.51 642.112  18
  -8 -10  -6 8816.18 627.804  17
  -8 -10  -7 998.198 237.731  17
   8  10  -7 905.136 226.094   9
   8  10  -7 692.656 191.025   8
  -8 -10  -7 626.806 186.183  18
   8  10  -8 4629.73 467.179   9
  -8 -10  -8 4535.13 451.631  17
   8  10  -8 4641.87 447.961   8
  -8 -10  -8 4409.84 456.690  18
   8  10  -9 175.830 114.111   9
  -8 -10  -9 853.041 235.288  17
   8  10 -10 1648.98 281.438   9
  -8 -10 -10 1491.52 277.524  17
   8  10 -11 310.629 132.188  14
   8  10 -11-110.159 112.342   9
  -8 -10 -11 153.624 119.633  17
   8  10 -12-107.026 122.635  14
   8  10 -12 91.1815 124.329   9
  -8 -10 -12 50.2641 108.602  17
   8  10 -13 238.674 111.456  14
   8  10 -14 14.0213 77.3588  14
   8  10 -15 562.394 130.511  14
   8  11   0 1832.54 280.886  10
   8  11   0 1734.32 288.464   9
  -8 -11   0 1940.73 298.983  18
   8  11   1 375.092 155.521  10
   8  11  -1 460.300 169.696  10
   8  11  -1 608.364 172.634   9
  -8 -11  -1 526.522 171.360  18
   8  11  -2 2582.24 341.702  10
  -8 -11  -2 2147.99 308.650  18
   8  11  -2 2373.82 334.420   9
   8  11  -3 38.2663 116.942  10
  -8 -11  -3 4.01551 110.600  18
   8  11  -4 369.845 157.425   8
  -8 -11  -4 328.865 130.545  18
   8  11  -4 361.150 162.766   9
  -8 -11  -5-135.122 115.712  18
   8  11  -5-105.899 142.162   9
   8  11  -5 35.7632 111.165   8
  -8 -11  -6 1709.70 291.428  18
   8  11  -6 1551.00 292.505   9
  -8 -11  -6 1877.49 298.668  17
   8  11  -6 2214.64 329.315   8
  -8 -11  -7-14.5947 115.350  18
   8  11  -7 85.3674 102.397   9
  -8 -11  -7 132.392 111.085  17
   8  11  -7 153.504 129.008   8
   8  11  -8 590.784 179.841   9
  -8 -11  -8 394.113 177.420  18
  -8 -11  -8 476.159 198.793  17
   8  11  -8 244.124 122.038   8
   8  11  -9 126.291 100.401   9
  -8 -11  -9 102.000 148.464  17
   8  11  -9 57.9473 101.467   8
   8  11 -10 192.480 116.356   9
  -8 -11 -10-188.237 163.207  17
   8  11 -11-272.299 150.407   9
  -8 -11 -11 74.5243 102.532  17
   8  11 -12 140.736 125.138   9
   8  11 -13 25.6189 81.0149   9
   8  11 -13-57.2871 71.4752  14
  -8  11 -13 142.109 132.229   8
   8  11 -14 73.4835 66.2432  14
  -8  11 -14 92.5699 103.759   8
   8  12   0 310.379 169.505   9
  -8 -12   0 571.617 181.601  18
  -8 -12   1 2150.02 319.763  18
   8  12  -1 2269.69 314.324  10
   8  12  -1 2309.91 346.190   9
  -8 -12  -1 2338.25 330.061  18
   8  12  -2 2517.24 329.830  10
   8  12  -2 2181.11 339.764   9
  -8 -12  -2 2163.83 319.317  18
   8  12  -3 1584.34 297.280   9
   8  12  -3 1706.93 293.103  10
  -8 -12  -3 1877.57 297.444  18
   8  12  -4-5.19126 123.437   9
   8  12  -4 285.168 161.141  10
  -8 -12  -4 350.163 144.718  18
   8  12  -5 229.437 140.295   9
  -8 -12  -5-13.8485 133.579  18
  -8 -12  -5-38.1842 113.427  17
   8  12  -5 41.8484 120.481   8
   8  12  -6 3403.41 398.337   9
  -8 -12  -6 3077.51 377.404  18
  -8 -12  -6 3539.42 415.719  17
   8  12  -6 3773.75 435.537   8
  -8 -12  -7 552.489 186.143  18
   8  12  -7 812.822 221.892   9
  -8 -12  -7 917.473 209.730  17
   8  12  -7 997.367 238.831   8
  -8 -12  -8 1401.21 269.581  18
   8  12  -8 1580.32 274.440   9
  -8 -12  -8 2109.37 307.744  17
   8  12  -8 1644.79 282.269   8
   8  12  -9 2603.81 324.287   8
   8  12  -9 2363.81 321.533   9
  -8 -12  -9 2559.29 336.583  17
   8  12 -10 90.5684 125.089   9
  -8 -12 -10 197.538 126.333  17
  -8 -12 -11 121.311 110.027  17
   8  12 -11 68.9290 86.0015   9
   8  12 -12 46.9654 93.5544   9
   8  12 -13 1152.74 186.865   9
  -8  12 -13 1041.47 189.865   8
  -8 -13   0 1515.76 269.831  18
   8  13  -1 442.921 176.888   9
  -8 -13  -1 214.099 140.098  18
  -8 -13   1 77.9157 100.384  18
   8  13  -2 26.5236 94.7912  10
   8  13  -2-55.8414 135.786   9
  -8 -13  -2 134.214 123.738  18
  -8 -13   2 122.543 105.674  18
   8  13  -3-75.1681 97.8449  10
   8  13  -3-174.184 144.277   9
  -8 -13  -3-20.3194 121.070  18
   8  13  -4 192.304 132.264   9
   8  13  -4 217.040 147.218  10
  -8 -13  -4 113.753 140.585  18
  -8 -13  -5 388.444 179.889  17
   8  13  -5 288.627 145.228   9
   8  13  -5 384.904 166.217  10
  -8 -13  -5 268.910 150.734  18
  -8 -13  -6 818.860 194.399  18
   8  13  -6 973.588 225.022   9
  -8 -13  -6 789.873 184.155  17
  -8 -13  -7 253.185 142.628  18
   8  13  -7 317.096 151.596   9
  -8 -13  -7 20.9820 109.168  17
   8  13  -8 776.647 198.317   9
  -8 -13  -8 491.317 171.592  17
   8  13  -9 819.092 202.251   9
  -8 -13  -9 849.347 207.884  17
   8  13 -10 240.802 123.396   9
  -8 -13 -10-158.828 103.871  17
   8  13 -11-161.765 82.2119   9
   8  13 -12-82.2850 83.6449   9
  -8 -14   0 2179.23 319.607  18
  -8 -14  -1 5457.97 483.859  18
  -8 -14   1 5173.37 466.313  18
   8  14  -2 351.619 134.244   9
  -8 -14  -2 163.980 132.730  18
  -8 -14   2 293.349 137.340  18
   8  14  -3 423.092 156.284  10
   8  14  -3 42.5636 130.044   9
  -8 -14   3 40.9691 95.9275  18
  -8 -14  -3 271.977 143.476  18
   8  14  -4 643.021 188.139  10
   8  14  -4 379.911 145.913   9
  -8 -14  -4 623.554 181.378  18
  -8 -14  -4 757.020 204.455  17
   8  14  -5 479.786 166.821  10
   8  14  -5 277.287 130.092   9
  -8 -14  -5 16.8141 124.851  18
  -8 -14  -5 302.085 147.288  17
   8  14  -6 449.751 147.301  10
   8  14  -6 593.601 194.682   9
  -8 -14  -6 450.679 147.291  18
  -8 -14  -6 485.423 168.682  17
  -8 -14  -7 275.284 129.536  18
   8  14  -7 71.0720 100.790  10
   8  14  -7 416.137 154.558   9
  -8 -14  -7 151.147 106.764  17
   8  14  -8-12.2973 116.929  10
   8  14  -8-78.0862 118.009   9
  -8 -14  -8 59.9736 87.4070  17
   8  14  -9 1073.38 190.094  10
   8  14  -9 1417.48 236.451   9
  -8 -14  -9 1297.15 218.784  17
   8  14 -10 197.457 97.0282  10
   8  14 -10 292.557 108.310   9
  -8 -15   0 76.3167 114.581  18
  -8 -15  -1 519.764 169.731  18
  -8 -15   1 613.668 174.468  18
  -8 -15  -2 6.44494 95.7442  18
  -8 -15   2 111.484 114.233  18
  -8 -15  -3-101.129 128.700  18
  -8 -15   3 54.6555 94.0965  18
  -8 -15   4 107.748 77.7364  18
  -8 -15  -4 76.9328 108.978  17
  -8 -15  -4-98.9356 120.639  18
   8  15  -5-7.71142 79.2351  10
   8  15  -5 30.8105 90.0694   9
  -8 -15  -5 45.5804 103.469  18
  -8 -15  -5-209.411 123.107  17
   8  15  -6 253.966 118.106  10
   8  15  -6 309.379 129.134   9
  -8 -15  -6 172.626 99.9049  18
  -8 -15  -6-4.41514 96.3674  17
   8  15  -7 478.428 136.619  10
   8  15  -7 486.928 144.348   9
  -8 -15  -7 275.607 111.459  17
   8  15  -8 159.461 94.8147  10
   8  15  -8 131.527 103.601   9
  -8 -15  -8 235.454 108.075  17
   8  15  -9 106.441 88.0416   9
  -8 -16   0-11.1486 81.3041  18
   8 -16   1 56.2934 85.0803  19
  -8 -16  -1-16.7586 97.4434  18
  -8 -16   1 8.63448 95.3798  18
  -8 -16   2 765.343 180.834  18
  -8 -16  -2 668.697 158.113  18
  -8 -16  -3 474.691 155.502  18
  -8 -16   3 308.719 124.102  18
  -8 -16  -3 158.540 108.992  17
   8 -16   4 79.9737 95.9361  20
  -8 -16  -4 151.648 100.270  18
  -8 -16   4 228.169 105.197  18
  -8 -16  -4-49.5711 80.9216  17
   8 -16   5 23.0443 78.2701  20
  -8 -16  -5 146.370 99.1707  18
  -8 -16  -5 112.176 90.2040  17
   8 -16   6 828.148 172.854  20
  -8 -16  -6 1106.75 174.726  17
  -8 -16  -6 1039.50 190.109  18
  -8 -17   0 162.164 90.5990  18
  -8 -17  -1-41.8464 68.7371  18
  -8 -17   1 33.1069 66.1110  18
  -8 -17  -1 84.1762 73.6683  17
  -8 -17  -2 2.00265 64.5996  18
   9   0   0 56.6681 79.9292   2
   9   0   1 101.751 68.2447   2
   9   0  -1-30.4804 74.6590   2
   9   0  -2 10837.0 505.231   2
   9   0   2 10681.9 505.032   2
   9   0   3 28.2434 69.6222   2
   9   0   4 20784.2 732.286   2
   9   0   5 55.8868 70.3168   2
   9   0   6 26209.8 863.759   2
   9   0   7-29.0473 76.0725   2
   9   0   8 16080.9 713.479   2
   9   0   9-44.5151 77.8796   2
   9   0  10 2293.73 297.810   2
   9   0 -11 62.3567 117.688  13
  -9   0 -11-93.1594 114.619   7
   9   0 -11-67.7789 118.928  11
   9   0 -11 9.76053 108.327  14
   9   0 -12 634.597 179.880  13
  -9   0 -12 753.372 231.120   7
   9   0 -12 615.988 166.001  11
   9   0 -12 484.123 172.133  14
   9   0 -13 104.448 108.906  13
  -9   0 -13-101.902 121.755   7
   9   0 -13-169.031 138.872  11
   9   0 -13-18.6757 113.016  14
  -9   0 -14 2489.09 350.954   7
   9   0 -14 3052.46 371.924  11
  -9   0 -15 117.453 108.332   7
   9   0 -15 59.0584 103.389  11
  -9   0 -16 444.543 162.471   7
   9   0 -16 402.894 142.699  11
  -9   0 -17 74.2104 78.7838   7
   9   0 -17 182.836 117.883  11
  -9   0 -18 1499.60 212.642   7
   9   0 -18 1496.97 202.837  11
   9   1   0 28.2750 69.1774   2
   9  -1   0 20.4600 77.8019   2
   9   1   1 4699.24 343.044   2
   9  -1   1 4953.19 338.302   2
   9   1  -1 4999.61 354.098   2
   9  -1  -1 4840.55 337.309   2
   9   1  -2 21315.8 717.384   2
   9   1   2 21452.8 722.016   2
   9  -1   2 21643.6 708.812   2
   9  -1   3 6942.32 413.487   2
   9   1   3 6800.51 417.105   2
   9  -1   4 6445.88 403.202   2
   9   1   4 6813.97 424.623   2
   9  -1   5 15986.6 653.202   2
   9   1   5 15958.7 673.863   2
   9  -1   6 12084.3 575.387   2
   9   1   6 11649.5 583.319   2
   9  -1   7-11.0041 72.8457   2
   9   1   7 109.528 64.7514   2
   9  -1   8 6337.83 456.864   2
   9   1   8 7035.52 476.400   2
   9   1   9 6777.42 485.756   2
   9  -1   9 7287.63 493.008   2
   9  -1  10 14725.5 725.748   2
   9   1  10 14696.5 732.751   2
   9   1 -11 409.119 158.231  14
   9   1 -11 406.894 146.463  13
  -9   1 -11 362.853 178.592   7
  -9  -1 -11 441.791 168.573   7
   9   1 -11 479.817 194.784  11
   9  -1 -11 361.956 142.982  11
   9  -1 -11 327.719 126.755  14
  -9   1 -12 10478.9 709.409   7
  -9  -1 -12 10820.0 723.813   7
   9   1 -12 11227.2 715.884  13
   9   1 -12 11533.7 694.887  11
   9  -1 -12 10791.5 662.224  11
   9   1 -12 11172.4 686.704  14
   9   1 -13 1072.16 240.883  13
  -9   1 -13 799.755 213.793   7
  -9  -1 -13 1015.15 248.647   7
   9   1 -13 926.370 221.865  11
   9  -1 -13 856.539 205.791  11
   9   1 -13 892.275 208.751  14
   9   1 -14 756.254 200.220  13
  -9   1 -14 559.407 187.736   7
  -9  -1 -14 496.694 186.067   7
   9  -1 -14 755.032 198.377  11
   9   1 -14 662.030 194.502  11
   9   1 -14 642.057 182.681  14
  -9   1 -15 233.779 128.201   7
  -9  -1 -15 414.511 178.699   7
   9  -1 -15 579.237 172.899  11
   9   1 -15 451.849 189.454  11
   9   1 -15 448.155 154.523  14
  -9   1 -16 1093.92 216.824   7
  -9  -1 -16 1080.80 235.023   7
   9  -1 -16 1080.41 201.336  11
   9   1 -16 1156.65 222.913  11
  -9   1 -17 101.509 99.0038   7
  -9  -1 -17 190.295 125.837   7
   9  -1 -17 235.442 97.0932  11
   9   1 -17 67.6631 89.6742  11
  -9   1 -18 141.247 89.4922   7
  -9  -1 -18 4.58418 77.8897   7
   9   1 -18 136.393 92.1100  11
   9   2   0-62.3026 84.2736   2
   9   2   1 49281.5 1103.16   2
   9  -2   1 50691.1 1052.42   2
   9   2  -1 49521.6 1107.93   2
   9   2   2 326.896 101.661   2
   9  -2   2 388.126 109.408   2
   9   2  -2 354.196 94.0233   2
   9  -2   3 23684.2 740.884   2
   9   2   3 22347.1 768.938   2
   9  -2   4 7823.37 437.216   2
   9   2   4 7474.57 454.521   2
   9  -2   5 12146.7 560.849   2
   9   2   5 11344.3 575.512   2
   9  -2   6 6697.75 430.630   2
   9   2   6 6603.64 440.400   2
   9  -2   7 10079.0 538.465   2
   9   2   7 10129.5 565.582   2
   9  -2   8 862.281 178.255   2
   9   2   8 757.471 173.085   2
   9  -2   9 1564.59 231.718   2
   9   2   9 1576.30 245.606   2
   9   2 -10 350.137 141.204  14
   9   2 -10 357.527 155.645  13
  -9   2 -10 282.828 127.953   7
   9   2 -10 439.052 155.365  11
   9  -2  10 155.325 97.0994   2
   9   2  10 397.076 147.323   2
  -9   2 -11 7469.53 580.307   7
   9   2 -11 8091.27 586.687  11
   9   2 -11 8118.12 603.858  13
  -9  -2 -11 7965.57 623.575   7
   9   2 -11 8013.19 580.040  14
   9   2 -12 27.5030 95.8735  14
   9   2 -12 107.271 122.786  13
  -9   2 -12 37.7010 103.352   7
  -9  -2 -12-14.6751 140.984   7
   9   2 -12 267.418 141.510  11
  -9   2 -13 3111.00 388.917   7
  -9  -2 -13 3418.11 412.327   7
   9   2 -13 3262.15 395.397  13
   9   2 -13 3255.56 381.337  11
   9   2 -13 3006.67 373.414  14
   9   2 -14 845.897 195.945  14
   9   2 -14 927.388 223.922  13
  -9   2 -14 1090.02 245.601   7
  -9  -2 -14 645.490 193.957   7
   9   2 -14 787.648 209.654  11
   9   2 -15 1352.44 257.991  13
  -9   2 -15 1546.41 274.329   7
  -9  -2 -15 1181.68 246.809   7
   9   2 -15 1609.03 269.299  11
   9   2 -15 1587.31 261.713  14
  -9   2 -16 1.40864 91.5651   7
  -9  -2 -16 158.517 122.874   7
   9   2 -16-65.8261 117.366  11
   9   2 -16-24.5110 92.6389  14
  -9   2 -17 17.6159 79.4745   7
   9   2 -17-20.3042 95.1092  11
  -9   2 -18 122.995 76.2218   7
  -9  -2 -18 338.610 118.353   7
   9   2 -18 354.173 111.872  11
   9   3   0 79.7852 62.6613   2
   9   3   1 1675.38 218.844   2
   9   3  -1 1495.48 205.309   2
   9   3  -2 13941.6 606.507   2
   9   3   2 13740.1 597.000   2
   9   3   3 23024.6 796.124   2
  -9  -3  -4 1588.72 276.214   3
   9   3   4 111.884 96.0488   2
  -9  -3  -5 40686.5 999.173   3
   9   3   5 44144.3 1145.72   2
   9   3   6 3940.38 355.098   2
   9   3   7 518.380 147.108   2
   9   3   8 433.312 142.796   2
   9   3   9 15293.7 741.308   2
   9   3 -10 102.500 94.3107  14
   9   3 -10-127.041 129.116  13
  -9   3 -10 58.7345 99.8275   7
   9   3 -10 22.7096 102.354  11
   9   3  10 71.8704 96.9974  10
   9   3  10 169.237 102.692   2
   9   3 -11 48.0650 116.354  14
   9   3 -11-14.0041 101.649  13
  -9   3 -11 14.0332 122.018   7
  -9  -3 -11 19.3988 105.296   7
   9   3 -11 329.154 171.263  11
   9   3 -12-29.2709 117.086  14
   9   3 -12-5.82517 104.937  13
  -9   3 -12 42.6534 110.890   7
  -9  -3 -12 4.56941 110.269   7
   9   3 -12 322.878 143.038  11
   9   3 -13 610.631 212.503  14
   9   3 -13 836.277 201.702  13
  -9   3 -13 655.474 184.954   7
  -9  -3 -13 510.032 212.272   7
   9   3 -13 675.017 193.242  11
   9   3 -14 20.9103 112.127  14
   9   3 -14 113.502 96.3509  13
  -9   3 -14 204.615 141.685   7
  -9  -3 -14 127.169 122.029   7
   9   3 -14 12.1260 124.558  11
   9   3 -15 169.281 124.531  14
   9   3 -15 296.493 155.969  13
  -9   3 -15 139.023 124.290   7
  -9  -3 -15 336.893 152.540   7
   9   3 -15 139.389 142.153  11
  -9   3 -16-101.937 110.373   7
  -9  -3 -16-150.488 133.747   7
   9   3 -16-49.1941 110.026  11
   9   3 -16-211.948 115.337  14
  -9   3 -17 1500.39 223.762   7
  -9  -3 -17 1657.24 243.161   7
   9   3 -17 1334.94 211.822  11
   9   3 -17 1369.63 206.386  14
   9   3 -18 35.7779 74.1381  11
  -9   3 -18 119.626 87.3955  16
   9   4   0-22.1744 71.4137   2
   9   4   1 28844.7 877.922   2
   9   4  -1 27802.1 865.113   2
   9   4   2 754.532 159.495   2
   9   4   3 38976.6 1040.81   2
  -9  -4  -4 18789.7 707.358   3
   9   4   4 19108.2 748.792   2
  -9  -4  -5 800.025 189.302   3
   9   4   5 648.337 140.446   2
  -9  -4  -6 5661.19 393.615   3
   9   4   6 6158.41 445.281   2
   9   4   7 1526.11 226.059   2
   9   4   8 7198.80 508.556   2
   9   4   9 629.187 163.391   2
   9   4 -10-93.5190 106.524  14
   9   4 -10 287.061 148.508  13
   9   4 -10-7.47029 100.376  11
   9   4  10-101.574 123.102  10
  -9  -4 -10-93.5312 144.254  17
  -9  -4 -11 4160.47 458.608   7
   9   4 -11 4769.31 464.860  13
   9   4 -11 4839.10 465.319  11
   9   4 -11 4842.95 459.981  14
   9   4 -12 787.400 209.754  14
   9   4 -12 551.061 169.980  13
  -9   4 -12 694.793 185.131   7
  -9  -4 -12 764.414 207.094   7
   9   4 -12 824.407 222.300  11
  -9  -4 -13 2853.50 375.056   7
   9   4 -13 2677.84 370.221  13
   9   4 -13 2986.01 375.579  11
   9   4 -13 2790.10 356.411  14
  -9   4 -13 2734.27 345.620   7
  -9  -4 -14 2965.43 372.808   7
   9   4 -14 3037.30 395.242  13
   9   4 -14 3117.76 376.658  11
   9   4 -14 2767.63 348.256  14
  -9   4 -14 2804.06 342.289   7
   9   4 -15 170.620 87.1282  14
   9   4 -15 262.738 133.195  13
  -9   4 -15 223.980 133.630   7
  -9  -4 -15 204.740 124.875   7
   9   4 -15 214.855 135.221  11
  -9   4 -16 26.7212 74.4895   7
  -9  -4 -16 267.836 134.143   7
   9   4 -16 186.860 132.307  11
   9   4 -16 195.128 117.155  14
  -9   4 -17 57.9765 83.1725   7
  -9  -4 -17 150.081 100.410   7
   9   4 -17-9.40299 79.1243  11
   9   4 -17 54.5374 78.5251  14
   9   5   0 55.8552 85.2053   2
   9   5   1 2576.86 272.492   2
   9   5  -1 2629.07 280.214   2
   9   5   2 39738.1 1066.20   2
  -9  -5  -3 9004.31 533.070   3
   9   5   3 4377.88 356.638   2
  -9  -5  -4 6239.73 443.754   3
   9   5   4 4497.94 375.841   2
  -9  -5  -5 1029.46 199.675   3
   9   5   5 936.622 188.784   2
  -9  -5  -6 12.3471 65.0346   3
   9   5   6 68.3822 93.4264   2
  -9  -5  -7 203.647 71.1355   3
   9   5   7 648.222 169.699   2
   9   5   8 2884.67 334.659   2
   9   5  -9 140.423 111.484  14
   9   5  -9-106.674 123.565  13
   9   5  -9-51.2607 101.658  11
   9   5   9 66.5729 110.289  10
   9   5   9 233.537 121.506   2
  -9  -5  -9 126.434 132.521  17
   9   5 -10 4818.99 471.577  13
   9   5 -10 5603.79 489.842  11
   9   5  10 5281.85 451.142  10
  -9  -5 -10 4910.09 470.917  17
   9   5 -10 5312.32 479.466  14
   9   5 -11 42.0782 108.899  14
   9   5 -11 43.8498 121.271  13
  -9  -5 -11 279.085 168.675   7
   9   5 -11 182.758 149.313  11
  -9  -5 -12 5620.13 517.840   7
   9   5 -12 5505.78 511.777  13
   9   5 -12 5725.53 490.259  11
   9   5 -12 5088.54 475.681  14
   9   5 -13 389.321 168.410  14
   9   5 -13 1.31051 105.759  13
  -9  -5 -13 282.149 141.845   7
   9   5 -13 503.645 181.809  11
   9   5 -14 91.4722 119.552  14
   9   5 -14 279.487 147.652  13
  -9  -5 -14 175.907 134.039   7
   9   5 -14-14.2953 113.070  11
   9   5 -15-98.5971 90.0014  14
   9   5 -15-40.0000 110.326  13
  -9  -5 -15-190.004 132.833   7
   9   5 -15 121.611 118.092  11
   9   5 -16 186.866 113.341  11
   9   5 -16 351.077 137.741  14
   9   5 -17 25.6582 81.9431  11
  -9   5 -17-135.519 97.6516  16
   9   5 -17-14.5239 61.5127  14
   9   6   0-6.63694 76.0000   2
   9   6   1 7867.46 488.765   2
   9   6  -1 7507.54 469.834   2
  -9  -6  -2 7107.43 524.349   3
   9   6   2 5.53270 69.0108   2
   9   6   3 3554.80 335.972   2
  -9  -6  -3 5507.67 469.157   3
  -9  -6  -4 28751.4 943.856   3
   9   6   4 28411.1 937.836   2
  -9  -6  -5 7283.42 481.264   3
   9   6   5 8718.56 535.566   2
  -9  -6  -6 13396.2 646.155   3
   9   6   6 14906.0 712.773   2
  -9  -6  -7 347.240 89.9804   3
   9   6   7 579.397 147.351   2
   9   6  -8 5530.90 477.025  13
  -9  -6  -8 5033.37 404.768   3
   9   6  -8 6495.87 504.572  11
   9   6   8 5787.14 465.900  10
  -9  -6  -8 6182.35 515.553  17
   9   6   8 6081.27 475.061   2
   9   6  -8 5930.72 471.916  14
   9   6  -9 324.677 173.900  14
   9   6  -9 397.404 157.569  13
   9   6  -9 332.939 146.273  11
   9   6   9 173.463 109.116  10
  -9  -6  -9-29.4539 133.086  17
   9   6 -10 859.437 226.722  14
   9   6 -10 823.249 219.107  13
   9   6 -10 1065.59 205.296  11
  -9  -6 -10 922.215 244.874  17
   9   6 -11 2304.70 316.942  14
   9   6 -11 2215.28 326.152  13
   9   6 -11 2091.40 315.040  11
  -9  -6 -11 2014.86 316.515  17
   9   6 -12 118.234 96.4797  14
   9   6 -12 145.837 115.339  13
   9   6 -12-68.5643 107.701  11
   9   6 -13 534.108 181.943  14
   9   6 -13 644.060 210.476  13
   9   6 -13 560.568 165.981  11
   9   6 -14 2991.77 357.877  13
   9   6 -14 2629.49 328.688  11
   9   6 -14 2529.25 320.441  14
   9   6 -15 823.509 193.576  14
   9   6 -15 639.481 158.664  11
   9   6 -16 135.795 91.2153  11
   9   6 -16-46.1302 89.8804  14
   9   6 -17 70.4757 83.6218  11
  -9   6 -17-88.9121 82.9430  16
   9   6 -17 97.0753 70.3584  14
   9   7   0 3.45760 78.6062   2
   9   7   1 1888.74 247.183   2
  -9  -7  -1 8754.73 617.860   3
   9   7   2 17060.1 733.860   2
  -9  -7  -2 20970.2 829.549   3
   9   7   3 4609.08 385.099   2
  -9  -7  -3 6924.43 494.219   3
   9   7   4 6364.94 458.791   2
  -9  -7  -4 7271.51 507.149   3
  -9  -7  -5 14543.8 694.347   3
   9   7   5 15190.8 711.737   2
  -9  -7  -6-201.372 121.647   3
   9   7   6 142.109 78.1817   2
   9   7  -7 3.47956 68.9336  14
   9   7  -7-69.6783 99.6229  11
  -9  -7  -7-77.5477 83.5825   3
   9   7   7 1.86250 95.2359  10
   9   7   7 111.726 85.8322   2
  -9  -7  -7 95.0005 90.4347  17
   9   7  -8 377.826 134.249  14
   9   7  -8 449.753 158.574  11
  -9  -7  -8 521.212 169.485  17
   9   7  -9 7013.88 539.196  13
   9   7  -9 7280.11 550.059  11
  -9  -7  -9 7527.03 577.809  17
   9   7  -9 6924.72 533.467  14
   9   7 -10 910.765 214.930  14
   9   7 -10 847.802 201.544  13
   9   7 -10 856.869 203.558  11
  -9  -7 -10 897.045 215.172  17
   9   7 -11 75.1845 99.0454  14
   9   7 -11 42.7176 104.706  13
   9   7 -11 36.4396 112.321  11
  -9  -7 -11-204.552 167.644  17
   9   7 -12 88.4805 91.9545  14
   9   7 -12 194.990 125.860  13
   9   7 -12 320.115 138.325  11
   9   7 -13 348.794 142.288  14
   9   7 -13 496.572 158.339  13
   9   7 -13 402.329 155.152  11
   9   7 -14 14.1703 125.766  14
   9   7 -14 85.9996 114.644  11
   9   7 -15 430.236 141.108  14
   9   7 -15 441.463 130.863  11
   9   7 -16 90.9972 70.2902  11
  -9   7 -16 10.9507 63.7588  16
   9   7 -16 4.86525 62.5512  14
  -9  -8   0 4461.49 513.949   3
  -9  -8  -1 21013.8 868.462   3
  -9  -8  -2 5099.09 447.952   3
  -9  -8  -3 10376.6 604.272   3
  -9  -8  -4 1936.61 267.995   3
  -9  -8  -5 1535.92 227.418   3
  -9  -8  -5 2093.20 295.936  18
  -9  -8  -5 2272.87 311.677  17
   9   8  -6 227.884 100.836  11
   9   8   6 66.7098 97.3140  10
  -9  -8  -6-41.1559 114.766  18
   9   8  -6 130.538 119.073   9
  -9  -8  -6 204.277 117.523  17
   9   8  -7 1375.01 247.627  11
  -9  -8  -7 1354.64 255.077  18
   9   8  -7 1272.86 234.420   9
  -9  -8  -7 1206.32 240.919  17
   9   8  -8 133.719 137.088  11
   9   8  -8 7.86265 104.853   9
  -9  -8  -8-9.09646 124.726  17
   9   8  -9 731.888 186.714  14
   9   8  -9 621.359 191.556  11
  -9  -8  -9 654.555 204.541  17
   9   8 -10 112.813 110.120  14
   9   8 -10 109.547 122.559  11
  -9  -8 -10 69.7866 126.084  17
   9   8 -11 4307.46 408.816  11
  -9  -8 -11 4242.13 432.775  17
   9   8 -11 4439.79 428.144  14
   9   8 -12-109.434 94.3199  14
   9   8 -12-175.820 135.611  11
   9   8 -13 1723.70 259.149  14
   9   8 -13 1570.02 245.224  11
   9   8 -14 353.751 151.221  14
   9   8 -14 133.424 97.6691  11
   9   8 -15 522.052 130.913  14
   9   8 -15 528.975 132.797  11
  -9   8 -15 380.104 135.766  16
   9   8 -16 31.0832 54.8463  14
  -9  -9   0 2926.20 409.386   3
  -9  -9  -1 1863.05 316.220   3
  -9  -9   1 3880.07 444.572   3
  -9  -9  -2 5213.35 455.129   3
   9   9  -2 4474.81 420.395  10
   9   9  -2 4589.19 444.599   9
  -9  -9  -3 2842.59 331.847   3
   9   9   3 2972.55 334.084  10
   9   9  -3 2517.37 323.916  10
   9   9  -3 2685.57 345.540   9
  -9  -9  -3 2820.24 346.280  18
   9   9   4 354.189 155.392  10
   9   9  -4 254.072 145.204   9
  -9  -9  -4 422.510 176.599  18
   9   9  -5 9538.28 646.985   9
  -9  -9  -5 9643.28 657.621  18
  -9  -9  -5 9664.75 642.829  17
   9   9  -6-58.2865 107.017   9
  -9  -9  -6 152.733 137.627  17
  -9  -9  -6 123.603 136.373  18
  -9  -9  -7 61.8394 124.696  18
   9   9  -7 127.404 105.554   9
  -9  -9  -7-120.419 129.091  17
   9   9  -8 1746.75 304.443   9
  -9  -9  -8 1783.41 308.804  17
  -9  -9  -9 759.408 211.102  17
   9   9  -9 1352.99 256.513   9
   9   9 -10 760.882 181.070  14
   9   9 -10 829.414 202.223   9
  -9  -9 -10 796.578 223.299  17
   9   9 -11 1330.76 228.985  14
  -9  -9 -11 1699.88 287.151  17
   9   9 -12 1196.91 221.987  14
   9   9 -13 905.152 186.851  14
   9   9 -14 98.0214 88.5176  14
   9   9 -15 128.991 83.2485  14
   9  10   0 15.9999 126.723  10
   9  10   0-45.0120 102.419   9
  -9 -10   0 40.8336 124.904  18
   9  10   1 274.743 128.124  10
   9  10  -1 463.988 165.869  10
   9  10  -1 428.622 169.307   9
  -9 -10  -1 642.077 199.426  18
   9  10   2 840.589 200.680  10
   9  10  -2 1067.09 230.532  10
   9  10  -2 1180.63 258.337   9
  -9 -10  -2 929.397 212.161  18
   9  10   3 502.952 187.541  10
   9  10  -3 497.767 191.835  10
  -9 -10  -3 297.290 151.574  18
   9  10  -3 680.154 203.118   9
   9  10  -4 4751.72 455.708  10
   9  10  -4 4858.51 470.851   9
  -9 -10  -4 4845.09 476.011  18
  -9 -10  -5 1436.64 283.093  18
   9  10  -5 1305.59 254.420   9
  -9 -10  -5 1233.34 249.833  17
  -9 -10  -6 1090.06 241.958  18
   9  10  -6 1205.52 250.962   9
  -9 -10  -6 1110.57 241.132  17
  -9 -10  -7 229.272 190.675  18
   9  10  -7 73.2824 123.466   9
  -9 -10  -7-29.2243 105.660  17
   9  10  -8 4223.93 444.889   9
  -9 -10  -8 4732.33 460.893  17
   9  10  -9 444.783 164.367   9
  -9 -10  -9 372.636 139.879  17
   9  10 -10-44.0026 98.5372   9
  -9 -10 -10-32.9075 107.976  17
   9  10 -11 107.490 104.607   9
  -9 -10 -11-75.8423 121.614  17
   9  10 -12 73.1901 79.8362  14
   9  10 -13 44.4570 80.5378  14
   9  10 -14 466.534 132.779  14
   9  11   0-58.3444 103.898  10
  -9 -11   0 50.6220 94.3045  18
   9  11   1 2395.84 322.961  10
   9  11  -1 2485.98 333.387  10
   9  11  -1 2322.49 353.389   9
  -9 -11  -1 2573.35 352.930  18
  -9 -11   1 2507.69 342.734  18
   9  11   2 3361.35 372.678  10
   9  11  -2 3462.12 389.505  10
   9  11  -2 3630.09 416.538   9
  -9 -11  -2 3013.28 377.548  18
   9  11  -3 338.271 145.291  10
   9  11  -3 490.871 170.171   9
  -9 -11  -3 335.557 166.489  18
   9  11  -4 1055.29 236.197  10
   9  11  -4 1197.93 260.832   9
  -9 -11  -4 1210.09 262.434  18
   9  11  -5 155.426 129.929  10
   9  11  -5 40.4640 117.813   9
  -9 -11  -5 175.031 111.159  18
  -9 -11  -5-66.0707 132.898  17
  -9 -11  -6 1114.24 246.883  18
   9  11  -6 842.175 211.099   9
  -9 -11  -6 869.844 220.952  17
  -9 -11  -7 315.738 156.825  18
   9  11  -7 187.663 141.839   9
  -9 -11  -7 492.574 158.365  17
   9  11  -8 543.113 183.331   9
  -9 -11  -8 468.010 172.471  17
   9  11  -9 440.479 170.887   9
  -9 -11  -9 302.631 156.336  17
   9  11 -10 2596.41 322.150   9
  -9 -11 -10 2648.41 335.402  17
   9  11 -11 445.542 154.690   9
  -9 -11 -11 359.416 150.471  17
   9  11 -12 2887.86 304.904   9
  -9  11 -13-18.6872 75.0803   8
   9  12   0 81.7569 97.8643  10
  -9 -12   0-70.1903 93.4814  18
   9  12  -1 3961.98 408.203  10
  -9 -12  -1 4054.67 431.830  18
  -9 -12   1 3589.97 401.001  18
   9  12  -2-17.2710 111.198  10
   9  12  -2 158.415 127.166   9
  -9 -12  -2 86.2776 129.357  18
   9  12  -3 521.236 210.089  10
   9  12  -3 469.133 184.266   9
  -9 -12  -3 493.138 163.682  18
   9  12  -4 824.390 200.115  10
   9  12  -4 1073.35 244.118   9
  -9 -12  -4 378.008 153.869  18
   9  12  -5 2543.01 354.589  10
   9  12  -5 2379.12 341.177   9
  -9 -12  -5 2259.84 341.263  18
  -9 -12  -5 2630.38 348.532  17
   9  12  -6 1787.78 290.805  10
  -9 -12  -6 1575.81 286.487  18
   9  12  -6 1689.28 289.115   9
  -9 -12  -6 1696.80 291.847  17
   9  12  -7 90.7916 119.028  10
  -9 -12  -7 62.6698 111.664  18
   9  12  -7 107.899 131.687   9
  -9 -12  -7 79.3143 104.807  17
   9  12  -8 290.321 132.526   9
  -9 -12  -8 252.963 146.435  17
  -9 -12  -9 588.997 178.477  17
   9  12  -9 402.895 140.961   9
   9  12 -10 521.276 149.493   9
  -9 -12 -10 307.916 136.525  17
   9  12 -11 544.123 140.906   9
  -9 -12 -11 580.825 149.886  17
   9  12 -12 530.979 149.549  10
   9  12 -12 494.542 138.781   9
  -9 -13   0 118.230 116.253  18
   9  13  -1-65.7658 101.126  10
  -9 -13  -1-75.5010 104.078  18
  -9 -13   1-49.6130 118.511  18
   9  13  -2 172.389 123.656  10
  -9 -13  -2 35.9976 98.0010  18
  -9 -13   2-39.0349 103.076  18
   9  13  -3 2032.99 297.690  10
   9  13  -3 1884.81 310.353   9
  -9 -13  -3 1848.76 294.831  18
   9  13  -4 957.879 198.857  10
   9  13  -4 871.009 234.722   9
  -9 -13  -4 567.465 183.706  18
  -9 -13  -4 956.735 229.110  17
   9  13  -5 2287.82 313.753  10
   9  13  -5 2521.31 350.896   9
  -9 -13  -5 2507.41 333.040  18
  -9 -13  -5 2807.17 360.226  17
   9  13  -6 1038.49 225.929  10
   9  13  -6 1127.91 255.479   9
  -9 -13  -6 1066.42 232.344  18
  -9 -13  -6 1177.24 232.501  17
   9  13  -7 482.600 155.648  10
  -9 -13  -7 615.310 197.799  18
   9  13  -7 509.046 172.835   9
  -9 -13  -7 515.811 174.057  17
   9  13  -8 143.053 105.323  10
   9  13  -8 26.0698 112.541   9
  -9 -13  -8 58.2132 105.801  17
   9  13  -9 849.566 182.897  10
   9  13  -9 986.856 201.998   9
  -9 -13  -9 1020.22 196.748  17
   9  13 -10 107.301 84.4478  10
   9  13 -10 108.473 87.4617   9
  -9 -13 -10 20.8987 94.0316  17
   9  13 -11 82.7113 81.4935  10
   9  13 -11 75.9815 76.1502   9
  -9 -14   0-221.048 131.924  18
  -9 -14  -1 1018.09 212.198  18
  -9 -14   1 912.347 199.495  18
   9  14  -2 862.956 205.637  10
  -9 -14  -2 750.552 174.502  18
  -9 -14   2 806.404 191.709  18
   9  14  -3 1426.26 234.856  10
  -9 -14  -3 1197.72 231.235  18
  -9 -14  -3 1646.03 276.200  17
   9  14  -4-210.582 137.441  10
   9  14  -4 42.4476 105.542   9
  -9 -14  -4-136.866 134.788  18
  -9 -14  -4 35.3996 98.6460  17
   9  14  -5 33.0786 96.8812  10
   9  14  -5 203.060 103.594   9
  -9 -14  -5 41.5342 100.498  18
  -9 -14  -5 12.5430 96.6648  17
   9  14  -6-61.5490 109.497  10
   9  14  -6 2.48756 91.9176   9
  -9 -14  -6 14.2602 94.9231  18
  -9 -14  -6 37.0770 93.3081  17
   9  14  -7 195.320 127.224  10
   9  14  -7 65.6827 92.3901   9
  -9 -14  -7 257.972 127.580  17
   9  14  -8 180.778 103.227  10
   9  14  -8 297.800 123.483   9
  -9 -14  -8 480.389 143.924  17
   9  14  -9-44.4120 73.9387  10
   9  14  -9-28.1378 85.4041   9
  -9 -14  -9 8.09665 82.5717  17
  -9 -15   0-27.9421 99.0909  18
  -9 -15  -1 207.303 117.151  18
  -9 -15   1 364.424 128.858  18
  -9 -15  -2 1307.06 224.890  18
  -9 -15   2 1285.06 223.078  18
  -9 -15  -3 432.204 137.925  18
  -9 -15  -3 236.601 125.008  17
   9  15  -4-62.4307 98.0668  10
  -9 -15  -4 36.9948 86.6297  18
  -9 -15  -4 24.3437 95.1175  17
   9  15  -5 173.117 94.4517  10
  -9 -15  -5 89.4879 94.4403  18
  -9 -15  -5 224.372 119.076  17
   9  15  -6 248.383 104.451  10
  -9 -15  -6 213.817 105.138  17
   9  15  -7-53.3333 85.8899  10
   9  15  -7 74.7257 83.4082   9
  -9 -15  -7 226.991 115.488  17
  -9 -16   0 7.52939 83.1198  18
  -9 -16  -1 172.333 115.761  18
  -9 -16   1 126.415 93.7473  18
  -9 -16  -1 51.0853 74.5108  17
  -9 -16  -2 86.0120 89.0236  18
  -9 -16   2 3.32045 65.3358  18
  -9 -16  -2-10.1176 79.2163  17
  -9 -16  -3 18.5278 65.8930  18
  -9 -16  -3-17.6181 81.0987  17
  -9 -16  -4 695.139 150.320  18
  -9 -16  -4 602.828 135.331  17
  10   0   0 67941.9 1354.30   2
  10   0   1-102.139 78.2584   2
  10   0  -1 10.5487 63.6731   2
  10   0   2 2628.71 272.727   2
  10   0   3 54.0701 66.1236   2
  10   0   4 21808.9 809.060   2
  10   0   5 67.9578 76.9270   2
  10   0   6 349.782 121.445   2
  10   0   7 3.74416 77.8507   2
  10   0   8 11903.4 653.076   2
  10   0  -9 75.9857 104.478  11
  10   0   9 235.914 144.762   2
  10   0  -9 17.6728 88.4185  14
  10   0 -10 9933.65 615.381  11
  10   0 -10 9525.84 635.063  14
 -10   0 -11 113.723 162.506   7
  10   0 -11-84.3648 111.496  11
  10   0 -11 49.2499 118.024  14
 -10   0 -12 202.372 172.337   7
  10   0 -12 138.734 105.323  11
  10   0 -12 269.959 157.042  14
 -10   0 -13 122.335 126.035   7
  10   0 -13-150.932 106.121  11
  10   0 -13 60.8841 92.2725  14
 -10   0 -14 5697.97 515.836   7
  10   0 -14 5815.92 486.605  11
  10   0 -14 6035.13 495.375  14
 -10   0 -15 102.325 105.696   7
  10   0 -15-278.525 133.055  11
 -10   0 -16 327.826 147.382   7
  10   0 -16 328.318 127.080  11
 -10   0 -17 1.66245 70.7615   7
  10   0 -17 80.8690 85.3802  11
  10   1   0 50743.0 1190.99   2
  10  -1   0 51980.5 1169.76   2
  10   1   1 94.9935 81.4725   2
  10  -1   1 0.78295 60.5496   2
  10   1  -1 27.7581 64.0649   2
  10  -1  -1-27.1351 65.7247   2
  10   1   2-21.0397 72.8381   2
  10  -1   2-158.937 103.685   2
  10   1   3 4554.81 368.698   2
  10  -1   3 4451.85 354.342   2
  10  -1   4 2341.10 264.718   2
  10   1   4 2126.39 257.672   2
  10  -1   5 417.805 132.415   2
  10   1   5 487.752 144.432   2
  10  -1   6 2408.31 287.567   2
  10   1   6 2363.46 283.146   2
  10  -1   7 12454.0 649.292   2
  10   1   7 12634.4 671.255   2
  10  -1   8 7154.94 501.413   2
  10   1   8 7237.87 517.665   2
  10   1  -9 411.648 159.218  11
  10   1   9 379.411 125.241  10
  10  -1   9 485.046 149.481   2
  10   1   9 363.303 131.817   2
  10  -1  -9 589.221 173.671  14
  10   1  -9 478.360 166.453  14
  10   1 -10 18091.4 849.992  11
  10  -1 -10 18298.8 874.579  14
  10   1 -10 17926.0 875.356  14
 -10   1 -11-171.045 175.436   7
 -10  -1 -11-153.021 138.538   7
  10   1 -11-195.830 118.970  11
  10  -1 -11 31.2972 104.202  14
  10   1 -11 67.9770 102.823  14
 -10   1 -12 1602.96 295.472   7
 -10  -1 -12 1279.62 270.608   7
  10  -1 -12 1238.73 227.439  11
  10   1 -12 1260.44 248.151  11
  10  -1 -12 1367.42 258.423  14
  10   1 -12 1153.46 242.030  14
 -10   1 -13 66.4429 147.520   7
 -10  -1 -13-23.3676 104.651   7
  10  -1 -13 112.379 124.353  11
  10   1 -13 42.1020 111.489  11
  10   1 -13-59.6440 99.0327  14
 -10   1 -14 6222.22 538.470   7
 -10  -1 -14 6093.51 536.959   7
  10  -1 -14 6052.92 476.652  11
  10   1 -14 5988.02 489.734  11
  10   1 -14 6376.49 512.883  14
 -10   1 -15 1629.29 279.983   7
 -10  -1 -15 1668.30 278.320   7
  10  -1 -15 1750.62 246.343  11
  10   1 -15 1356.10 242.834  11
  10   1 -15 1910.97 271.194  14
 -10   1 -16 221.176 126.660   7
 -10  -1 -16-62.5267 90.1502   7
  10   1 -16 80.7043 128.006  11
 -10   1 -17 397.724 122.256   7
 -10  -1 -17 384.605 125.762   7
  10   1 -17 653.099 151.748  11
  10   2   0 8501.51 499.725   2
  10   2   1 4237.88 360.338   2
  10   2  -1 3721.66 333.283   2
  10   2   2 129.154 82.1231   2
  10   2   3 7149.66 465.402   2
  10   2   4 2071.26 263.533   2
  10   2   5 2656.18 302.804   2
  10   2   6 207.989 100.627   2
  10   2   7 28312.6 1009.92   2
  10   2   8 599.568 163.297   2
  10   2  -9 1550.09 258.332  11
  10   2   9 1351.42 237.625  10
  10   2   9 1451.85 242.287   2
  10  -2  -9 1503.08 251.945  14
  10   2  -9 1149.97 223.489  14
 -10   2 -10 73.4718 116.473   7
  10   2 -10 301.590 154.655  11
  10  -2 -10 487.966 161.459  14
  10   2 -10 283.596 140.483  14
 -10   2 -11 490.679 182.690   7
 -10  -2 -11 646.707 201.227   7
  10   2 -11 530.756 190.465  11
  10   2 -11 1009.65 237.406  14
 -10   2 -12 377.153 151.040   7
 -10  -2 -12 441.668 171.562   7
  10   2 -12 168.206 143.986  11
  10   2 -12 547.564 176.117  14
 -10   2 -13-21.1855 109.256   7
 -10  -2 -13-1.08067 113.625   7
  10   2 -13 41.0907 125.456  11
  10   2 -13-77.0094 137.150  14
 -10   2 -14 1525.26 275.417   7
 -10  -2 -14 1223.25 259.102   7
  10   2 -14 1349.03 262.727  11
  10   2 -14 1628.26 283.248  14
  10   2 -15 2902.07 339.125  11
  10   2 -15 3096.84 339.067  14
 -10   2 -15 2815.80 343.178   7
 -10  -2 -15 3160.32 370.021   7
 -10   2 -16-30.5769 74.5109   7
 -10  -2 -16 169.382 113.916   7
  10   2 -16 88.2995 116.729  11
  10   2 -16 75.4976 94.2304  14
 -10   2 -17 647.009 143.022   7
 -10  -2 -17 727.946 162.090   7
  10   2 -17 632.143 150.740  11
  10   3   0 18370.4 745.490   2
  10   3   1 4255.11 361.454   2
  10   3  -1 4567.44 373.364   2
  10   3   2 323.021 123.738   2
  10   3   3 13691.3 649.722   2
 -10  -3  -4 12837.3 598.047   3
  10   3   4 11734.4 624.456   2
  10   3   5 8729.75 544.478   2
  10   3   6 35.9833 83.6884   2
  10   3   7 29713.8 1035.67   2
  10   3   8 3631.11 382.333   2
  10   3  -9 401.777 165.038  14
  10   3  -9 250.386 150.770  11
  10   3   9 262.942 164.415  10
 -10  -3  -9 402.256 148.778  17
  10   3 -10-33.4194 110.468  14
 -10   3 -10 47.5309 100.373   7
  10   3 -10 30.9384 123.710  11
  10   3  10 163.411 99.9102  10
  10   3 -11-13.1908 107.633  14
 -10   3 -11-70.2717 131.000   7
 -10  -3 -11-167.549 126.499   7
  10   3 -11-105.446 117.808  11
  10   3 -12 210.347 154.062  14
 -10   3 -12 44.3465 99.1206   7
 -10  -3 -12-50.8604 101.101   7
  10   3 -12 188.441 116.038  11
 -10   3 -13 73.9197 120.206   7
 -10  -3 -13 321.063 174.423   7
  10   3 -13-15.1272 119.187  11
  10   3 -13 369.940 161.202  14
 -10   3 -14-15.8842 87.5274   7
 -10  -3 -14 108.311 97.5665   7
  10   3 -14-23.4680 107.036  11
  10   3 -14 32.2858 94.1542  14
  10   3 -15 2721.34 320.015  11
  10   3 -15 2806.84 333.055  14
 -10   3 -15 2404.53 309.812   7
 -10  -3 -15 2737.77 345.949   7
 -10   3 -16 185.728 97.4882   7
 -10  -3 -16 303.042 132.588   7
  10   3 -16 60.1758 85.1801  11
  10   3 -16 65.2767 72.1012  14
 -10   3 -17 747.209 157.413   7
 -10  -3 -17 901.686 177.814   7
  10   3 -17 964.883 170.330  11
  10   3 -17 1011.58 169.300  14
  10   4   0 13038.9 640.119   2
  10   4   1 402.717 126.419   2
  10   4  -1 450.664 145.696   2
  10   4   2 343.686 114.144   2
  10   4   3 2682.53 297.525   2
 -10  -4  -4 4760.09 407.463   3
  10   4   4 3086.55 327.105   2
 -10  -4  -5 2043.34 262.468   3
  10   4   5 1155.46 199.326   2
  10   4   6 1595.98 244.961   2
  10   4   7 6559.21 502.286   2
  10   4  -8 5549.52 464.868  11
 -10  -4  -8 5529.28 461.465   6
  10   4   8 5601.02 473.202  10
 -10  -4  -8 5838.70 490.159  17
  10   4   8 5225.36 455.110   2
  10   4  -8 5468.26 472.105  14
  10   4  -9 969.954 210.619  14
  10   4  -9 971.442 217.178  11
  10   4   9 1082.77 226.919  10
 -10  -4  -9 993.444 208.515  17
  10   4 -10 3604.62 391.302  11
  10   4  10 3884.59 408.279  10
  10   4 -10 3743.07 394.394  14
  10   4 -11-100.507 135.562  14
 -10  -4 -11 242.772 155.804   7
  10   4 -11 411.054 175.160  11
  10   4 -12 547.794 180.832  14
 -10  -4 -12 818.839 224.054   7
  10   4 -12 595.830 178.507  11
  10   4 -13 138.087 119.746  14
 -10   4 -13 153.011 124.316   7
 -10  -4 -13-204.494 154.650   7
  10   4 -13 195.537 162.223  11
 -10  -4 -14 4075.95 428.527   7
  10   4 -14 4117.31 402.163  11
  10   4 -14 3730.29 400.933  14
 -10   4 -14 3730.32 385.154   7
 -10   4 -15 1508.58 238.930   7
 -10  -4 -15 1676.19 275.108   7
  10   4 -15 1692.46 257.488  11
  10   4 -15 1859.27 274.320  14
 -10   4 -16 4.18408 75.6812   7
 -10  -4 -16-7.88138 89.0453   7
  10   4 -16 166.421 106.012  11
  10   4 -16 91.7828 71.7514  14
  10   4 -17 127.881 69.8892  11
  10   4 -17 225.945 94.5488  14
  10   5   0 96775.2 1770.04   2
  10   5   1 1298.11 217.837   2
  10   5  -1 1278.26 215.422   2
  10   5   2-132.318 117.427   2
 -10  -5  -3 3316.40 403.684   3
  10   5   3-62.4215 109.129   2
 -10  -5  -4 19255.9 785.511   3
  10   5   4 19398.9 805.377   2
 -10  -5  -5 575.425 184.761   3
  10   5   5 272.018 137.792   2
 -10  -5  -6-120.948 93.8376   3
  10   5   6-173.407 100.763   2
  10   5  -7 512.682 135.848  11
  10   5   7 552.966 156.361   2
  10   5  -8 1231.09 221.183  14
  10   5  -8 1487.30 256.559  11
 -10  -5  -8 1417.89 225.637   6
  10   5   8 1497.54 250.941  10
 -10  -5  -8 1292.04 257.322  17
  10   5  -9 732.828 188.705  14
  10   5  -9 584.016 154.099  11
  10   5   9 725.691 182.663  10
 -10  -5  -9 655.523 187.895  17
  10   5 -10 6337.73 530.712  11
  10   5  10 5955.60 493.363  10
 -10  -5 -10 6369.36 536.178  17
  10   5 -10 6775.05 534.776  14
  10   5 -11 58.3844 92.3574  14
 -10  -5 -11 129.017 108.113   7
  10   5 -11-10.2642 127.786  11
  10   5 -12 794.405 197.567  14
 -10  -5 -12 876.533 216.066   7
  10   5 -12 884.543 226.847  11
  10   5 -13 372.955 160.072  14
 -10  -5 -13 549.985 185.473   7
  10   5 -13 357.943 143.058  11
  10   5 -14 2755.84 338.281  11
  10   5 -14 2564.88 324.753  14
 -10  -5 -14 2617.63 334.586   7
 -10  -5 -15 393.659 142.331   7
  10   5 -15 204.984 128.968  11
  10   5 -15 239.876 107.732  14
  10   5 -16 7.25373 78.3883  11
  10   5 -16-175.206 95.3035  14
  10   6   0 28291.2 969.218   2
  10   6   1 304.017 100.184   2
 -10  -6  -2 8160.95 568.345   3
  10   6   2 841.172 186.789   2
  10   6   3 3374.14 346.495   2
 -10  -6  -3 6964.98 502.142   3
  10   6   4 4590.84 409.289   2
 -10  -6  -4 5467.82 445.404   3
 -10  -6  -5 383.150 144.028   3
  10   6   5 288.258 113.127   2
  10   6  -6 606.610 184.289  11
 -10  -6  -6 63.1649 92.6620   3
  10   6   6 301.975 113.408  10
  10   6   6 304.510 110.136   2
 -10  -6  -6 513.452 153.722  17
  10   6  -7 932.329 187.457  14
  10   6  -7 1043.34 227.091  11
  10   6   7 1067.82 219.927  10
 -10  -6  -7 937.552 218.058  17
  10   6  -8 1934.88 288.221  14
  10   6  -8 2015.87 293.290  11
  10   6   8 2078.96 305.685  10
 -10  -6  -8 2102.56 318.015  17
  10   6  -9 63.7581 146.145  14
  10   6  -9-123.119 148.076  11
  10   6   9 151.173 127.497  10
 -10  -6  -9-64.1867 134.387  17
  10   6 -10 2025.22 299.000  14
  10   6 -10 1993.73 308.419  11
  10   6  10 2127.33 302.645  10
 -10  -6 -10 2146.72 315.734  17
  10   6 -11 49.8611 118.115  14
  10   6 -11 256.501 152.520  11
  10   6 -12 242.036 137.417  14
  10   6 -12 131.410 124.454  11
  10   6 -13 405.023 156.002  14
  10   6 -13 266.714 136.670  11
  10   6 -14 2063.84 276.725  11
  10   6 -14 2273.67 299.761  14
  10   6 -15 167.375 116.377  11
  10   6 -15 106.110 95.1434  14
  10   6 -16 338.738 122.001  11
  10   6 -16 160.933 74.1224  14
  10   7   0 7373.36 501.076   2
 -10  -7  -1 9681.04 622.347   3
  10   7   1 273.846 103.294   2
 -10  -7  -2 4273.50 441.741   3
  10   7   2 1575.97 241.222   2
  10   7   3 14119.3 712.887   2
 -10  -7  -3 15056.9 742.882   3
  10   7   4 1718.64 258.333   2
 -10  -7  -4 2438.28 309.807   3
  10   7  -5 564.736 148.003  11
 -10  -7  -5 503.620 128.127   3
  10   7   5 773.587 198.225  10
  10   7  -5 784.455 193.175  10
 -10  -7  -5 791.266 190.496  18
  10   7  -5 856.244 206.832   9
 -10  -7  -5 1016.04 214.664  17
  10   7   5 493.442 155.908   2
  10   7  -6 1710.91 269.940  11
  10   7   6 1487.75 269.537  10
 -10  -7  -6 1866.57 288.683  17
  10   7  -7 13877.4 752.576  11
  10   7   7 13337.9 726.682  10
 -10  -7  -7 14532.9 790.490  17
  10   7  -8 610.844 175.820  14
  10   7  -8 453.446 168.283  11
  10   7   8 402.283 137.312  10
 -10  -7  -8 547.356 163.994  17
  10   7  -9 71.7522 92.2429  14
  10   7  -9 84.6675 112.737  11
  10   7   9 53.3053 92.3763  10
 -10  -7  -9-52.4939 153.335  17
  10   7 -10 41.2778 103.458  14
  10   7 -10 180.165 112.535  11
 -10  -7 -10-13.7531 111.084  17
  10   7 -11 127.436 107.280  14
  10   7 -11 120.589 125.138  11
  10   7 -12 404.479 160.915  14
  10   7 -12 557.100 149.094  11
  10   7 -13 594.364 178.896  14
  10   7 -13 925.573 208.652  11
  10   7 -14-97.4891 111.895  11
  10   7 -14 294.877 134.844  14
  10   7 -15 1343.14 209.942  11
  10   7 -15 1212.22 204.012  14
 -10  -8   0 9421.04 625.145   3
  10   8   0 1170.15 225.833  10
  10   8   1 3258.31 342.782   2
  10   8   1 3678.71 380.359  10
  10   8  -1 3428.43 370.122  10
  10   8   2 195.934 140.723  10
  10   8  -2-93.2132 97.1906  10
  10   8  -2 110.599 79.6955   9
  10   8  -3 3388.78 375.971  11
  10   8   3 3476.81 384.541  10
  10   8  -3 3304.76 372.716  10
  10   8  -3 3731.41 407.615   9
 -10  -8  -3 3445.72 388.564  18
  10   8  -4 588.695 183.944  11
 -10  -8  -4 786.078 212.774  18
  10   8   4 660.987 170.456  10
  10   8  -4 618.293 162.125  10
  10   8  -4 501.620 172.061   9
 -10  -8  -4 560.494 179.180  17
  10   8  -5 2598.62 335.768  11
  10   8   5 2261.58 316.372  10
  10   8  -5 2112.34 316.625   9
  10   8  -5 2085.66 295.894  10
 -10  -8  -5 2310.25 329.619  18
 -10  -8  -5 2510.63 341.414  17
  10   8  -6 2179.71 319.397  11
 -10  -8  -6 2413.12 344.789  17
  10   8   6 1984.04 298.239  10
 -10  -8  -6 2295.54 338.271  18
  10   8  -6 2089.32 312.154   9
  10   8  -7 7830.09 572.552  11
  10   8   7 7782.96 565.883  10
  10   8  -7 8195.89 589.423   9
 -10  -8  -7 7675.12 592.076  17
  10   8  -8 451.607 180.889  11
 -10  -8  -8 309.171 132.213  17
  10   8  -9-36.6599 98.0457  14
  10   8  -9 294.147 160.855  11
 -10  -8  -9 110.080 130.917  17
  10   8 -10 351.334 148.637  14
  10   8 -10 38.8284 102.372  11
 -10  -8 -10 228.423 137.340  17
  10   8 -11 177.975 106.313  14
  10   8 -11-223.455 134.551  11
 -10  -8 -11 84.0072 124.498  17
  10   8 -12-147.498 104.963  14
  10   8 -12-231.592 150.300  11
  10   8 -13-161.784 131.326  11
  10   8 -13 18.9539 92.2353  14
  10   8 -14 150.952 109.405  11
  10   8 -14 68.3766 95.2906  14
  10   8 -15 1048.61 175.714  11
 -10   8 -15 942.367 172.050  16
  10   8 -15 826.013 156.870  14
  10   9   0 12411.0 712.925  10
  10   9   1 884.499 193.519  10
  10   9  -1 1140.93 243.341  10
  10   9   2 195.600 94.9307  10
  10   9  -2-39.0280 142.652  10
  10   9  -2-225.772 175.220   9
 -10  -9  -2 45.2495 101.098  18
  10   9   3 1973.45 297.889  10
  10   9  -3 2318.39 332.848  10
  10   9  -3 2059.06 317.392   9
 -10  -9  -3 2200.13 314.941  18
  10   9   4 604.333 176.025  10
  10   9  -4 824.111 208.589  10
  10   9  -4 950.821 232.465   9
 -10  -9  -4 848.114 225.406  18
 -10  -9  -4 787.598 186.408  17
  10   9   5 428.209 141.457  10
  10   9  -5 3.81132 116.452  10
  10   9  -5 196.800 127.951   9
 -10  -9  -5 147.578 111.281  18
 -10  -9  -5 577.494 201.752  17
  10   9   6 2836.51 339.648  10
  10   9  -6 3063.13 385.436  10
  10   9  -6 2914.08 371.198   9
 -10  -9  -6 3161.66 388.538  17
 -10  -9  -6 2635.05 364.410  18
  10   9  -7 6785.42 547.015   9
 -10  -9  -7 6292.66 537.015  17
  10   9  -8 82.1540 101.876   9
 -10  -9  -8-83.9768 156.815  17
 -10  -9  -9 212.923 132.719  17
 -10  -9 -10 5000.34 471.139  17
 -10  -9 -11-168.699 146.219  17
  10   9 -11 139.648 114.500  14
  10   9 -12 131.873 86.7965  14
  10   9 -13-128.750 85.4058  14
  10   9 -14 849.254 163.324  14
  10  10   0 4544.09 437.754  10
  10  10   1 1320.50 247.174  10
  10  10  -1 1754.43 293.645  10
 -10 -10  -1 1949.08 299.208  18
  10  10   2 466.680 171.465  10
  10  10  -2 95.4895 110.195  10
  10  10  -2 174.466 143.015   9
 -10 -10  -2 257.309 133.908  18
  10  10   3 257.553 155.398  10
  10  10  -3-133.154 132.756  10
  10  10  -3-130.178 163.923   9
 -10 -10  -3 6.40253 104.752  18
  10  10   4 949.352 219.059  10
  10  10  -4 983.185 225.525  10
  10  10  -4 1112.79 242.611   9
 -10 -10  -4 1024.28 247.756  18
 -10 -10  -4 756.305 216.443  17
 -10 -10  -5 274.288 150.253  18
  10  10  -5 378.556 170.475  10
  10  10  -5 534.062 199.045   9
 -10 -10  -5 199.247 107.115  17
  10  10  -6-5.81960 120.359  10
 -10 -10  -6-41.0220 114.548  18
  10  10  -6 130.882 130.710   9
 -10 -10  -6-24.0165 133.055  17
  10  10  -7 1403.43 250.754  10
  10  10  -7 1650.47 280.152   9
 -10 -10  -7 1419.40 271.251  17
  10  10  -8 1164.08 254.383   9
 -10 -10  -8 1254.52 252.685  17
  10  10  -9 862.896 217.954   9
 -10 -10  -9 1076.52 238.561  17
  10  10 -10 2470.11 320.957   9
 -10 -10 -10 2241.74 301.956  17
  10  10 -11-62.1870 114.498  10
 -10 -10 -11-55.1809 99.6071  17
  10  10 -12 139.738 116.310  10
  10  10 -13 49.1378 75.7496  10
  10  10 -13 374.869 130.147  14
  10  11   0 5172.12 473.789  10
 -10 -11   0 5421.67 481.383  18
  10  11   1 1008.15 217.939  10
  10  11  -1 950.293 221.552  10
 -10 -11  -1 1079.94 227.561  18
  10  11   2-79.2090 130.668  10
  10  11  -2-65.2240 109.329  10
 -10 -11  -2 101.422 106.619  18
  10  11   3 647.657 186.216  10
  10  11  -3 608.820 167.891  10
  10  11  -3 614.817 209.111   9
 -10 -11  -3 604.929 190.242  18
  10  11  -4 11.9546 125.819  10
  10  11  -4-159.991 134.321   9
 -10 -11  -4 108.161 114.010  18
 -10 -11  -4 344.035 149.889  17
  10  11  -5-94.6684 122.840  10
  10  11  -5 93.0424 115.998   9
 -10 -11  -5-29.2196 145.620  18
 -10 -11  -5-124.422 144.940  17
  10  11  -6 439.545 166.197  10
  10  11  -6 395.812 170.160   9
 -10 -11  -6 76.9026 115.030  18
 -10 -11  -6 19.4934 134.591  17
  10  11  -7 309.722 156.127  10
  10  11  -7 395.894 148.438   9
 -10 -11  -7 357.123 181.308  17
  10  11  -8 2626.52 337.222  10
  10  11  -8 2543.28 349.966   9
 -10 -11  -8 2639.04 340.168  17
  10  11  -9 2032.70 275.516  10
  10  11  -9 2149.77 298.676   9
 -10 -11  -9 2302.20 314.481  17
  10  11 -10 2439.65 301.824  10
  10  11 -10 2241.35 293.217   9
 -10 -11 -10 2068.77 281.150  17
  10  11 -11 374.328 137.603  10
 -10 -11 -11 102.147 89.8773  17
  10  11 -12 141.407 108.189  10
  10  12   0 5259.86 467.677  10
 -10 -12   0 5627.83 486.217  18
  10  12   1 171.444 113.772  10
  10  12  -1 66.7999 126.139  10
 -10 -12  -1 24.2307 108.795  18
  10  12   2 787.463 197.036  10
  10  12  -2 731.556 197.252  10
 -10 -12  -2 648.174 194.559  18
  10  12  -3 1338.64 254.877  10
  10  12  -3 1365.68 278.426   9
 -10 -12  -3 1566.26 275.651  18
 -10 -12  -3 1631.05 292.711  17
  10  12  -4 115.027 113.900  10
  10  12  -4 72.9497 125.909   9
 -10 -12  -4-241.708 150.242  18
 -10 -12  -4 95.1520 133.228  17
  10  12  -5-31.3104 102.261  10
  10  12  -5 77.1064 111.532   9
 -10 -12  -5 89.2623 127.549  18
 -10 -12  -5 40.0532 112.417  17
  10  12  -6 1550.55 248.632  10
  10  12  -6 1603.19 279.197   9
 -10 -12  -6 1637.63 277.363  18
 -10 -12  -6 1606.42 285.691  17
  10  12  -7 1677.53 281.023  10
  10  12  -7 1642.02 267.263   9
 -10 -12  -7 1478.30 257.862  17
  10  12  -8 877.252 200.282  10
  10  12  -8 659.833 192.433   9
 -10 -12  -8 467.788 182.192  17
  10  12  -9 81.8765 87.0401  10
  10  12  -9-141.610 107.008   9
 -10 -12  -9 133.102 102.554  17
  10  12 -10 64.0741 94.2886  10
  10  12 -10 117.705 81.5501   9
 -10 -12 -10-72.6810 86.4108  17
  10  12 -11 84.0747 85.6113  10
  10  12 -11-40.2065 89.2465   9
  10  13   0 188.135 109.665  10
 -10 -13   0 94.1157 108.380  18
  10  13  -1-93.1948 117.843  10
 -10 -13  -1 17.3859 97.2382  18
 -10 -13   1-110.630 111.837  18
  10  13  -2 865.709 206.900  10
 -10 -13  -2 612.513 156.209  18
  10  13  -3 1376.68 245.985  10
 -10 -13  -3 1108.87 220.883  18
 -10 -13  -3 1138.19 216.694  17
  10  13  -4 1349.53 248.051  10
 -10 -13  -4 1320.65 239.502  18
 -10 -13  -4 1481.60 249.213  17
  10  13  -5 467.550 153.984  10
  10  13  -5 196.411 108.485   9
 -10 -13  -5 427.739 154.514  18
 -10 -13  -5 619.166 186.771  17
  10  13  -6 302.583 107.782  10
  10  13  -6 455.303 166.415   9
 -10 -13  -6 282.233 120.954  17
  10  13  -7 1955.06 272.488  10
  10  13  -7 1861.54 270.516   9
 -10 -13  -7 2106.31 288.976  17
  10  13  -8 1223.25 215.076  10
  10  13  -8 1142.38 200.094   9
 -10 -13  -8 1102.46 207.520  17
  10  13  -9 37.0568 79.7701  10
  10  13  -9 18.8806 83.9151   9
 -10 -13  -9 181.746 119.053  17
  10  13 -10-114.319 90.0620  10
  10  13 -10-8.58778 76.3127   9
 -10 -13 -10 5.31776 82.1455  17
 -10 -14   0 935.865 198.401  18
 -10 -14  -1 718.567 193.831  18
 -10 -14   1 273.279 123.784  18
  10  14  -2 103.376 129.911  10
 -10 -14  -2-7.91047 107.481  18
 -10 -14  -2 77.6114 121.862  17
  10  14  -3 310.250 123.475  10
 -10 -14  -3 66.4171 106.466  18
 -10 -14  -3 189.400 120.978  17
  10  14  -4 96.8568 81.4929  10
 -10 -14  -4 425.818 146.700  18
 -10 -14  -4 161.235 112.479  17
  10  14  -5 102.362 88.0106  10
 -10 -14  -5 54.3423 85.4378  18
 -10 -14  -5 198.402 111.357  17
  10  14  -6 47.4425 78.5722  10
 -10 -14  -6 159.288 95.9137  17
  10  14  -7 467.830 138.926  10
 -10 -14  -7 417.775 137.285  17
  10  14  -8 1.49176 65.8777  10
 -10 -14  -8 60.4320 86.9584  17
 -10 -15   0 2385.44 284.325  18
 -10 -15  -1 582.612 156.505  18
 -10 -15   1 434.211 148.137  18
 -10 -15  -1 472.103 144.002  17
 -10 -15  -2 248.987 111.200  18
 -10 -15  -2 206.599 119.169  17
  10  15  -3 12.7697 72.2095  10
 -10 -15  -3 28.0033 71.9224  18
 -10 -15  -3 175.129 97.3204  17
  10  15  -4 676.766 158.890  10
 -10 -15  -4 363.749 118.572  18
 -10 -15  -4 432.192 138.366  17
  10  15  -5-177.160 91.5338  10
 -10 -15  -5 107.850 66.1722  17
 -10 -15  -6 159.032 100.236  17
  11   0   0-18.0673 72.0074   2
  11   0   1 23.4380 63.2077   2
  11   0  -1-80.4253 89.5025   2
  11   0   2 10230.2 580.514   2
  11   0   3 118.165 99.3931   2
  11   0   4 4266.29 381.045   2
  11   0   5-72.1180 89.7931   2
  11   0   6 767.686 173.045   2
  11   0   7 17.1725 78.1546   2
  11   0  -8 106.249 108.844  11
 -11   0  -8 12.8885 117.683   6
  11   0   8 97.9662 76.1829   2
  11   0  -8 264.984 122.909  15
  11   0  -8 396.780 168.540  14
  11   0  -9 116.919 106.672  11
  11   0  -9 47.2094 88.2957  14
  11   0 -10 621.228 187.408  11
  11   0 -10 564.666 190.940  14
 -11   0 -11-47.2607 117.207   7
  11   0 -11 258.522 138.259  11
  11   0 -11-55.9540 154.109  14
 -11   0 -12 6851.76 573.036   7
  11   0 -12 6721.06 524.781  11
  11   0 -12 7012.24 555.148  14
 -11   0 -13 100.209 118.965   7
  11   0 -13-2.77457 113.019  11
  11   0 -13 43.4715 103.313  14
 -11   0 -14 970.423 227.254   7
  11   0 -14 1138.21 221.781  11
 -11   0 -15-171.461 141.239   7
  11   0 -15 159.135 107.935  11
 -11   0 -16 100.085 85.2631   7
  11   0 -16 441.089 146.710  11
  11   1   0 66.6989 77.2789   2
  11  -1   0 97.8109 74.7549   2
  11   1   1 23625.8 871.925   2
  11  -1   1 24237.4 859.345   2
  11   1  -1 23476.6 865.793   2
  11  -1  -1 24489.7 854.404   2
  11   1   2 116.807 67.9460   2
  11  -1   2 38.0350 63.1586   2
  11   1   3 9105.05 555.812   2
  11  -1   3 10265.7 570.974   2
  11   1   4 29557.2 999.650   2
  11  -1   4 29806.8 978.117   2
  11  -1   5 1588.00 239.787   2
  11   1   5 1387.46 226.549   2
  11  -1   6 6920.63 499.143   2
  11   1   6 7347.05 522.874   2
  11  -1   7 2013.59 279.702   2
  11   1   7 2090.80 287.827   2
  11   1  -8 14191.3 749.739  11
 -11   1  -8 13705.1 718.076   6
 -11  -1  -8 14555.8 750.022   6
  11   1   8 14035.6 757.824  10
  11  -1   8 12964.8 707.038   2
  11   1  -8 14559.0 717.387  15
  11   1  -8 14760.0 783.343  14
  11   1  -9 366.248 165.441  11
  11   1  -9 397.443 128.666  15
  11   1  -9 523.334 176.715  14
  11   1 -10 175.111 134.661  11
  11   1 -10 308.928 153.349  14
 -11   1 -11 2022.94 326.874   7
 -11  -1 -11 2122.91 345.827   7
  11   1 -11 2072.69 308.067  11
  11   1 -11 2125.20 319.780  14
 -11   1 -12 651.536 204.248   7
 -11  -1 -12 682.756 206.887   7
  11   1 -12 589.333 217.197  11
  11   1 -12 817.071 213.567  14
 -11   1 -13 722.488 213.485   7
 -11  -1 -13 643.475 205.621   7
  11   1 -13 581.657 182.881  11
  11   1 -13 386.020 148.191  14
 -11   1 -14 1578.34 268.463   7
 -11  -1 -14 1821.87 290.674   7
  11   1 -14 1548.71 260.781  11
  11   1 -14 1612.73 264.204  14
 -11   1 -15 407.596 139.004   7
 -11  -1 -15 367.314 142.218   7
  11   1 -15 336.430 132.816  11
 -11   1 -16-103.067 88.0667   7
 -11  -1 -16 48.5104 81.1614   7
  11   1 -16-82.2193 90.9790  11
  11   2   0-77.2184 82.1694   2
  11   2   1 4282.02 389.838   2
  11   2  -1 4143.50 383.850   2
  11   2   2 1890.47 257.839   2
  11   2   3 9241.50 565.984   2
  11   2   4 1025.39 203.256   2
  11   2   5 11889.3 656.457   2
  11   2   6 905.864 197.835   2
  11   2  -7 903.116 191.386  11
 -11  -2  -7 1099.17 227.264   6
  11   2   7 906.541 201.978  10
  11   2   7 582.104 166.831   2
  11   2  -7 977.564 210.930  14
  11   2  -8 85.8912 101.281  11
 -11  -2  -8 104.856 109.611   6
  11   2   8 109.369 142.952  10
  11   2  -8 16.7677 97.6835  14
  11   2  -9 559.639 185.249  11
  11   2   9 368.342 141.940  10
  11   2  -9 523.917 186.825  14
 -11   2 -10 449.457 168.865   7
  11   2 -10 433.144 196.367  11
  11   2 -10 455.102 196.153  14
 -11   2 -11 954.588 239.473   7
 -11  -2 -11 981.897 234.031   7
  11   2 -11 1009.30 220.698  11
  11   2 -11 819.492 222.027  14
 -11   2 -12 299.606 137.638   7
 -11  -2 -12 318.380 141.553   7
  11   2 -12 489.171 176.415  11
  11   2 -12 214.970 154.658  14
 -11   2 -13 1177.26 249.581   7
 -11  -2 -13 1049.92 245.289   7
  11   2 -13 802.252 209.492  11
  11   2 -13 1276.43 242.528  14
 -11   2 -14 52.5167 104.680   7
 -11  -2 -14-49.3296 95.0037   7
  11   2 -14 42.6506 118.360  11
  11   2 -14-4.72094 92.9217  14
 -11   2 -15 193.219 119.550   7
 -11  -2 -15 211.861 131.063   7
  11   2 -15 200.832 126.913  11
  11   2 -15 121.712 108.930  14
 -11   2 -16 85.1219 87.7096   7
 -11  -2 -16 150.857 99.2009   7
  11   2 -16 165.064 106.521  11
  11   3   0-35.8339 66.9223   2
  11   3   1 27174.6 963.478   2
  11   3  -1 27231.3 956.456   2
  11   3   2 2019.11 270.173   2
  11   3   3 15245.7 734.768   2
  11   3   4 2389.77 297.525   2
  11   3   5 2942.55 334.312   2
  11   3   6 1977.65 285.803   2
  11   3  -7 4632.29 435.829  11
 -11   3  -7 4280.15 387.136   6
 -11  -3  -7 4791.76 429.624   6
  11   3   7 4816.48 445.978  10
 -11  -3  -7 5255.37 459.386  17
  11   3   7 4997.33 455.625   2
  11   3  -7 5073.56 460.422  14
  11   3  -8 197.667 132.888  11
 -11  -3  -8 146.709 115.028   6
  11   3   8 288.834 132.298  10
 -11  -3  -8 342.385 124.503  17
  11   3  -8 655.103 196.954  14
  11   3  -9 990.818 222.121  11
  11   3   9 773.002 202.063  10
  11   3  -9 948.093 227.574  14
 -11   3 -10 210.992 138.640   7
  11   3 -10 172.216 167.681  11
  11   3 -10 354.060 152.658  14
 -11   3 -11 10913.3 698.131   7
 -11  -3 -11 10502.0 726.069   7
  11   3 -11 10980.7 681.474  11
  11   3 -11 10731.1 695.787  14
 -11   3 -12 54.7915 98.3518   7
 -11  -3 -12 171.921 131.307   7
  11   3 -12 106.753 114.575  11
  11   3 -12 216.841 114.380  14
 -11   3 -13 1609.36 279.750   7
 -11  -3 -13 1298.75 248.156   7
  11   3 -13 1502.84 278.763  11
  11   3 -13 1660.51 272.871  14
 -11   3 -14 392.042 157.736   7
 -11  -3 -14 355.437 143.014   7
  11   3 -14 191.124 127.668  11
  11   3 -14 464.669 162.253  14
 -11   3 -15 1625.64 243.803   7
 -11  -3 -15 1828.53 260.411   7
  11   3 -15 1743.64 255.625  11
  11   3 -15 1739.92 250.914  14
 -11   3 -16 28.0435 73.9895   7
 -11  -3 -16 33.1790 89.6196   7
  11   3 -16 60.2629 85.8761  11
  11   3 -16-27.9959 67.7196  14
  11   4   0 37.0462 79.2851   2
  11   4  -1 1150.31 215.632   2
  11   4   1 830.007 183.369   2
  11   4   2 11056.0 634.502   2
  11   4   3 4467.17 403.390   2
 -11  -4  -3 10508.1 601.577   3
  11   4   4 2358.93 306.590   2
 -11  -4  -4 4455.16 401.745   3
  11   4   5 7427.59 528.839   2
  11   4  -6 217.327 97.5853  11
 -11  -4  -6 180.450 115.039   6
  11   4   6 72.8392 110.652  10
  11   4   6 241.848 115.534   2
  11   4  -6 111.399 108.061  14
  11   4  -7 1109.77 214.856  11
 -11  -4  -7 1333.91 258.388   6
  11   4   7 1313.55 253.293  10
 -11  -4  -7 1109.44 214.233  17
  11   4  -7 894.462 209.708  14
  11   4  -8 83.7000 113.231  11
 -11  -4  -8-78.1029 157.719   6
  11   4   8-65.3674 118.711  10
 -11  -4  -8-137.837 140.667  17
  11   4  -8 129.369 110.407  14
  11   4  -9 319.803 163.886  11
  11   4   9 322.870 171.411  10
 -11  -4  -9 261.078 171.699  17
  11   4  -9 225.181 139.202  14
  11   4 -10-80.2318 125.199  11
  11   4  10-73.4711 144.192  10
  11   4 -10 120.992 135.973  14
 -11  -4 -11 1236.85 255.995   7
  11   4 -11 1333.08 275.655  11
  11   4 -11 1256.97 242.344  14
 -11  -4 -12 1539.65 279.534   7
  11   4 -12 1336.42 265.867  11
  11   4 -12 1292.37 237.536  14
 -11  -4 -13 1278.99 255.781   7
  11   4 -13 1156.42 242.046  11
  11   4 -13 1109.26 228.904  14
 -11  -4 -14 79.2836 123.080   7
  11   4 -14 141.960 124.865  11
  11   4 -14-35.2355 117.214  14
 -11  -4 -15-110.972 119.275   7
  11   4 -15 196.474 117.863  11
  11   4 -15-33.0107 83.5260  14
 -11  -4 -16-54.2652 92.2069   7
  11   4 -16-23.3013 70.2960  11
  11   4 -16 50.0855 63.5148  14
  11   5   0 30.8447 66.8958   2
  11   5   1 63.7324 75.7110   2
  11   5   2 3599.62 375.998   2
 -11  -5  -3 5775.61 472.358   3
  11   5   3 797.097 183.105   2
  11   5   4 12529.1 689.982   2
 -11  -5  -4 12591.4 664.493   3
 -11  -5  -5 1971.09 272.549   3
  11   5  -5 1702.57 264.101  11
 -11  -5  -5 1932.10 286.925   6
  11   5   5 1713.00 257.083  10
  11   5  -5 1641.81 244.212  10
  11   5   5 1654.69 266.723   2
  11   5  -6 10887.8 670.737  11
 -11  -5  -6 10912.1 639.500   6
  11   5   6 10820.6 668.774  10
 -11  -5  -6 11884.6 706.691  17
  11   5  -6 10564.6 646.260  14
  11   5  -7 60.8922 97.4712  11
 -11  -5  -7 152.185 111.214   6
  11   5   7-103.872 106.240  10
 -11  -5  -7 135.048 136.906  17
  11   5  -7 157.497 148.276  14
  11   5  -8 7070.02 555.367  11
 -11  -5  -8 6568.82 510.148   6
  11   5   8 6700.57 538.316  10
 -11  -5  -8 7022.11 560.274  17
  11   5  -8 7233.03 552.676  14
  11   5  -9 235.831 158.564  11
  11   5   9-42.2046 117.128  10
 -11  -5  -9-79.9098 151.198  17
  11   5  -9 77.3043 124.833  14
  11   5 -10-19.3285 119.215  11
  11   5  10-49.2724 114.010  10
  11   5 -10-27.2262 92.4949  14
 -11  -5 -11 242.618 172.105   7
  11   5 -11 24.4282 119.763  11
  11   5 -11 269.661 150.391  14
 -11  -5 -12 127.304 115.382   7
  11   5 -12-67.5603 134.560  11
  11   5 -12 207.537 112.370  14
 -11  -5 -13-8.82055 103.721   7
  11   5 -13 63.9254 106.289  11
  11   5 -13 12.3680 92.8889  14
  11   5 -14 2855.68 326.722  11
  11   5 -14 2628.06 309.965  14
 -11  -5 -14 3064.29 334.174   7
 -11  -5 -15 310.053 124.841   7
  11   5 -15 450.677 139.124  11
  11   5 -15 66.8926 73.0601  14
  11   5 -16 349.564 117.095  11
  11   6   0-45.1437 97.9569   2
  11   6   1-9.91148 82.3291   2
  11   6   2 11320.7 657.893   2
 -11  -6  -2 19137.6 829.892   3
  11   6  -3 89.0688 127.452  11
  11   6   3 100.037 103.088  10
  11   6  -3 226.183 125.630  10
  11   6   3 40.8321 73.8588   2
  11   6   4 7930.35 562.312   2
  11   6  -4 9023.43 600.542  11
 -11  -6  -4 9154.71 575.372   6
  11   6   4 8399.95 579.109  10
  11   6  -4 8750.24 595.485  10
 -11  -6  -4 8640.97 586.289  17
  11   6  -5 938.427 215.924  11
 -11  -6  -5 792.550 201.032   6
  11   6   5 610.159 172.108  10
  11   6  -5 875.543 206.228  10
 -11  -6  -5 1006.58 230.378  17
  11   6  -6 2693.44 336.983  11
 -11  -6  -6 2113.78 292.317   6
  11   6   6 2104.56 316.550  10
  11   6  -6 2367.83 324.742  10
 -11  -6  -6 1864.21 307.089  17
  11   6  -6 2325.04 303.996  14
  11   6  -7 335.505 158.912  11
 -11  -6  -7 498.039 159.071   6
  11   6   7 408.184 183.676  10
  11   6  -7 309.395 162.615  10
 -11  -6  -7 477.374 173.806  17
  11   6  -7 297.861 153.782  14
  11   6  -8 58.4801 108.234  11
  11   6   8 30.8082 107.451  10
 -11  -6  -8 47.9104 119.376  17
  11   6  -8-151.465 120.021  14
  11   6  -9 109.184 127.497  11
  11   6   9 38.0977 116.651  10
 -11  -6  -9 43.5642 126.572  17
  11   6  -9-35.2653 122.369  14
  11   6 -10 651.395 192.264  11
  11   6  10 584.098 185.365  10
 -11  -6 -10 559.830 183.399  17
  11   6 -10 824.959 186.211  14
  11   6 -11 115.760 127.028  11
  11   6 -11 82.0923 89.0643  14
  11   6 -12 1286.29 234.959  11
  11   6 -12 1279.27 233.675  14
  11   6 -13-283.141 151.915  11
  11   6 -13 187.426 125.689  14
  11   6 -14 482.047 151.751  11
  11   6 -14 503.068 143.479  14
  11   6 -15-26.5571 69.2350  11
  11   6 -15-19.7270 58.7321  14
  11   7   0 38.2815 108.457  10
  11   7   1 13375.7 711.057   2
  11   7   1 14993.5 775.611  10
  11   7  -1 14607.1 772.883  10
  11   7  -2 169.394 139.053  11
  11   7   2 36.2988 113.493  10
  11   7  -2 175.892 139.103  10
  11   7  -3 6847.65 539.410  11
  11   7   3 6715.20 531.552  10
  11   7  -3 7378.20 549.076  10
 -11  -7  -3 6779.77 523.218  17
  11   7  -4 4567.04 438.503  11
  11   7   4 4658.72 441.672  10
  11   7  -4 5166.15 461.097  10
  11   7  -4 4832.90 462.689   9
 -11  -7  -4 5166.02 474.573  18
 -11  -7  -4 4972.96 465.092  17
  11   7  -5 6923.63 545.682  11
  11   7   5 6888.36 535.189  10
  11   7  -5 7336.83 557.905  10
 -11  -7  -5 6929.54 544.678  17
  11   7  -6 2518.86 350.101  11
  11   7   6 2099.27 306.013  10
  11   7  -6 2266.28 324.519  10
 -11  -7  -6 2309.37 341.929  17
  11   7  -7 232.319 129.186  11
  11   7   7 203.120 112.117  10
  11   7  -7-104.019 144.448  10
 -11  -7  -7-197.143 137.649  17
  11   7  -8 337.703 181.480  11
  11   7   8 183.549 119.419  10
  11   7  -8 157.454 123.810  10
 -11  -7  -8 174.570 149.710  17
  11   7  -8 116.679 128.777  14
  11   7  -9 817.656 214.201  11
  11   7   9 729.236 198.209  10
  11   7  -9 921.803 216.012  10
 -11  -7  -9 729.340 187.027  17
  11   7  -9 724.454 189.797  14
  11   7 -10 78.9179 97.4247  11
  11   7  10 331.231 132.253  10
 -11  -7 -10 233.483 129.011  17
  11   7 -10 166.661 100.764  14
  11   7 -11 3173.13 361.020  11
  11   7 -11 3071.43 354.056  14
  11   7 -12 311.157 150.299  11
  11   7 -12 287.505 137.347  14
  11   7 -13 222.708 123.044  11
  11   7 -13 201.176 109.683  14
  11   7 -14 416.200 136.161  11
  11   7 -14 301.167 109.335  14
  11   7 -15 834.076 157.324  14
  11   8   0 98.4499 137.168  10
  11   8   1 2299.02 324.137  10
  11   8  -1 2254.47 328.152  10
  11   8   2-245.350 147.335  10
  11   8  -2-171.367 120.371  10
 -11  -8  -2-0.26943 107.688  17
  11   8  -3 2376.08 322.247  11
  11   8   3 2395.08 333.916  10
  11   8  -3 2781.17 354.397  10
 -11  -8  -3 2630.18 347.758  18
 -11  -8  -3 2783.24 341.998  17
  11   8  -4 724.413 197.110  11
  11   8   4 867.309 211.130  10
  11   8  -4 825.697 209.379  10
  11   8  -4 642.394 177.731   9
 -11  -8  -4 879.199 209.897  18
 -11  -8  -4 1057.86 237.387  17
  11   8  -5 2552.15 339.912  11
  11   8   5 2347.89 321.185  10
  11   8  -5 2332.51 324.336  10
  11   8  -5 2307.24 328.326   9
 -11  -8  -5 2531.25 343.681  17
  11   8  -6 350.836 145.699  11
  11   8   6 520.252 170.372  10
  11   8  -6 310.349 138.446  10
  11   8  -6 884.103 200.849   9
 -11  -8  -6 487.387 165.687  17
  11   8  -7 121.795 136.233  11
  11   8   7 323.485 139.994  10
  11   8  -7 134.040 135.095  10
 -11  -8  -7-98.0198 138.723  17
  11   8  -8 300.433 140.066  11
  11   8   8 275.402 137.168  10
  11   8  -8 157.567 132.344  10
 -11  -8  -8 165.793 132.568  17
  11   8  -9 790.582 190.005  11
  11   8  -9 777.659 191.554  10
 -11  -8  -9 1127.36 248.744  17
  11   8  -9 897.077 195.552  14
  11   8 -10 204.355 107.453  11
  11   8 -10 290.068 123.519  10
 -11  -8 -10 503.558 186.332  17
  11   8 -10 325.391 143.445  14
  11   8 -11 367.742 148.943  11
  11   8 -11 532.655 158.597  14
  11   8 -12 37.6034 91.1817  11
  11   8 -12 5.81631 73.8179  14
  11   8 -13 422.995 150.538  11
  11   8 -13 390.960 112.758  14
  11   8 -14 195.761 109.270  11
  11   8 -14 59.2337 77.1052  14
  11   9   0 78.2119 131.313  10
  11   9   1 4368.21 438.640  10
  11   9  -1 3993.38 423.031  10
  11   9   2 1266.53 245.933  10
  11   9  -2 1161.56 265.504  10
 -11  -9  -2 1197.00 246.865  17
  11   9   3 1705.21 282.775  10
  11   9  -3 1989.93 307.924  10
 -11  -9  -3 1908.18 294.182  18
 -11  -9  -3 1719.01 290.861  17
  11   9   4 3171.92 370.554  10
  11   9  -4 3015.25 372.181  10
  11   9  -4 2687.75 359.576   9
 -11  -9  -4 2701.28 359.154  18
 -11  -9  -4 2995.62 369.618  17
  11   9   5 516.845 144.758  10
  11   9  -5 587.116 203.842  10
  11   9  -5 75.7055 127.600   9
 -11  -9  -5 343.966 150.271  18
 -11  -9  -5 452.415 171.083  17
  11   9  -6 44.7687 116.821  11
  11   9   6 37.2893 108.014  10
  11   9  -6-357.148 178.479  10
  11   9  -6-48.3670 131.887   9
 -11  -9  -6 89.6094 120.610  17
  11   9  -7 1618.02 261.844  11
  11   9   7 1332.42 236.133  10
  11   9  -7 1694.14 297.423  10
  11   9  -7 1273.97 246.437   9
 -11  -9  -7 1420.52 269.287  17
  11   9  -8 4514.07 423.612  11
  11   9  -8 4862.16 454.819  10
 -11  -9  -8 4766.18 467.363  17
  11   9  -9 114.262 109.312  11
  11   9  -9 315.519 121.444  10
 -11  -9  -9 353.459 174.900  17
  11   9 -10 72.5101 99.8622  11
  11   9 -10 93.9564 123.949  10
 -11  -9 -10-169.283 150.693  17
  11   9 -11 1583.30 237.225  11
  11   9 -11 1523.32 233.652  10
  11   9 -11 1260.10 203.406  14
  11   9 -12 362.994 134.327  11
  11   9 -12 211.944 97.3920  14
  11   9 -13 178.855 88.2862  14
  11  10   0-27.6364 118.540  10
  11  10   1-20.2545 111.985  10
  11  10  -1 89.2522 110.830  10
  11  10   2 195.191 130.184  10
  11  10  -2 168.073 107.070  10
 -11 -10  -2 256.156 137.088  18
 -11 -10  -2 198.180 114.566  17
  11  10   3 1384.94 256.892  10
  11  10  -3 1410.93 266.426  10
 -11 -10  -3 1308.62 259.992  18
 -11 -10  -3 1557.25 272.800  17
  11  10   4 70.4103 119.444  10
  11  10  -4 102.999 117.337  10
  11  10  -4 183.924 150.145   9
 -11 -10  -4 406.616 163.591  18
 -11 -10  -4 236.154 144.988  17
  11  10   5 318.715 129.417  10
  11  10  -5 257.320 161.338  10
  11  10  -5 230.715 141.598   9
 -11 -10  -5 185.892 145.948  18
 -11 -10  -5 205.028 144.707  17
  11  10  -6 474.941 178.301  10
  11  10  -6 657.773 209.459   9
 -11 -10  -6 554.516 175.999  17
  11  10  -7 634.106 203.736  10
  11  10  -7 427.064 166.607   9
 -11 -10  -7 327.555 137.225  17
  11  10  -8 129.672 122.771  10
  11  10  -8-121.945 112.725   9
 -11 -10  -8 54.3644 109.647  17
  11  10  -9 289.549 155.446  10
 -11 -10  -9 200.380 142.017  17
  11  10 -10 838.827 187.675  10
 -11 -10 -10 586.065 174.690  17
  11  10 -11 948.541 187.565  10
  11  10 -12 770.941 155.931  10
  11  11   0 29.4908 106.609  10
  11  11   1 2012.08 299.014  10
  11  11  -1 1847.73 282.850  10
  11  11   2-185.507 139.226  10
  11  11  -2 137.394 147.273  10
 -11 -11  -2 114.429 131.948  18
 -11 -11  -2 314.461 155.251  17
  11  11   3 364.466 158.906  10
  11  11  -3-152.457 157.011  10
 -11 -11  -3-85.6868 144.539  18
 -11 -11  -3-116.803 119.501  17
  11  11   4 4792.80 435.886  10
  11  11  -4 4966.65 460.710  10
 -11 -11  -4 4352.42 447.322  18
 -11 -11  -4 5017.75 472.294  17
  11  11  -5 2253.49 320.697  10
  11  11  -5 2159.14 320.971   9
 -11 -11  -5 2163.20 314.889  18
 -11 -11  -5 1976.74 298.073  17
  11  11  -6 1214.64 232.112  10
  11  11  -6 1342.10 256.773   9
 -11 -11  -6 1314.30 244.024  17
  11  11  -7 42.7853 121.551  10
  11  11  -7-69.3981 100.615   9
  11  11  -8 2688.14 324.104  10
  11  11  -8 2203.16 292.556   9
 -11 -11  -8 2112.51 303.164  17
  11  11  -9 463.023 140.685  10
  11  11  -9 478.930 160.657   9
 -11 -11  -9 439.980 156.843  17
  11  11 -10 155.433 112.822  10
 -11 -11 -10 130.320 96.0792  17
  11  11 -11 239.842 89.7074  10
  11  12   0 91.0396 120.141  10
  11  12   1-13.3148 113.306  10
  11  12  -1-13.7348 110.156  10
 -11 -12  -1 27.3920 106.722  18
  11  12   2 359.106 137.320  10
  11  12  -2 368.251 148.810  10
 -11 -12  -2 317.539 142.792  18
 -11 -12  -2 652.247 209.238  17
  11  12   3-81.8407 106.304  10
  11  12  -3 130.924 132.708  10
 -11 -12  -3 124.461 113.766  18
 -11 -12  -3 224.180 122.979  17
  11  12  -4 1774.83 257.065  10
 -11 -12  -4 2307.87 323.301  18
 -11 -12  -4 1794.10 292.162  17
  11  12  -5 235.078 140.983  10
 -11 -12  -5 395.570 142.446  17
  11  12  -6 411.428 146.799  10
 -11 -12  -6 755.049 190.376  17
  11  12  -7-59.9423 105.686  10
 -11 -12  -7 219.021 134.375  17
  11  12  -8 238.814 113.213  10
 -11 -12  -8 244.267 128.368  17
  11  12  -9 117.161 80.6740  10
 -11 -12  -9 65.4898 86.8156  17
  11  12 -10 412.912 126.660  10
 -11 -12 -10 250.294 110.176  17
  11  13   0-1.83632 92.0554  10
  11  13   1 2138.09 284.090  10
  11  13  -1 2273.98 294.692  10
 -11 -13  -1 2143.11 290.390  18
 -11 -13  -1 2239.60 317.402  17
  11  13  -2 1101.10 218.881  10
 -11 -13  -2 996.969 215.465  18
 -11 -13  -2 1098.80 222.672  17
  11  13  -3 957.952 205.240  10
 -11 -13  -3 1220.34 226.220  18
 -11 -13  -3 1183.48 233.998  17
  11  13  -4-98.4442 105.492  10
 -11 -13  -4 49.8425 79.6173  18
 -11 -13  -4-121.327 126.968  17
  11  13  -5 212.508 113.159  10
 -11 -13  -5 222.158 111.171  17
  11  13  -6 43.0306 85.0292  10
 -11 -13  -6-29.0645 92.5507  17
  11  13  -7 211.525 108.772  10
 -11 -13  -7 234.081 96.9322  17
  11  13  -8 180.095 103.988  10
 -11 -13  -8-20.0823 78.0329  17
 -11 -14   0 53.1380 110.066  18
 -11 -14   0-74.3169 94.4148  17
  11  14  -1 165.404 92.9534  10
 -11 -14  -1 174.763 99.3697  18
  11  14  -2 149.189 98.2511  10
 -11 -14  -2 130.009 100.629  18
 -11 -14  -2 85.1895 105.559  17
  11  14  -3 646.674 157.466  10
 -11 -14  -3 821.818 176.499  18
 -11 -14  -3 454.391 130.097  17
  11  14  -4 82.4530 76.4816  10
 -11 -14  -4-107.074 104.666  17
  11  14  -5 239.106 114.944  10
 -11 -14  -5 8.93445 82.7025  17
  11  14  -6 63.0824 75.0740  10
 -11 -14  -6-28.2833 82.8507  17
 -11 -15   0-139.479 101.174  17
 -11 -15  -1 91.0580 92.1908  17
 -11 -15   1-56.9109 89.0753  17
 -11 -15  -2-10.3093 85.7727  17
 -11 -15  -3 33.5909 90.3890  17
  12   0   0 31363.7 1052.91   2
  12   0   1 89.6695 86.9424   2
  12   0   2 2423.75 301.762   2
  12   0   3-25.0998 72.7486   2
  12   0   4 2892.16 337.323   2
 -12   0  -5 150.653 139.551   6
  12   0   5 120.961 120.530  10
  12   0   5 86.3500 99.7780   2
  12   0  -5-45.0895 91.8742  15
  12   0  -6 7777.58 544.032  11
 -12   0  -6 7456.06 553.087   6
  12   0   6 8501.71 580.715  10
  12   0  -6 7375.32 528.240  15
  12   0  -7-39.0501 121.630  11
 -12   0  -7 222.022 113.834   6
  12   0   7 320.178 149.765  10
  12   0  -7 1.44886 97.0238  15
  12   0  -8 807.152 187.257  11
 -12   0  -8 1147.03 243.889   6
  12   0  -8 1019.59 227.793  15
  12   0  -9 113.166 134.247  11
  12   0  -9 134.449 128.413  15
  12   0 -10 1080.17 234.305  11
 -12   0 -11-106.291 108.042   7
  12   0 -11-38.6827 114.186  11
 -12   0 -12 41.7763 110.786   7
  12   0 -12 42.9034 112.706  11
 -12   0 -13-5.01926 92.5543   7
  12   0 -13-103.103 126.836  11
 -12   0 -14 992.698 212.212   7
  12   0 -14 937.458 189.425  11
 -12   0 -15-54.1776 81.2385   7
  12   0 -15 119.914 79.1820  11
 -12   0 -16 235.680 101.341   7
  12   1   0-29.1403 90.6201   2
  12   1   1 9999.26 605.845   2
  12   1   2 8329.30 554.548   2
  12   1   3 3555.26 368.849   2
  12   1   4 6447.08 499.315   2
  12   1  -5 456.857 135.245  11
 -12   1  -5 701.934 174.343   6
  12  -1   5 725.962 195.768  10
 -12  -1  -5 567.554 165.654   6
  12   1   5 614.753 179.861  10
  12   1   5 526.782 152.656   2
  12  -1  -5 757.060 174.172  15
  12   1  -5 753.820 190.059  15
  12   1  -6 18223.0 842.744  11
 -12   1  -6 18549.3 827.935   6
 -12  -1  -6 18209.1 835.313   6
  12  -1   6 18599.9 856.999  10
  12   1   6 18279.9 864.941  10
  12  -1  -6 19037.6 820.979  15
  12   1  -6 19313.9 830.324  15
  12   1  -7 216.598 132.242  11
 -12   1  -7 277.622 163.735   6
 -12  -1  -7 257.111 136.202   6
  12   1   7 414.471 151.926  10
  12  -1  -7 288.141 140.124  15
  12   1  -7 324.523 149.921  15
  12   1  -8 5575.86 477.003  11
 -12   1  -8 5168.19 465.889   6
 -12  -1  -8 4990.47 463.965   6
  12   1   8 5025.76 465.589  10
  12  -1  -8 5547.66 454.038  15
  12   1  -8 5606.47 461.411  15
  12   1  -9 2842.87 361.222  11
  12   1  -9 2817.63 336.477  15
  12   1  -9 2557.48 350.377  14
  12   1 -10 39.9725 128.766  11
  12   1 -10 48.6778 100.980  15
  12   1 -10 99.5120 124.934  14
 -12   1 -11 641.357 186.825   7
 -12  -1 -11 624.973 181.778   7
  12   1 -11 242.034 137.232  11
  12   1 -11 595.303 188.242  14
 -12   1 -12-73.6420 137.240   7
 -12  -1 -12-160.824 147.190   7
  12   1 -12-187.527 136.773  11
 -12   1 -13 859.657 218.052   7
 -12  -1 -13 795.783 217.768   7
  12   1 -13 841.343 195.712  11
 -12   1 -14 157.292 106.627   7
 -12  -1 -14 78.8356 81.6328   7
  12   1 -14 95.4137 128.881  11
 -12   1 -15-79.7212 91.7400   7
 -12  -1 -15 1.29559 81.2140   7
  12   1 -15 84.1074 92.3494  11
 -12  -1 -16 1686.85 216.776   7
  12   2   0 3410.84 361.161   2
  12   2   1 4942.14 434.664   2
  12   2   2-11.0926 75.4326   2
  12   2   3 21.1168 102.734   2
  12   2   4 173.861 114.102   2
  12   2  -5 1553.24 256.945  11
 -12   2  -5 1195.89 224.269   6
 -12  -2  -5 1323.80 236.241   6
  12   2   5 1489.41 252.996  10
  12   2   5 1222.56 236.505   2
  12  -2  -5 1214.59 204.933  15
  12   2  -5 1641.42 252.700  15
  12   2  -6 241.526 159.829  11
 -12   2  -6 580.810 179.837   6
 -12  -2  -6 432.217 142.359   6
  12   2   6 787.800 208.270  10
  12  -2  -6 158.617 90.5373  15
  12   2  -6 352.451 154.078  15
  12   2  -7 4660.17 444.456  11
 -12   2  -7 4414.77 413.224   6
 -12  -2  -7 4506.77 424.629   6
  12   2   7 4971.04 455.518  10
  12  -2  -7 4853.46 424.520  15
  12   2  -7 4617.62 425.718  15
  12   2  -7 4673.66 460.963  14
  12   2  -8 686.190 210.982  11
 -12  -2  -8 941.897 211.772   6
  12   2   8 983.760 214.459  10
  12   2  -8 678.097 167.374  15
  12   2  -8 808.884 216.864  14
  12   2  -9 334.794 154.027  11
  12   2  -9 199.787 127.379  15
  12   2  -9 332.663 151.963  14
 -12   2 -10 79.6992 112.470   7
  12   2 -10-46.7878 128.759  11
  12   2 -10 129.051 101.441  15
  12   2 -10-174.520 127.713  14
 -12   2 -11 591.031 179.936   7
 -12  -2 -11 570.285 211.329   7
  12   2 -11 565.102 181.899  11
  12   2 -11 527.430 169.018  14
 -12   2 -12-132.108 134.603   7
 -12  -2 -12-16.2935 127.232   7
  12   2 -12-14.4853 111.687  11
  12   2 -12 40.3937 106.662  14
 -12   2 -13 407.506 162.560   7
 -12  -2 -13 389.206 154.128   7
  12   2 -13 316.139 141.984  11
 -12   2 -14 326.310 128.835   7
 -12  -2 -14 95.8160 89.8295   7
  12   2 -14 494.333 151.570  11
 -12   2 -15 1502.73 222.848   7
 -12  -2 -15 1453.17 219.587   7
  12   2 -15 1510.69 235.842  11
  12   3   0-19.1287 75.3123   2
  12   3   1 20441.2 886.422   2
  12   3   2 357.291 126.125   2
  12   3   3 4407.51 427.624   2
  12   3  -4 41.9177 86.7865  11
 -12  -3  -4 120.840 116.639   6
  12   3   4 126.886 103.258  10
  12   3   4 79.9403 81.2929   2
  12  -3  -4-77.8127 127.481  15
  12   3  -4 0.11480 113.637  15
  12   3  -5 1161.08 234.211  11
 -12  -3  -5 861.853 211.619   6
  12   3   5 859.247 209.287  10
  12  -3  -5 815.692 191.674  15
  12   3  -6 3147.52 371.933  11
 -12  -3  -6 3456.77 387.828   6
  12   3   6 3194.79 374.797  10
  12  -3  -6 3559.30 370.180  15
  12   3  -6 3262.94 382.767  14
  12   3  -7-7.12330 98.0279  11
 -12   3  -7 193.514 148.153   6
 -12  -3  -7 116.678 124.482   6
  12   3   7 2.21011 114.045  10
  12   3  -7-193.548 150.907  14
  12   3  -8 78.0645 159.403  11
 -12  -3  -8 110.743 126.196   6
  12   3   8 247.218 142.375  10
  12   3  -8 168.030 142.462  14
  12   3  -9 9569.01 641.091  11
  12   3   9 9824.88 650.237  10
  12   3  -9 9115.98 602.831  15
  12   3  -9 9191.43 649.587  14
 -12   3 -10 529.559 173.167   7
  12   3 -10 609.638 181.725  11
  12   3 -10 767.267 199.028  15
  12   3 -10 675.433 187.598  14
 -12   3 -11 685.969 199.866   7
 -12  -3 -11 415.922 163.793   7
  12   3 -11 384.502 174.391  11
  12   3 -11 379.309 137.187  15
  12   3 -11 457.495 158.121  14
 -12   3 -12 70.8108 103.786   7
 -12  -3 -12 292.218 137.000   7
  12   3 -12-12.5358 115.806  11
  12   3 -12-55.0032 116.333  14
 -12   3 -13 4316.75 404.250   7
 -12  -3 -13 4587.77 440.323   7
  12   3 -13 5051.15 436.549  11
  12   3 -13 4551.87 429.008  14
 -12   3 -14 93.5695 80.4047   7
 -12  -3 -14 171.531 90.5780   7
 -12   3 -15 215.862 101.084   7
 -12  -3 -15 276.343 115.347   7
  12   3 -15 252.704 121.444  11
  12   4   0 3261.16 366.099   2
  12   4   1 591.980 169.455   2
  12   4  -2 92.3858 88.7901  11
  12   4   2-39.0759 116.871  10
  12   4   2-9.94265 83.7792   2
  12  -4  -2 134.811 85.3372  15
  12   4  -3-79.1838 120.845  11
  12   4   3 52.2988 90.6361  10
  12   4   3-27.4128 84.0585   2
  12  -4  -3 90.8760 147.165  15
  12   4  -4 331.890 147.994  11
 -12  -4  -4 232.988 152.373   6
  12   4   4 294.688 148.744  10
  12  -4  -4 402.419 168.778  15
  12   4  -5 1325.93 254.272  11
 -12  -4  -5 1699.65 271.065   6
  12   4   5 1261.07 234.224  10
  12  -4  -5 1532.31 239.179  15
  12   4  -6 172.074 116.058  11
 -12  -4  -6 313.227 158.828   6
  12   4   6 141.442 110.670  10
  12   4  -6 194.513 136.947  14
  12   4  -7 1271.90 251.535  11
 -12  -4  -7 1328.25 265.595   6
  12   4   7 1087.70 239.742  10
 -12  -4  -7 1168.57 249.023  17
  12   4  -7 1160.05 239.713  14
  12   4  -8 494.959 172.190  11
 -12  -4  -8 571.760 168.414   6
  12   4   8 573.600 181.941  10
 -12  -4  -8 610.099 187.425  17
  12   4  -8 737.057 196.515  14
  12   4  -9 90.7033 136.141  11
  12   4   9 282.845 149.689  10
  12   4  -9 180.416 144.330  14
  12   4 -10 1435.65 266.455  11
  12   4 -10 1531.43 279.937  14
 -12  -4 -11-141.362 138.208   7
  12   4 -11 21.9274 123.224  11
  12   4 -11-54.2246 115.433  15
  12   4 -11-44.8121 115.050  14
 -12  -4 -12-23.8256 92.9759   7
  12   4 -12-80.8014 105.127  11
  12   4 -12 50.9863 99.9663  15
  12   4 -12 69.8650 91.4290  14
 -12  -4 -13 336.651 132.833   7
  12   4 -13 542.606 171.035  11
  12   4 -13 131.603 102.756  14
 -12  -4 -14 1339.95 222.941   7
  12   4 -14 1609.53 249.372  11
  12   4 -14 1573.29 231.237  14
 -12  -4 -15 480.681 133.443   7
  12   4 -15 613.069 150.138  11
  12   5   0 585.846 153.205   2
  12   5   0 545.279 158.133  10
  12   5   1 511.178 152.461  10
  12   5  -1 536.128 165.849  10
  12  -5  -1 167.166 115.086  15
  12   5  -1 336.605 137.523  15
  12   5  -2 4670.64 444.041  11
  12   5   2 5743.16 484.073  10
  12   5  -2 5252.62 457.911  10
  12  -5  -2 5022.85 436.789  15
  12   5  -3 44.1854 113.164  11
 -12  -5  -3 384.886 188.295   6
  12   5   3 276.587 123.465  10
  12   5  -3 448.794 173.894  10
  12  -5  -3 388.027 168.826  15
  12   5  -4 5631.11 486.738  11
 -12  -5  -4 5746.56 475.720   6
  12   5   4 5021.12 464.230  10
  12   5  -4 5285.64 466.347  10
  12  -5  -4 5499.69 451.452  15
  12   5  -5-51.2574 112.276  11
 -12  -5  -5-110.276 136.843   6
  12   5   5-109.543 108.823  10
  12  -5  -5 47.2955 106.333  15
  12   5  -5-19.0768 120.033  14
  12   5  -6 13919.9 780.420  11
 -12  -5  -6 13878.6 745.665   6
  12   5   6 13164.2 749.599  10
 -12  -5  -6 13858.1 769.025  17
  12   5  -6 13024.5 717.314  14
  12   5  -7 562.665 187.993  11
 -12  -5  -7 484.888 159.665   6
  12   5   7 531.513 182.577  10
 -12  -5  -7 658.490 199.450  17
  12   5  -7 429.131 164.988  14
  12   5  -8 2799.72 369.923  11
 -12  -5  -8 2542.16 322.325   6
  12   5   8 3050.17 372.135  10
 -12  -5  -8 2567.92 351.789  17
  12   5  -8 2281.28 320.887  14
  12   5  -9 71.7129 128.141  11
  12   5   9-142.625 128.672  10
  12   5  -9-91.1802 110.529  14
  12   5 -10 650.644 198.600  11
  12   5 -10 549.461 168.828  14
 -12  -5 -11-50.9863 95.2910   7
  12   5 -11-57.4811 113.741  11
  12   5 -11 14.2386 100.913  14
 -12  -5 -12 226.655 131.782   7
  12   5 -12 122.590 133.492  11
  12   5 -12 53.2189 90.8051  15
  12   5 -12 143.414 117.800  14
 -12  -5 -13-10.2096 89.5557   7
  12   5 -13 199.444 131.488  11
  12   5 -13 124.465 94.1476  15
  12   5 -13-31.2737 94.5858  14
 -12  -5 -14 3.36042 86.2401   7
  12   5 -14 230.773 122.737  11
  12   5 -14-22.8157 83.1910  14
  12   5 -15 70.7043 92.8300  11
  12   6   0 2508.16 333.707  10
  12   6   1 1068.47 224.929  10
  12   6  -1 836.763 203.150  10
  12   6   2 290.671 160.296  10
  12   6  -2 533.987 184.791  10
  12   6  -3-35.3536 139.024  11
 -12  -6  -3 313.284 162.858   6
  12   6   3 233.857 132.624  10
  12   6  -3 234.791 150.861  10
  12   6  -4 127.159 123.037  11
 -12  -6  -4 213.064 131.931   6
  12   6   4 90.9687 103.468  10
  12   6  -4 10.7465 121.343  10
  12   6  -5 397.600 153.959  11
 -12  -6  -5 625.530 184.731   6
  12   6   5 320.400 146.779  10
  12   6  -5 626.180 179.085  10
 -12  -6  -5 109.860 105.403  17
  12   6  -6 435.182 180.871  11
 -12  -6  -6 373.243 167.236   6
  12   6   6 427.127 162.561  10
  12   6  -6 526.964 193.543  10
 -12  -6  -6 207.570 136.762  17
  12   6  -7 144.578 128.642  11
 -12  -6  -7-267.672 153.317   6
  12   6   7 35.7151 108.841  10
 -12  -6  -7-50.2712 126.960  17
  12   6  -7 151.408 120.316  14
  12   6  -8 1812.43 292.300  11
  12   6   8 1717.30 274.662  10
 -12  -6  -8 1863.90 300.168  17
  12   6  -8 1814.46 288.313  14
  12   6  -9 428.241 169.777  11
  12   6   9 340.590 151.284  10
 -12  -6  -9-88.7741 143.884  17
  12   6  -9 63.3538 113.990  14
 -12  -6 -10 401.468 172.014   7
  12   6 -10 285.563 136.512  11
  12   6 -10 204.973 127.010  14
 -12  -6 -11 115.821 114.674   7
  12   6 -11 154.697 128.371  11
  12   6 -11 101.371 116.504  14
  12   6 -12 696.547 187.365  11
  12   6 -12 599.338 163.032  14
  12   6 -13 340.549 142.087  11
  12   6 -13 109.897 93.4321  15
  12   6 -14 1243.42 197.141  11
  12   6 -14 959.164 173.134  14
  12   7   0 1157.45 245.661  10
  12   7   1 11406.3 696.147  10
  12   7  -1 12361.7 721.105  10
  12   7   2 1811.70 312.691  10
  12   7  -2 1744.13 295.329  10
  12   7  -3 4357.57 443.087  11
  12   7   3 3745.22 394.434  10
  12   7  -3 4324.40 443.649  10
  12   7  -4-46.9794 119.348  11
  12   7   4 222.983 144.894  10
  12   7  -4 116.246 143.942  10
 -12  -7  -4-33.2133 102.189  17
  12   7  -5 196.338 117.969  11
  12   7   5 130.508 129.673  10
  12   7  -5 435.514 181.707  10
 -12  -7  -5 217.349 107.806  17
  12   7  -6 1848.09 302.811  11
  12   7   6 1786.24 285.675  10
  12   7  -6 1627.03 286.765  10
 -12  -7  -6 1706.88 290.352  17
  12   7  -7 177.438 123.247  11
  12   7   7 181.518 113.392  10
  12   7  -7 532.406 180.304  10
 -12  -7  -7 444.896 174.704  17
  12   7  -8 698.062 185.355  11
  12   7   8 786.454 191.462  10
  12   7  -8 1055.72 218.704  10
 -12  -7  -8 809.629 195.061  17
  12   7  -8 796.241 195.631  14
  12   7  -9 3322.50 384.606  11
  12   7   9 2958.10 351.565  10
 -12  -7  -9 3259.96 382.512  17
  12   7  -9 3149.45 346.831  14
  12   7 -10 178.727 115.284  11
  12   7 -10-210.163 127.904  14
  12   7 -11 255.205 142.311  11
  12   7 -11 495.528 150.325  14
  12   7 -12-146.839 111.171  11
  12   7 -12 104.028 98.0539  14
  12   7 -13 1612.48 225.435  11
  12   7 -13 1393.11 189.512  15
  12   7 -13 1453.51 213.271  14
  12   8   0 1152.78 251.318  10
  12   8   1 1711.56 294.531  10
  12   8  -1 1597.92 280.648  10
  12   8   2 10.1927 120.885  10
  12   8  -2-60.2854 134.895  10
  12   8   3 224.454 151.963  10
  12   8  -3 37.6413 125.176  10
 -12  -8  -3 97.1169 125.940  17
  12   8  -4 240.299 151.656  11
  12   8   4 271.437 157.667  10
  12   8  -4 275.494 155.500  10
 -12  -8  -4 458.328 156.536  17
  12   8  -5 77.9356 128.764  11
  12   8   5 162.221 155.953  10
  12   8  -5 222.904 146.370  10
 -12  -8  -5 178.659 127.406  17
  12   8  -6-104.607 124.250  11
  12   8   6-216.228 149.041  10
  12   8  -6 80.4746 121.145  10
 -12  -8  -6 91.2403 126.894  17
  12   8  -7 3500.96 386.750  11
  12   8   7 3813.69 403.591  10
  12   8  -7 4380.68 427.417  10
 -12  -8  -7 3713.44 403.943  17
  12   8  -8 1197.57 234.853  11
  12   8   8 1072.14 217.555  10
  12   8  -8 1249.21 222.441  10
 -12  -8  -8 1056.09 232.474  17
  12   8  -9 50.7695 114.448  11
  12   8   9 204.526 126.348  10
  12   8  -9 393.804 161.519  10
 -12  -8  -9 202.439 134.206  17
  12   8 -10 161.345 131.236  11
  12   8 -10-31.2619 85.4318  14
  12   8 -11-114.513 122.154  11
  12   8 -11 131.930 84.8484  14
  12   8 -12 277.536 112.845  11
  12   8 -12 46.9849 71.4287  14
  12   8 -13-139.756 85.3634  11
  12   8 -13-55.2838 74.5286  15
  12   8 -13 25.6623 76.7827  14
  12   9   0 1708.48 277.644  10
  12   9   1 2534.58 352.747  10
  12   9  -1 2629.27 347.722  10
  12   9   2 742.504 190.912  10
  12   9  -2 746.894 203.712  10
 -12  -9  -2 524.040 180.554  17
  12   9   3-69.2314 147.225  10
  12   9  -3 171.400 155.553  10
 -12  -9  -3-8.38008 125.023  17
  12   9  -4 2783.72 355.035  10
  12   9   4 2383.65 328.931  10
 -12  -9  -4 2521.89 353.504  17
  12   9   5 20.2931 110.882  10
  12   9  -5 211.590 128.987  10
 -12  -9  -5 118.874 134.080  17
  12   9  -6 3206.97 367.542  11
  12   9   6 2765.76 339.507  10
  12   9  -6 3019.70 363.241  10
 -12  -9  -6 2869.83 352.837  17
  12   9  -7 396.368 132.888  11
  12   9   7 425.637 130.548  10
  12   9  -7 745.155 199.834  10
 -12  -9  -7 488.692 169.992  17
  12   9  -8 496.926 160.763  11
  12   9   8 404.960 134.682  10
  12   9  -8 664.426 183.825  10
 -12  -9  -8 402.936 158.620  17
  12   9  -9 3461.45 356.768  11
  12   9  -9 4093.51 385.496  10
 -12  -9  -9 3617.97 376.198  17
  12   9 -10 417.508 135.990  11
  12   9 -10 828.949 192.140  10
  12   9 -11-135.008 107.634  11
  12   9 -12-183.796 101.255  11
  12  10   0 7798.39 578.514  10
  12  10   1 756.041 214.605  10
  12  10  -1 854.401 215.578  10
 -12 -10  -1 462.351 170.188  17
  12  10   2 529.856 176.225  10
  12  10  -2 417.951 174.443  10
 -12 -10  -2 522.424 178.544  17
  12  10   3 360.623 152.812  10
  12  10  -3 87.4959 126.961  10
 -12 -10  -3 368.528 173.344  18
 -12 -10  -3 449.292 187.306  17
  12  10   4 113.573 101.401  10
  12  10  -4 275.719 172.416  10
 -12 -10  -4 377.078 150.634  17
  12  10   5 114.559 120.535  10
  12  10  -5 261.522 134.262  10
 -12 -10  -5 210.293 139.673  17
  12  10   6 153.088 119.316  10
  12  10  -6 46.1740 103.760  10
 -12 -10  -6 116.784 126.183  17
  12  10  -7 589.841 183.204  10
 -12 -10  -7 526.804 171.730  17
  12  10  -8 286.796 132.224  10
 -12 -10  -8 269.611 128.809  17
  12  10  -9 180.520 130.059  10
 -12 -10  -9 15.9215 100.926  17
  12  10 -10 226.049 111.198  10
  12  10 -11-0.89964 64.8372  10
  12  11   0-75.8618 122.206  10
 -12 -11   0-138.509 131.443  17
  12  11   1 108.704 136.157  10
  12  11  -1 19.3418 124.149  10
 -12 -11  -1 106.549 97.9432  17
  12  11   2 2140.95 309.787  10
  12  11  -2 2024.39 302.282  10
 -12 -11  -2 1744.91 283.880  17
  12  11   3 1892.85 289.956  10
  12  11  -3 1731.22 284.189  10
 -12 -11  -3 1938.77 292.506  17
  12  11   4 741.433 177.666  10
  12  11  -4 597.633 177.419  10
 -12 -11  -4 692.271 178.236  17
  12  11   5 33.0081 84.7140  10
  12  11  -5-114.392 143.145  10
 -12 -11  -5-68.8904 105.309  17
  12  11  -6 2382.93 314.103  10
 -12 -11  -6 2772.44 338.390  17
  12  11  -7 914.790 190.484  10
 -12 -11  -7 1245.24 221.023  17
  12  11  -8 1592.51 231.052  10
 -12 -11  -8 1639.09 245.236  17
  12  11  -9 117.202 78.9310  10
 -12 -11  -9 292.012 117.593  17
  12  11 -10 57.0686 83.4727  10
  12  12   0 1401.15 229.208  10
 -12 -12   0 1608.44 244.946  17
  12  12   1 229.549 130.329  10
  12  12  -1 327.077 148.001  10
 -12 -12  -1 222.160 136.484  17
  12  12   2 281.769 137.144  10
  12  12  -2 255.162 149.904  10
 -12 -12  -2 204.172 124.648  18
 -12 -12  -2 278.502 150.960  17
  12  12  -3 543.730 161.750  10
 -12 -12  -3 272.288 131.014  17
  12  12  -4-58.2693 111.541  10
 -12 -12  -4-13.9726 103.913  17
  12  12  -5 189.000 115.347  10
 -12 -12  -5 137.021 93.9443  17
  12  12  -6-50.4519 91.2168  10
 -12 -12  -6 58.4699 84.6403  17
  12  12  -7 262.900 102.932  10
 -12 -12  -7 341.786 113.186  17
  12  12  -8 220.244 96.4642  10
 -12 -12  -8 359.787 118.227  17
 -12 -12  -9-54.2645 78.9680  17
  12  13   0 667.633 178.755  10
 -12 -13   0 522.923 143.955  17
  12  13   1 2117.29 272.665  10
  12  13  -1 2250.71 281.595  10
 -12 -13  -1 2326.66 277.465  17
 -12 -13   1 2017.07 253.227  17
  12  13   2-4.79753 80.2336  10
  12  13  -2 149.213 109.564  10
 -12 -13  -2 190.832 104.918  17
  12  13  -3 526.207 138.570  10
 -12 -13  -3 410.391 131.829  17
  12  13  -4 89.4367 77.2790  10
 -12 -13  -4 189.108 112.845  17
  12  13  -5 591.562 146.420  10
 -12 -13  -5 146.250 80.9147  17
  12  13  -6-58.9571 85.5189  10
 -12 -13  -6 74.3748 95.7098  17
  12  13  -7 58.4692 79.2932  10
 -12 -13  -7-82.0085 80.7850  17
  12  14   0 270.476 104.290  10
 -12 -14   0 217.419 105.194  17
  12  14  -1 32.0317 67.8217  10
 -12 -14  -1-6.66228 74.0416  17
 -12 -14   1 84.3938 89.4549  17
  12  14  -2 47.3416 82.0318  10
 -12 -14  -2 304.969 107.758  17
  12  14  -3 305.935 111.870  10
 -12 -14  -3 358.875 122.555  17
  13   0   0 47.3892 96.4049  15
  13   0   1 105.006 83.2515  15
  13   0  -1 54.1075 103.585  15
  13   0   1 44.7839 76.0411   2
  13   0   2 14006.7 747.362   2
  13   0   2 14829.6 688.835  15
  13   0  -2 15238.8 740.188  15
 -13   0  -3 70.9935 132.867   6
  13   0  -3-48.6059 109.843  15
 -13   0  -4 3762.27 399.810   6
  13   0   4 3605.64 389.172  10
  13   0  -4 3522.52 374.111  15
 -13   0  -5-130.417 120.852   6
  13   0   5 41.2561 116.058  10
  13   0  -5-94.9322 114.305  15
 -13   0  -6 312.138 141.340   6
  13   0   6 393.944 170.416  10
  13   0  -6 123.746 107.746  15
  13   0  -7 80.1503 135.051  11
 -13   0  -7-79.0452 137.348   6
  13   0  -7-39.0415 101.446  15
  13   0  -8 475.534 174.886  11
 -13   0  -8 323.824 133.870   6
  13   0  -8 411.955 147.625  15
  13   0  -9-90.6109 110.123  11
  13   0  -9 38.0772 126.877  15
  13   0 -10 2943.25 348.737  11
 -13   0 -11-63.9287 108.033   7
  13   0 -11 41.9852 106.051  11
 -13   0 -12 1736.89 280.764   7
 -13   0 -13-222.455 133.112   7
 -13   0 -14-38.1504 78.2577   7
 -13   0 -15 31.7270 59.7705   7
  13  -1   0 217.154 129.468  15
  13   1   0-5.68164 82.5983  15
  13  -1   1 462.953 152.567  15
  13  -1  -1 436.285 155.214  15
  13   1   1 593.791 170.777  15
  13   1  -1 625.854 179.989  15
  13   1   1 288.293 125.678   2
  13  -1   2 16721.1 737.701  15
  13   1   2 16197.4 711.385  15
  13  -1  -2 17080.3 786.256  15
  13   1  -2 17106.3 770.626  15
  13   1  -3 975.790 208.469  11
  13   1   3 1408.95 263.781  10
 -13   1  -3 941.685 196.382   6
 -13  -1  -3 909.187 207.742   6
  13  -1   3 842.254 174.432  15
  13  -1  -3 1075.68 212.698  15
  13   1  -3 1120.68 209.857  15
  13   1  -4 342.853 137.369  11
 -13   1  -4 173.302 130.207   6
 -13  -1  -4 208.932 129.962   6
  13   1   4 160.555 113.229  10
  13  -1  -4 365.808 167.171  15
  13   1  -4 373.984 163.596  15
  13   1  -5 4394.33 432.387  11
 -13   1  -5 4089.85 406.221   6
 -13  -1  -5 4407.70 428.188   6
  13  -1   5 4644.47 433.659  10
  13   1   5 5463.59 471.717  10
  13  -1  -5 4667.89 427.024  15
  13   1  -5 4925.78 432.277  15
  13   1  -6 250.640 144.274  11
 -13   1  -6 386.645 154.034   6
 -13  -1  -6 358.093 141.187   6
  13   1   6 259.697 153.293  10
  13  -1  -6 267.953 143.283  15
  13   1  -6 204.683 138.194  15
  13   1  -7 454.139 173.406  11
 -13   1  -7 416.205 176.184   6
 -13  -1  -7 582.387 167.904   6
  13   1   7 447.668 179.965  10
  13  -1  -7 637.448 183.617  15
  13   1  -7 447.358 139.357  15
  13   1  -8 147.410 119.251  11
 -13  -1  -8-84.5277 151.041   6
  13  -1  -8 217.197 119.537  15
  13   1  -8-92.0421 99.2730  15
  13   1  -9 798.523 206.090  11
  13   1  -9 727.320 180.269  15
 -13   1 -10-78.9498 126.931   7
  13   1 -10 351.148 150.234  11
  13   1 -10 408.604 156.328  15
 -13   1 -11 119.883 114.495   7
 -13  -1 -11-108.590 118.059   7
  13   1 -11 281.621 153.636  11
 -13   1 -12 769.562 190.267   7
 -13  -1 -12 735.880 192.364   7
  13   1 -12 659.483 179.397  11
 -13   1 -13 117.793 99.5165   7
 -13  -1 -13 135.683 115.636   7
  13   1 -13 198.837 132.587  11
 -13   1 -14-20.7063 67.8431   7
 -13  -1 -14 9.55066 85.9979   7
  13   1 -14 232.677 121.491  11
 -13  -1 -15-153.212 88.9250   7
  13  -2   0 43.8379 98.4684  15
  13   2   0 57.0875 89.3942  15
  13   2   1 65.7192 106.146  10
  13  -2   1 218.719 120.592  15
  13  -2  -1-45.6706 101.890  15
  13   2   1-114.773 107.911  15
  13   2  -1 290.318 122.639  15
 -13   2  -2 1192.65 233.306   6
  13   2   2 985.268 201.235  10
  13  -2   2 1170.44 221.839  15
  13  -2  -2 970.113 218.113  15
  13   2  -2 1229.11 220.726  15
  13   2  -3 5144.44 459.710  11
 -13   2  -3 5101.69 441.033   6
 -13  -2  -3 4630.24 450.743   6
  13   2   3 5237.60 469.643  10
  13  -2   3 4485.23 385.219  15
  13  -2  -3 5015.23 441.762  15
  13   2  -3 4463.27 413.521  15
  13   2  -4 627.353 166.668  11
 -13   2  -4 224.085 136.681   6
 -13  -2  -4 782.469 197.941   6
  13   2   4 870.044 216.887  10
  13  -2  -4 660.691 184.347  15
  13   2  -4 762.923 188.915  15
  13   2  -5 8857.25 632.191  11
 -13   2  -5 9655.42 613.296   6
 -13  -2  -5 9921.92 635.577   6
  13   2   5 10301.3 665.349  10
  13  -2  -5 9314.29 617.936  15
  13   2  -5 10309.6 624.401  15
  13   2  -6 199.191 138.230  11
 -13   2  -6 59.2842 134.216   6
 -13  -2  -6 172.176 142.208   6
  13   2   6 108.330 107.835  10
  13  -2  -6 302.890 142.930  15
  13   2  -6 158.080 130.586  15
  13   2  -7 495.095 171.482  11
 -13   2  -7 288.761 124.283   6
 -13  -2  -7-46.9209 122.049   6
  13   2   7-71.1183 129.192  10
  13  -2  -7 286.052 144.351  15
  13   2  -7-0.12502 105.642  15
  13   2  -8-133.683 125.599  11
 -13  -2  -8 163.571 167.417   6
  13   2   8 185.759 139.529  10
  13   2  -8 138.946 108.389  15
  13   2  -9 2616.30 356.012  11
  13   2  -9 2290.68 290.194  15
 -13   2 -10 930.685 224.517   7
  13   2 -10 962.290 233.761  11
  13   2 -10 752.002 184.695  15
 -13   2 -11 894.073 213.007   7
 -13  -2 -11 713.417 193.887   7
  13   2 -11 776.987 221.786  11
  13   2 -11 795.631 192.271  15
 -13   2 -12 462.330 160.266   7
 -13  -2 -12 621.010 178.862   7
  13   2 -12 743.959 192.268  11
 -13   2 -13 290.803 109.338   7
 -13  -2 -13 579.455 152.935   7
  13   2 -13 662.538 185.600  11
 -13   2 -14-161.786 93.2907   7
 -13  -2 -14-249.492 112.569   7
  13   2 -14 32.8790 79.3492  11
  13   3   0-44.0949 117.067  10
  13  -3   0-265.254 136.340  15
  13   3   0-47.3873 80.8463  15
  13   3   1 32.9101 108.762  10
  13  -3   1-64.1522 101.640  15
  13  -3  -1 187.560 113.654  15
  13   3  -1-59.6392 96.1784  15
  13   3   2-128.571 147.637  10
  13  -3   2 116.948 126.377  15
  13  -3  -2 130.305 140.881  15
  13   3  -2 105.532 109.440  15
  13   3  -3 1272.89 242.828  11
 -13  -3  -3 1306.61 248.284   6
  13   3   3 1324.59 251.023  10
  13  -3  -3 1352.81 241.809  15
  13   3  -3 1013.04 210.917  15
  13   3  -4 139.200 131.800  11
 -13  -3  -4 181.393 158.172   6
  13   3   4 162.120 109.462  10
  13  -3  -4-2.95371 126.071  15
  13   3  -4 93.3781 94.1314  15
  13   3  -5 8555.55 623.163  11
 -13  -3  -5 8316.61 589.549   6
  13   3   5 8956.71 623.508  10
  13  -3  -5 9501.11 599.728  15
  13   3  -5 8152.78 559.475  15
  13   3  -6 0.13902 109.796  11
 -13  -3  -6-34.3747 116.717   6
  13   3   6 170.963 105.931  10
  13  -3  -6 147.477 134.637  15
  13   3  -6 20.6701 122.411  15
  13   3  -7 139.002 141.334  11
 -13  -3  -7 297.684 154.025   6
  13   3   7 306.654 153.214  10
  13  -3  -7 45.6390 110.842  15
  13   3  -7 234.516 113.401  15
  13   3  -8 1600.39 295.083  11
 -13  -3  -8 2079.52 296.326   6
  13   3   8 1680.53 274.679  10
  13   3  -8 1568.92 257.190  15
  13   3  -9 820.478 227.131  11
 -13   3  -9 376.685 167.088   7
  13   3  -9 588.445 177.752  15
 -13   3 -10 12.9204 112.466   7
  13   3 -10 162.734 147.429  11
  13   3 -10-136.854 131.710  15
 -13   3 -11-1.64854 96.7775   7
 -13  -3 -11 104.144 142.430   7
  13   3 -11-34.3367 90.5987  15
 -13   3 -12 1247.70 220.906   7
 -13  -3 -12 1284.49 235.073   7
  13   3 -12 1357.40 249.117  11
 -13   3 -13 719.872 157.369   7
 -13  -3 -13 869.264 195.863   7
  13   3 -13 943.437 194.860  11
 -13   3 -14 83.7337 72.0520   7
 -13  -3 -14 98.6494 76.9816   7
  13   3 -14-15.1623 77.1393  11
  13   4   0-91.8752 113.723  10
  13  -4   0 35.3124 133.391  15
  13   4   1-55.7695 102.528  10
  13   4  -1-195.367 147.930  10
  13  -4  -1 242.825 143.509  15
  13   4  -1-12.8175 96.9705  15
  13   4   2 1162.39 256.515  10
  13   4  -2 1661.58 271.379  10
  13  -4  -2 1014.64 211.466  15
  13   4  -2 789.429 196.786  15
  13   4  -3 1920.33 294.171  11
 -13  -4  -3 1773.74 296.521   6
  13   4   3 2307.55 335.810  10
  13  -4  -3 2026.76 287.875  15
  13   4  -3 1712.86 252.580  15
  13   4  -4-97.1877 143.581  11
 -13  -4  -4 153.419 155.649   6
  13   4   4 170.762 110.212  10
  13  -4  -4 171.077 110.924  15
  13   4  -4 203.703 128.136  15
  13   4  -5 4232.73 431.442  11
 -13  -4  -5 4033.13 423.501   6
  13   4   5 4400.00 444.963  10
  13  -4  -5 4184.04 407.414  15
  13   4  -5 4149.55 394.397  15
  13   4  -6 1161.15 258.497  11
 -13  -4  -6 1115.36 242.846   6
  13   4   6 1380.22 279.545  10
  13  -4  -6 1386.68 256.950  15
  13   4  -6 1208.64 233.424  15
  13   4  -7-133.117 127.938  11
 -13  -4  -7-10.8554 114.266   6
  13   4   7-15.3075 127.776  10
  13   4  -7 118.321 104.239  15
  13   4  -8 1905.59 316.936  11
 -13  -4  -8 1489.91 256.125   6
  13   4   8 1795.27 296.185  10
  13   4  -8 1949.40 287.520  15
  13   4  -9 748.995 223.210  11
  13   4   9 961.719 218.846  10
  13   4  -9 871.056 176.374  15
  13   4 -10 2789.89 355.668  11
  13   4 -10 2270.94 289.016  15
 -13  -4 -11 53.4690 108.883   7
  13   4 -11 148.008 142.766  11
  13   4 -11 179.110 100.098  15
 -13  -4 -12 2238.56 295.465   7
  13   4 -12 2589.29 325.127  11
  13   4 -12 2484.65 273.852  15
 -13  -4 -13 697.751 171.110   7
  13   4 -13 710.887 166.827  11
 -13  -4 -14-121.738 78.9561   7
  13   4 -14-45.2896 70.4135  11
  13   5   0 75.1765 124.112  10
  13   5   1-219.909 156.880  10
  13   5  -1 176.789 157.318  10
  13   5  -1 242.391 127.086  15
  13   5   2 9564.95 634.531  10
  13   5  -2 8997.58 608.642  10
  13  -5  -2 8976.90 585.452  15
  13   5  -2 8131.58 531.441  15
  13   5  -3 595.198 191.682  11
 -13  -5  -3 583.502 173.720   6
  13   5   3 457.979 164.338  10
  13   5  -3 630.053 180.068  10
  13  -5  -3 579.135 167.036  15
  13   5  -3 592.243 169.046  15
  13   5  -4 112.898 123.312  11
 -13  -5  -4-37.6190 123.258   6
  13   5   4 284.453 162.779  10
  13  -5  -4 183.514 114.591  15
  13   5  -4 94.4691 97.4468  15
  13   5  -5-12.9041 138.617  11
 -13  -5  -5-123.583 144.694   6
  13   5   5 6.44923 121.493  10
  13  -5  -5 153.440 128.174  15
  13   5  -5 42.1365 107.286  15
  13   5  -6 271.302 155.221  11
 -13  -5  -6 470.772 174.775   6
  13   5  -6 341.760 137.548  15
  13   5  -7 324.092 157.526  11
 -13  -5  -7 50.1446 129.250   6
  13   5   7 190.628 104.099  10
 -13  -5  -7 66.1766 125.336  17
  13   5  -7 228.836 128.887  15
  13   5  -8 916.792 226.907  11
  13   5   8 906.063 224.376  10
  13   5  -8 1006.15 201.295  15
  13   5  -9 78.3459 125.271  11
  13   5   9-220.116 137.164  10
  13   5  -9-111.345 106.192  15
  13   5 -10 914.646 217.104  11
 -13  -5 -10 946.799 221.361   7
  13   5 -10 711.697 170.139  15
 -13  -5 -11 75.7005 100.636   7
  13   5 -11-68.4920 109.275  11
  13   5 -11 5.25163 81.8776  15
 -13  -5 -12 2479.30 305.118   7
  13   5 -12 2260.34 289.552  11
  13   5 -12 2392.76 255.076  15
 -13  -5 -13 87.7671 80.8329   7
  13   5 -13 20.5353 78.1530  11
  13   6   0 97.1508 105.116  10
  13   6   1 335.609 159.664  10
  13   6  -1 355.701 184.867  10
 -13  -6  -2 3652.32 409.818   6
  13   6   2 3640.63 407.297  10
  13   6  -2 3826.59 416.036  10
  13   6  -2 3192.60 335.065  15
 -13  -6  -3 95.7033 110.964   6
  13   6   3-73.0309 136.612  10
  13   6  -3-125.728 144.922  10
  13   6  -3 23.3750 98.4253  15
  13   6  -4 1133.39 259.385  11
 -13  -6  -4 1295.68 246.593   6
  13   6   4 1067.18 239.879  10
  13   6  -4 1316.39 249.446  10
  13   6  -4 1286.90 231.748  15
  13   6  -5 875.893 210.545  11
 -13  -6  -5 692.199 194.828   6
  13   6   5 664.468 187.127  10
  13   6  -5 828.774 203.959  10
  13   6  -6 320.075 167.088  11
 -13  -6  -6 114.799 117.925   6
  13   6   6 265.879 148.934  10
 -13  -6  -6 413.367 158.739  17
  13   6  -7 11.3004 113.600  11
 -13  -6  -7-104.303 138.584   6
  13   6   7 39.4758 129.498  10
 -13  -6  -7-228.710 161.258  17
  13   6  -8 343.111 138.391  11
  13   6   8 358.914 137.528  10
 -13  -6  -8 230.422 121.981  17
  13   6  -9 246.309 124.472  11
  13   6   9 226.055 96.3234  10
 -13  -6 -10 2605.06 326.704   7
  13   6 -10 2310.41 309.394  11
  13   6 -10 2081.72 262.219  15
 -13  -6 -11 203.938 101.020   7
  13   6 -11-8.67806 102.118  11
  13   6 -11 75.5430 89.8623  15
  13   6 -12 1398.99 213.554  11
  13   6 -12 1486.08 197.450  15
  13   6 -13-77.1798 97.0512  11
  13   7   0-28.3509 133.301  10
  13   7   1 122.436 150.811  10
  13   7  -1-222.466 151.692  10
  13   7   2 44.6386 118.973  10
  13   7  -2-122.213 128.252  10
  13   7   3-176.297 128.992  10
  13   7  -3 27.8095 104.378  10
  13   7  -3 105.104 87.4893  15
  13   7   4 771.836 215.292  10
  13   7  -4 697.417 196.767  10
  13   7  -5 2703.30 357.946  11
  13   7   5 2949.66 362.244  10
  13   7  -5 2710.78 345.841  10
  13   7  -6 2740.92 354.511  11
  13   7   6 2873.76 363.036  10
  13   7  -6 2642.47 339.864  10
 -13  -7  -6 2787.76 341.906  17
  13   7  -7 1195.68 239.391  11
  13   7   7 1392.06 250.914  10
  13   7  -7 1064.29 212.186  10
 -13  -7  -7 950.115 214.832  17
  13   7  -8 289.012 139.065  11
  13   7   8 334.215 139.345  10
 -13  -7  -8 403.250 151.981  17
  13   7  -9 907.704 217.414  11
  13   7   9 962.081 206.586  10
  13   7 -10 601.800 161.775  11
  13   7 -10 588.060 156.237  15
  13   7 -11 28.7010 116.650  11
  13   7 -11 209.849 101.199  15
  13   7 -12 306.721 112.572  11
  13   7 -12 328.871 114.471  15
  13   8   0 122.131 164.031  10
  13   8   1 370.691 192.757  10
  13   8  -1 381.444 167.578  10
  13   8   2 64.6433 140.179  10
  13   8  -2-82.1742 144.248  10
  13   8   3 2156.28 319.319  10
  13   8  -3 2033.49 311.105  10
  13   8  -3 1878.91 258.443  15
  13   8   4 314.228 162.937  10
  13   8  -4 408.489 151.962  10
  13   8   5 4472.56 436.850  10
  13   8  -5 4584.49 438.735  10
 -13  -8  -5 4644.51 436.136  17
  13   8  -6 859.118 210.617  11
  13   8   6 922.174 201.633  10
  13   8  -6 831.132 193.543  10
 -13  -8  -6 1043.86 229.012  17
  13   8  -7-26.1312 127.028  11
  13   8   7 124.819 90.7901  10
  13   8  -7-190.027 118.824  10
 -13  -8  -7-56.3147 97.5172  17
  13   8  -8-146.769 120.098  11
  13   8   8-33.1668 91.8045  10
  13   8  -8 28.0787 90.4684  10
 -13  -8  -8-57.4044 98.5594  17
  13   8  -9 726.712 165.086  11
  13   8   9 843.197 184.256  10
  13   8 -10-93.5409 118.483  11
  13   8 -11-321.911 136.012  11
  13   8 -11-39.2763 81.2939  15
  13   9   0 28.6897 119.223  10
  13   9   1-84.6916 120.386  10
  13   9  -1 513.428 224.381  10
  13   9   2 4645.86 440.045  10
  13   9  -2 4068.22 414.512  10
  13   9   3 1380.03 244.965  10
  13   9  -3 1670.68 273.394  10
  13   9   4 270.601 121.883  10
  13   9  -4 443.987 159.783  10
 -13  -9  -4 237.491 135.514  17
  13   9   5 1297.73 237.412  10
  13   9  -5 1198.63 232.720  10
 -13  -9  -5 1349.97 241.374  17
  13   9   6 1170.18 222.555  10
  13   9  -6 1009.49 203.335  10
 -13  -9  -6 876.877 199.300  17
  13   9   7 50.6641 98.3138  10
  13   9  -7-32.6163 116.987  10
 -13  -9  -7-5.46793 93.8272  17
  13   9   8 253.240 101.959  10
  13   9  -8 77.5084 98.2309  10
 -13  -9  -8 252.674 133.907  17
  13   9   9 324.541 101.157  10
  13   9  -9 250.002 104.721  10
  13   9 -10-360.492 138.087  11
  13   9 -10-109.618 87.3552  15
  13   9 -11-178.353 76.4945  15
  13  10   0 79.1837 104.649  10
  13  10   1 303.371 134.116  10
  13  10  -1 226.803 139.013  10
  13  10   2 2929.16 346.928  10
  13  10  -2 2787.64 357.394  10
  13  10   3 1388.61 256.406  10
  13  10  -3 1383.54 261.687  10
 -13 -10  -3 1494.36 254.311  17
  13  10   4 388.898 140.398  10
  13  10  -4 201.934 123.433  10
 -13 -10  -4 176.765 112.994  17
  13  10   5 305.359 137.063  10
  13  10  -5 447.567 146.165  10
 -13 -10  -5 433.878 146.103  17
  13  10   6-48.5682 114.694  10
  13  10  -6-171.289 120.410  10
 -13 -10  -6 44.7366 88.6713  17
  13  10   7-3.93278 76.9531  10
  13  10  -7-165.897 120.100  10
 -13 -10  -7-36.8152 98.6123  17
  13  10  -8 554.505 149.219  10
 -13 -10  -8 323.326 123.807  17
  13  10  -9 14.8362 75.1223  10
  13  10 -10 313.077 92.3280  15
  13  11   0-17.6914 100.207  10
  13  11   1 175.405 118.634  10
  13  11  -1 293.191 157.627  10
  13  11   2 2482.71 298.325  10
  13  11  -2 2593.28 318.221  10
 -13 -11  -2 2181.85 288.597  17
  13  11   3 213.515 111.876  10
  13  11  -3 406.286 138.963  10
 -13 -11  -3 111.006 98.4039  17
  13  11   4 43.3667 81.8545  10
  13  11  -4-4.84541 92.5027  10
 -13 -11  -4 134.167 109.617  17
  13  11   5 707.890 167.219  10
  13  11  -5 813.947 184.761  10
 -13 -11  -5 724.871 171.187  17
  13  11   6 114.216 94.9126  10
  13  11  -6-38.2583 87.6041  10
 -13 -11  -6 89.4796 86.0101  17
  13  11  -6 95.8930 88.3511  15
  13  11  -7 47.8913 89.8944  10
 -13 -11  -7 192.251 106.191  17
  13  11  -7 160.127 90.0424  15
  13  11  -8-91.2818 88.9565  10
 -13 -11  -8-113.315 88.6622  17
  13  11  -8-7.20930 71.3983  15
  13  12   0-159.920 107.582  10
  13  12   1 546.567 159.290  10
  13  12  -1 407.008 141.042  10
 -13 -12  -1 369.288 126.318  17
  13  12   2 819.537 176.705  10
  13  12  -2 708.930 170.119  10
 -13 -12  -2 836.583 171.113  17
  13  12   3 2.72024 92.4367  10
  13  12  -3 65.2683 78.1536  10
 -13 -12  -3-125.099 96.7720  17
  13  12   4 688.774 150.307  10
  13  12  -4 850.235 176.234  10
 -13 -12  -4 627.073 162.084  17
  13  12  -5 1084.64 199.183  10
 -13 -12  -5 1016.04 187.781  17
  13  12  -6 217.806 111.721  10
 -13 -12  -6-32.1015 92.5359  17
  13  13   0-22.1480 72.2797  10
  13  13   1 94.0959 85.7818  10
  13  13  -1 99.7415 76.4615  10
 -13 -13  -1 77.4876 77.8646  17
  13  13   2 151.789 80.5056  10
  13  13  -2 151.063 88.2315  10
 -13 -13  -2-29.4655 88.4729  17
  13  13  -3-30.9334 81.1108  10
 -13 -13  -3-77.7290 88.8898  17
  13  13  -4 419.398 128.087  10
  14   0   0-17.3519 119.797  15
  14   0   1-132.650 132.709  15
  14   0  -1 124.523 113.707  15
 -14   0  -2 2200.98 310.433   6
  14   0   2 2288.56 285.383  15
  14   0  -2 2417.77 309.259  15
 -14   0  -3 307.864 152.518   6
  14   0  -3 105.985 136.056  15
 -14   0  -4 1934.39 292.597   6
  14   0  -4 1827.00 285.877  15
 -14   0  -5 47.9266 115.163   6
  14   0   5 104.180 125.408  10
  14   0  -5 293.909 143.235  15
 -14   0  -6 8258.24 581.655   6
  14   0  -6 8412.27 575.924  15
 -14   0  -7-83.1166 144.667   6
  14   0  -7-10.1209 116.119  15
  14   0  -8 2711.43 323.778  15
  14   0  -9 40.8422 93.5580  15
 -14   0 -10 412.404 147.029   7
 -14   0 -11 40.1844 108.714   7
 -14   0 -12 26.6353 88.5016   7
 -14   0 -13 36.3249 69.9418   7
  14  -1   0 3561.03 368.822  15
  14   1   0 3903.02 382.765  15
  14  -1   1 2134.16 299.700  15
  14  -1  -1 1995.15 293.751  15
  14   1   1 1992.25 271.132  15
  14   1  -1 1651.23 259.342  15
 -14   1  -2 3618.71 390.343   6
  14  -1   2 3318.54 355.628  15
  14   1   2 3509.76 349.526  15
  14  -1  -2 3446.88 378.185  15
  14   1  -2 3471.59 369.471  15
 -14   1  -3 656.054 205.746   6
  14   1   3 512.000 177.944  10
 -14  -1  -3 721.869 200.956   6
  14  -1   3 680.479 155.423  15
  14  -1  -3 818.897 203.216  15
  14   1  -3 508.661 143.156  15
  14   1  -4 200.714 107.757  11
 -14   1  -4 386.700 152.305   6
 -14  -1  -4 661.942 188.878   6
  14   1   4 350.395 147.164  10
  14  -1  -4 759.474 204.282  15
  14   1  -4 370.006 117.208  15
  14   1  -5 1106.71 224.932  11
 -14   1  -5 1156.82 236.238   6
 -14  -1  -5 1615.60 283.321   6
  14   1   5 1282.45 268.197  10
  14  -1  -5 1173.58 242.229  15
  14   1  -5 1522.46 252.317  15
  14   1  -6 1479.80 251.651  11
 -14   1  -6 1475.07 249.843   6
 -14  -1  -6 1594.10 264.873   6
  14   1   6 1657.06 275.792  10
  14  -1  -6 1939.65 283.708  15
  14   1  -6 1409.60 257.525  15
  14   1  -7 1438.90 251.144  11
 -14   1  -7 1071.08 217.670   6
 -14  -1  -7 1529.47 258.965   6
  14  -1  -7 1313.05 238.728  15
  14   1  -7 1108.00 212.382  15
  14   1  -8 2721.80 341.563  11
  14  -1  -8 3260.79 356.284  15
  14   1  -8 3175.53 347.421  15
  14   1  -9 297.791 126.456  11
  14  -1  -9 274.292 132.466  15
  14   1  -9 378.622 177.953  15
  14   1 -10-48.3440 109.411  11
 -14   1 -10 120.056 95.8976   7
 -14  -1 -10 244.662 137.195   7
  14   1 -10 343.321 145.591  15
 -14   1 -11 288.400 147.634   7
 -14  -1 -11 75.2655 120.260   7
  14   1 -11 144.597 100.814  11
 -14   1 -12 378.744 134.885   7
 -14  -1 -12 353.173 133.636   7
  14   1 -12 332.962 118.630  11
 -14   1 -13-147.060 90.7543   7
 -14  -1 -13 31.2614 68.5783   7
  14   1 -13-82.5982 89.4778  11
  14  -2   0-300.843 171.391  15
  14   2   0-239.649 116.304  15
 -14   2  -1 5621.56 467.476   6
  14  -2   1 5372.69 444.015  15
  14  -2  -1 5450.26 460.692  15
  14   2   1 5095.50 414.392  15
  14   2  -1 5334.51 445.158  15
 -14   2  -2 379.975 162.908   6
  14   2   2 472.383 161.387  10
  14  -2   2 236.515 90.4956  15
  14  -2  -2 397.136 166.265  15
  14   2  -2 432.538 158.804  15
 -14   2  -3 5184.45 443.410   6
 -14  -2  -3 5275.57 476.162   6
  14   2   3 5355.67 481.689  10
  14  -2  -3 5445.44 472.526  15
  14   2  -3 5031.46 436.950  15
  14   2  -4-229.479 154.025  11
 -14   2  -4 161.478 129.338   6
 -14  -2  -4 188.480 158.326   6
  14   2   4 160.010 132.429  10
  14  -2  -4 7.01761 103.614  15
  14   2  -4 57.2085 107.412  15
  14   2  -5-75.4062 154.003  11
 -14   2  -5-175.981 135.531   6
 -14  -2  -5 75.6695 151.463   6
  14   2   5 51.8716 106.397  10
  14  -2  -5-37.7029 113.141  15
  14   2  -5 150.359 137.258  15
  14   2  -6 509.030 152.302  11
 -14   2  -6 1113.13 206.469   6
 -14  -2  -6 683.391 206.172   6
  14   2   6 644.794 194.373  10
  14  -2  -6 719.944 209.158  15
  14   2  -6 957.462 213.116  15
  14   2  -7 227.226 106.604  11
 -14  -2  -7 406.355 155.949   6
  14   2   7 582.727 177.392  10
  14  -2  -7 469.946 198.069  15
  14   2  -7 266.321 144.668  15
  14   2  -8 105.939 104.473  11
  14   2  -8-147.612 161.371  15
  14   2  -9 2955.46 363.213  11
  14   2  -9 2623.06 313.143  15
 -14   2 -10-37.6860 91.6123   7
  14   2 -10-48.0361 108.847  11
 -14  -2 -10 96.1042 112.263   7
  14   2 -10 103.471 99.8543  15
 -14   2 -11-13.0747 94.2734   7
 -14  -2 -11 266.496 131.362   7
  14   2 -11 349.247 137.117  11
  14   2 -11 63.8468 84.7650  15
 -14   2 -12 99.8730 88.0539   7
 -14  -2 -12-19.4150 77.2242   7
  14   2 -12 177.458 127.453  11
 -14   2 -13 1235.76 197.002   7
 -14  -2 -13 1582.31 224.745   7
  14   2 -13 1679.53 220.216  11
  14   3   0 165.384 137.462  10
  14  -3   0 44.9627 110.961  15
  14   3   0 116.606 106.567  15
  14   3   1 2462.39 333.388  10
  14  -3   1 1894.88 278.525  15
  14   3  -1 2036.75 285.783  15
  14  -3  -1 1972.62 289.854  15
  14   3   2-79.0092 139.338  10
  14  -3  -2 84.7771 123.991  15
  14   3  -2-44.1215 98.4947  15
  14   3   3 2676.29 348.507  10
 -14  -3  -3 2453.87 332.907   6
  14  -3  -3 2548.74 324.780  15
  14   3  -3 2592.29 332.041  15
  14   3  -4-174.050 179.153  11
 -14  -3  -4 408.509 172.361   6
  14   3   4 195.352 127.058  10
  14  -3  -4 258.357 131.845  15
  14   3  -4 176.147 108.462  15
  14   3  -5 476.627 158.574  11
 -14  -3  -5 754.210 225.148   6
  14   3   5 796.198 204.850  10
  14  -3  -5 789.051 194.036  15
  14   3  -5 687.399 190.655  15
  14   3  -6 402.916 149.162  11
 -14  -3  -6 704.574 199.163   6
  14   3   6 513.756 198.809  10
  14  -3  -6 522.776 166.298  15
  14   3  -6 193.137 104.329  15
  14   3  -7 2386.67 323.018  11
 -14  -3  -7 2416.84 319.242   6
  14   3   7 2404.20 320.657  10
  14  -3  -7 2681.71 302.014  15
  14   3  -7 2859.04 329.361  15
  14   3  -8 851.394 218.623  11
  14   3   8 906.845 220.956  10
  14   3  -8 812.505 191.559  15
  14   3  -9 1929.14 288.774  11
 -14   3  -9 1654.58 264.109   7
  14   3  -9 1751.20 252.648  15
 -14   3 -10 838.003 196.109   7
  14   3 -10 770.699 221.549  11
 -14  -3 -10 560.234 174.761   7
  14   3 -10 560.418 161.153  15
 -14   3 -11 25.1661 82.4558   7
 -14  -3 -11 53.4213 117.025   7
  14   3 -11 162.926 128.015  11
  14   3 -11 202.829 104.898  15
 -14   3 -12 19.6665 73.7852   7
 -14  -3 -12 203.253 112.836   7
  14   3 -12-16.0925 101.582  11
 -14  -3 -13 179.216 93.6049   7
  14   3 -13-139.197 100.424  11
  14   4   0 3.23464 120.919  10
  14   4   1 2214.86 322.489  10
  14   4  -1 2049.37 300.298  10
  14  -4  -1 1908.81 276.239  15
  14   4  -1 1702.43 262.611  15
 -14  -4  -2 295.361 160.092   6
  14   4   2 569.224 178.530  10
  14  -4  -2 237.268 144.598  15
  14   4  -2 367.866 154.215  15
 -14  -4  -3 1515.77 273.896   6
  14   4   3 1507.81 273.318  10
  14  -4  -3 1093.67 217.870  15
  14   4  -3 1289.69 226.085  15
 -14  -4  -4 699.074 199.176   6
  14   4   4 823.229 211.268  10
  14  -4  -4 468.321 166.421  15
  14   4  -4 506.266 163.055  15
  14   4  -5-5.57476 138.603  11
 -14  -4  -5 182.404 117.258   6
  14   4   5 163.176 124.951  10
  14  -4  -5 37.6178 102.380  15
  14   4  -5 195.930 147.761  15
  14   4  -6 2370.37 331.658  11
 -14  -4  -6 2841.77 348.017   6
  14   4   6 2587.58 346.671  10
  14  -4  -6 2891.04 325.966  15
  14   4  -6 2913.56 336.641  15
  14   4  -7-111.457 140.108  11
 -14  -4  -7-26.3781 128.123   6
  14   4   7 97.2145 121.275  10
  14   4  -7 155.613 132.618  15
  14   4  -8 193.455 147.772  11
  14   4   8-23.9905 126.629  10
  14   4  -8-71.1874 107.345  15
  14   4  -9 640.029 183.388  11
  14   4  -9 909.024 189.286  15
  14   4 -10 766.872 202.367  11
 -14  -4 -10 826.779 192.446   7
  14   4 -10 1262.45 220.673  15
 -14  -4 -11-80.2027 90.4405   7
  14   4 -11-43.1528 94.1786  11
  14   4 -11-22.5177 91.7667  15
 -14  -4 -12 42.3491 94.7642   7
  14   4 -12-37.7731 85.9881  11
  14   4 -12 105.723 79.0612  15
  14   4 -13 645.370 137.040  11
  14   5   0 724.881 191.287  10
  14   5   1 1476.57 277.902  10
  14   5  -1 1224.50 243.339  10
  14   5  -1 934.654 205.190  15
 -14  -5  -2 2626.22 346.283   6
  14   5   2 2220.93 322.585  10
  14   5  -2 2112.27 314.987  10
  14   5  -2 2252.92 286.541  15
 -14  -5  -3-97.9318 124.554   6
  14   5   3-98.0770 121.093  10
  14   5  -3 9.40473 110.880  10
  14   5  -3-194.216 126.452  15
 -14  -5  -4 28.8452 130.989   6
  14   5   4 30.7773 118.255  10
  14   5  -4-57.6340 100.638  15
  14   5  -5 733.417 177.085  11
 -14  -5  -5 625.999 190.025   6
  14   5   5 1027.89 221.886  10
  14   5  -5 447.776 147.548  15
  14   5  -6 78.4026 130.659  11
 -14  -5  -6-106.153 142.369   6
  14   5   6 268.001 137.842  10
  14   5  -6-10.1792 103.939  15
  14   5  -7 155.605 107.183  11
 -14  -5  -7-132.870 138.956   6
  14   5   7-124.316 158.073  10
  14   5  -7 92.3513 97.2072  15
  14   5  -8 3134.13 362.683  11
  14   5   8 3073.80 354.431  10
  14   5  -8 2712.86 317.092  15
  14   5  -9-69.0675 134.606  11
  14   5  -9 13.3552 89.7914  15
  14   5 -10 867.897 198.082  11
 -14  -5 -10 1134.56 218.315   7
  14   5 -10 994.405 183.246  15
 -14  -5 -11 163.302 109.189   7
  14   5 -11 66.8677 87.4677  11
  14   5 -11 235.805 107.303  15
 -14  -5 -12 369.558 114.657   7
  14   5 -12 707.297 159.950  11
  14   5 -12 735.523 141.210  15
  14   6   0 705.358 190.639  10
 -14  -6  -1 1806.26 284.223   6
  14   6   1 1748.66 305.578  10
  14   6  -1 1852.30 293.758  10
 -14  -6  -2 914.363 223.145   6
  14   6   2 1013.15 220.076  10
  14   6  -2 939.125 213.551  10
  14   6  -2 781.190 177.187  15
 -14  -6  -3 1551.88 261.745   6
  14   6   3 1538.89 284.317  10
  14   6  -3 1451.71 245.179  10
  14   6  -3 1805.36 254.840  15
 -14  -6  -4 798.293 203.865   6
  14   6   4 647.759 211.322  10
  14   6  -4 670.939 182.383  10
  14   6  -4 395.699 141.168  15
 -14  -6  -5-30.0139 109.780   6
  14   6   5 53.2288 119.662  10
  14   6  -5-69.8525 89.1380  15
  14   6  -6 2504.46 339.779  11
 -14  -6  -6 3206.24 344.824   6
  14   6   6 3250.78 370.090  10
  14   6  -6 2694.57 313.930  15
  14   6  -7 121.867 111.986  11
  14   6   7 192.462 131.994  10
  14   6  -7 151.651 101.018  15
  14   6  -8 1191.44 228.808  11
  14   6   8 794.680 193.250  10
  14   6  -8 1045.35 214.900  15
  14   6  -9 81.5333 119.468  11
 -14  -6  -9 420.404 144.719   7
  14   6  -9 251.380 111.367  15
 -14  -6 -10 86.4712 78.3106   7
  14   6 -10-32.5763 100.744  11
 -14  -6 -11-4.62588 81.2566   7
  14   6 -11-103.843 110.462  11
  14   6 -11 126.203 83.8043  15
  14   6 -12-178.764 112.278  11
  14   7   0 140.663 101.369  10
 -14  -7  -1 126.880 107.418   6
  14   7   1 43.2009 122.750  10
  14   7  -1 46.9681 116.326  10
 -14  -7  -2 393.672 167.778   6
  14   7   2 637.458 191.763  10
  14   7  -2 680.238 183.811  10
 -14  -7  -3 1182.14 226.289   6
  14   7   3 1116.56 229.287  10
  14   7  -3 1401.42 261.593  10
  14   7  -3 1219.69 210.424  15
 -14  -7  -4 697.119 185.618   6
  14   7   4 673.496 223.656  10
  14   7  -4 747.876 203.927  10
  14   7  -4 641.777 164.197  15
  14   7   5 1022.55 217.520  10
  14   7  -5 1059.21 206.556  10
  14   7  -5 846.663 180.227  15
  14   7   6 306.630 127.933  10
  14   7  -6 423.675 150.866  10
  14   7  -6 431.526 145.544  15
  14   7   7 950.788 191.553  10
  14   7  -7 1161.07 217.778  15
  14   7  -8 1452.75 235.389  11
  14   7   8 1408.05 229.591  10
  14   7  -8 1558.21 227.508  15
  14   7  -9-54.7086 129.747  11
  14   7  -9 46.9868 78.8895  15
  14   7 -10 484.645 124.740  11
  14   7 -10 661.348 144.677  15
  14   7 -11 67.3535 66.8854  11
  14   7 -11 231.871 92.1995  15
  14   8   0 345.491 149.435  10
  14   8  -1 2854.08 347.880  10
  14   8   1 2358.94 316.279  10
  14   8   2-182.919 146.898  10
  14   8  -2 294.246 153.996  10
  14   8   3 908.822 208.924  10
  14   8  -3 1158.76 231.603  10
  14   8   4 294.726 153.279  10
  14   8  -4 485.593 174.873  10
  14   8  -4 320.770 125.154  15
  14   8   5 16.4821 91.6124  10
  14   8  -5 15.4943 103.959  10
  14   8  -5 161.555 107.662  15
  14   8  -6-15.7004 85.8275  10
 -14  -8  -6 156.024 117.664  17
  14   8  -6 172.146 113.552  15
  14   8   7-155.235 118.643  10
  14   8  -7-5.01287 84.5669  10
 -14  -8  -7 1.33238 85.0892  17
  14   8  -7 177.849 112.647  15
  14   8   8-21.4344 78.8162  10
  14   8  -8-141.247 94.3571  15
  14   8  -9 1214.45 186.458  15
  14   8 -10 185.336 93.2329  15
  14   9   0 411.180 156.668  10
  14   9   1 2226.79 310.382  10
  14   9  -1 2676.35 329.787  10
  14   9   2-75.9965 103.832  10
  14   9  -2-117.306 117.542  10
  14   9   3 380.750 142.758  10
  14   9  -3 619.502 187.683  10
  14   9   4 815.255 191.977  10
  14   9  -4 1125.50 220.864  10
  14   9  -4 866.740 166.677  15
  14   9   5 599.395 157.090  10
  14   9  -5 642.006 153.316  10
  14   9  -5 642.700 145.532  15
  14   9   6 3.94117 93.2534  10
  14   9  -6-33.7981 87.6472  10
 -14  -9  -6-49.8080 96.6623  17
  14   9  -6 167.810 99.2436  15
  14   9   7 435.983 142.831  10
  14   9  -7 655.946 159.042  10
 -14  -9  -7 437.821 134.418  17
  14   9  -7 557.856 132.403  15
  14   9   8-90.4616 91.4175  10
  14   9  -8-37.4812 70.3286  10
  14   9  -8 98.4274 86.3862  15
  14   9  -9 432.390 115.588  15
  14  10   0-62.6151 97.3596  10
  14  10   1-136.319 121.880  10
  14  10  -1 65.9872 118.738  10
  14  10   2 901.473 205.330  10
  14  10  -2 611.397 164.182  10
  14  10   3-2.75977 91.2005  10
  14  10  -3 272.638 131.968  10
  14  10   4 672.503 168.316  10
  14  10  -4 818.076 191.789  10
  14  10   5 5.12718 87.3675  10
  14  10  -5 175.211 113.575  10
 -14 -10  -5 190.994 110.651  17
  14  10  -5 185.892 92.4665  15
  14  10   6 1291.40 204.594  10
  14  10  -6 1482.47 230.020  10
 -14 -10  -6 1197.69 205.201  17
  14  10  -6 1283.08 183.794  15
  14  10   7-69.3561 81.4439  10
  14  10  -7 134.576 94.4736  10
 -14 -10  -7 72.4139 70.8520  17
  14  10  -7 128.015 81.9155  15
  14  11   0 1596.20 241.326  10
  14  11   1 402.966 136.026  10
  14  11  -1 556.920 156.018  10
  14  11   2 537.425 144.023  10
  14  11  -2 1015.11 197.129  10
  14  11   3 490.204 137.492  10
  14  11  -3 541.822 146.282  10
  14  11   4 170.836 101.558  10
 -14 -11  -4 148.569 93.0861  17
  14  11   5 146.103 104.939  10
  14  11  -5 304.419 124.022  10
  14  11  -6 625.408 146.416  10
  14  12   0 6.39026 83.5001  10
  14  12   1 516.102 131.446  10
  14  12  -1 417.605 122.342  10
  14  12   2 12.8757 74.4740  10
  14  12  -2 32.2423 76.3479  10
  14  12  -3 430.384 118.629  10
  15   0   0 51.4862 101.416  15
 -15   0  -1-14.1864 112.441   6
  15   0   1 88.1089 107.989  15
  15   0  -1 115.394 114.529  15
 -15   0  -2 866.673 217.978   6
  15   0   2 1092.13 218.568  15
  15   0  -2 1112.32 225.201  15
 -15   0  -3-112.234 118.007   6
  15   0  -3 34.4136 111.344  15
 -15   0  -4 19868.3 881.675   6
  15   0  -4 19666.4 853.496  15
 -15   0  -5 2.64000 129.267   6
  15   0  -5-5.31126 100.702  15
 -15   0  -6 5224.73 448.646   6
  15   0  -6 5827.99 461.569  15
 -15   0  -7 65.6538 126.631   6
  15   0  -7 151.548 132.200  15
  15   0  -8 4384.77 393.500  15
  15   0  -9-166.109 99.2636  15
 -15   0 -10 1666.60 249.267   7
 -15   0 -11 105.911 85.7871   7
 -15   0 -12 13.4541 76.7426   7
  15  -1   0-138.742 144.071  15
  15   1   0-18.6934 100.759  15
 -15   1  -1 178.077 139.956   6
  15  -1   1-53.5074 102.543  15
  15  -1  -1 94.0447 110.198  15
  15   1   1 68.0189 89.7170  15
  15   1  -1 270.448 133.077  15
 -15   1  -2 704.200 208.626   6
 -15  -1  -2 387.636 169.719   6
  15  -1   2 579.190 160.898  15
  15  -1  -2 411.751 162.511  15
  15   1  -2 487.490 168.078  15
 -15   1  -3 163.191 145.175   6
 -15  -1  -3 216.077 140.907   6
  15  -1  -3 163.727 133.915  15
  15   1  -3-16.1959 101.271  15
 -15   1  -4 417.761 164.715   6
 -15  -1  -4 447.994 184.469   6
  15   1   4 506.241 172.266  10
  15  -1  -4 331.859 165.130  15
  15   1  -4 338.634 143.554  15
 -15   1  -5 224.907 127.664   6
 -15  -1  -5 232.154 109.732   6
  15   1   5 450.632 149.658  10
  15  -1  -5 170.131 118.284  15
  15   1  -5 110.876 102.451  15
 -15   1  -6 175.032 121.183   6
 -15  -1  -6 100.766 121.034   6
  15  -1  -6-61.0317 105.610  15
  15   1  -6-10.7081 94.9322  15
  15   1  -7 281.104 140.924  11
 -15  -1  -7 279.819 107.934   6
  15  -1  -7 533.795 183.008  15
  15   1  -7 545.804 167.268  15
  15   1  -8 32.1752 91.5199  11
  15  -1  -8 53.5787 107.463  15
  15   1  -8 165.137 112.943  15
  15   1  -9-40.5175 117.042  11
 -15   1  -9-114.974 116.969   7
  15  -1  -9 103.768 85.4029  15
  15   1  -9-10.8331 81.4420  15
  15   1 -10-15.1612 99.1023  11
 -15   1 -10 70.0566 97.4167   7
 -15  -1 -10 171.551 110.460   7
  15   1 -10 21.7240 76.5357  15
 -15   1 -11 320.652 130.072   7
 -15  -1 -11 304.882 114.654   7
  15   1 -11 190.059 102.962  11
 -15   1 -12 224.245 98.7011   7
 -15  -1 -12 210.349 105.561   7
 -15   2   0 214.056 137.984   6
  15  -2   0 89.3820 128.896  15
  15   2   0 248.400 113.780  15
 -15   2  -1 3444.25 367.299   6
  15  -2   1 3414.45 361.456  15
  15  -2  -1 3386.90 373.339  15
  15   2   1 3059.03 320.588  15
  15   2  -1 3477.81 362.301  15
 -15   2  -2 100.591 102.632   6
 -15  -2  -2 47.0116 123.347   6
  15  -2  -2-194.982 154.588  15
  15   2  -2 212.906 124.904  15
 -15   2  -3 6116.41 476.410   6
 -15  -2  -3 6202.97 513.874   6
  15   2   3 6136.31 493.975  10
  15  -2  -3 5702.63 475.432  15
  15   2  -3 5642.47 457.391  15
 -15   2  -4 1541.31 258.549   6
 -15  -2  -4 1607.24 254.672   6
  15   2   4 1649.54 269.651  10
  15  -2  -4 1722.71 271.098  15
  15   2  -4 1871.68 284.001  15
 -15   2  -5 360.261 135.372   6
 -15  -2  -5 268.699 136.504   6
  15   2   5 221.743 125.615  10
  15  -2  -5 390.565 141.563  15
  15   2  -5 501.962 147.607  15
 -15   2  -6 573.201 152.258   6
 -15  -2  -6 443.506 151.916   6
  15   2   6 713.255 191.054  10
  15  -2  -6 573.384 175.604  15
  15   2  -6 360.212 151.713  15
  15   2  -7 1289.07 230.336  11
 -15  -2  -7 1626.68 263.107   6
  15  -2  -7 1703.76 250.994  15
  15   2  -7 1426.97 240.748  15
  15   2  -8 82.4370 94.4020  11
  15  -2  -8 127.036 105.381  15
  15   2  -8 128.026 102.375  15
  15   2  -9 113.605 95.0823  11
 -15   2  -9-87.9911 107.415   7
  15   2  -9-37.0781 86.4086  15
 -15   2 -10 190.679 93.9293   7
  15   2 -10 162.354 117.568  11
 -15  -2 -10 86.0609 99.7603   7
  15   2 -10 114.550 95.8838  15
 -15   2 -11 3388.02 322.404   7
 -15  -2 -11 3891.49 368.032   7
  15   2 -11 4117.35 347.215  11
  15   2 -11 4329.77 320.772  15
 -15  -2 -12 19.2277 73.8918   7
  15   3   0-119.390 89.0139  15
  15  -3  -1 30.5555 116.506  15
  15   3  -1 31.3530 90.0918  15
  15   3   2 340.141 152.921  10
 -15  -3  -2 321.260 180.296   6
  15  -3  -2-171.157 161.616  15
  15   3  -2 104.911 104.940  15
 -15  -3  -3 1361.07 265.367   6
  15   3   3 829.870 212.176  10
  15  -3  -3 1068.72 221.225  15
  15   3  -3 1018.06 205.661  15
 -15  -3  -4 122.637 148.899   6
  15   3   4 333.055 131.202  10
  15  -3  -4-103.809 138.375  15
  15   3  -4 105.301 128.575  15
 -15  -3  -5 428.696 160.768   6
  15   3   5 205.741 104.820  10
  15  -3  -5 610.428 180.034  15
  15   3  -5 621.543 169.270  15
 -15  -3  -6-122.910 135.443   6
  15   3   6-38.2799 125.444  10
  15  -3  -6 27.9027 97.8853  15
  15   3  -6-52.5630 96.9773  15
  15   3  -7-119.174 136.095  11
 -15  -3  -7-140.675 131.016   6
  15   3   7-122.697 116.604  10
  15   3  -7 147.692 106.906  15
  15   3  -8-98.8623 128.002  11
  15   3  -8-138.981 118.316  15
  15   3  -9 166.150 91.2678  11
  15   3  -9 399.373 123.916  15
  15   3 -10-20.7392 108.242  11
 -15  -3 -10-176.320 112.199   7
  15   3 -10-393.968 129.537  15
 -15  -3 -11-106.428 81.5002   7
  15   3 -11-72.4121 84.7147  11
  15   3 -11 150.743 82.3004  15
  15   4   0-37.7117 109.995  10
  15   4   1 1618.92 266.700  10
 -15  -4  -1 1870.07 291.605   6
  15   4  -1 1752.37 248.154  15
 -15  -4  -2 3675.44 400.214   6
  15   4   2 4021.80 413.158  10
  15   4  -2 3352.72 352.326  15
 -15  -4  -3 3579.23 392.684   6
  15   4   3 3392.33 394.026  10
  15   4  -3 3458.77 354.954  15
 -15  -4  -4 5161.82 453.133   6
  15   4   4 4720.24 450.971  10
  15  -4  -4 5229.97 446.980  15
  15   4  -4 4670.36 411.127  15
 -15  -4  -5 67.0927 121.069   6
  15   4   5 102.296 127.493  10
  15  -4  -5 121.581 121.197  15
  15   4  -5 50.9242 93.2323  15
 -15  -4  -6 1692.71 265.889   6
  15   4   6 1649.69 276.827  10
  15  -4  -6 1982.90 273.314  15
  15   4  -6 1687.05 272.180  15
 -15  -4  -7-134.969 132.877   6
  15   4   7 80.8472 103.747  10
  15   4  -7-0.85735 91.2702  15
  15   4  -8 1079.40 217.116  11
  15   4  -8 1381.55 219.015  15
  15   4  -9-338.910 172.581  11
  15   4  -9 106.214 89.7355  15
  15   4 -10 272.227 124.881  11
 -15  -4 -10 460.759 149.840   7
  15   4 -10 668.396 151.489  15
 -15  -4 -11 1707.99 230.353   7
  15   4 -11 1667.02 230.518  11
  15   4 -11 1871.11 215.838  15
  15   5   0 69.0352 100.692  10
 -15  -5  -1 316.374 157.552   6
  15   5   1 145.432 99.3644  10
  15   5  -1 88.0100 126.677  10
 -15  -5  -2 699.690 201.444   6
  15   5   2 904.172 217.141  10
  15   5  -2 885.272 204.036  10
  15   5  -2 784.539 183.263  15
 -15  -5  -3 139.090 144.265   6
  15   5   3 76.5164 111.052  10
  15   5  -3-104.642 109.119  15
 -15  -5  -4 890.491 215.300   6
  15   5   4 757.297 198.420  10
  15   5  -4 744.954 176.285  15
 -15  -5  -5 599.670 171.894   6
  15   5   5 787.152 190.328  10
  15   5  -5 566.365 154.355  15
 -15  -5  -6-142.670 125.906   6
  15   5   6 32.9657 110.452  10
  15   5  -6 42.2093 84.5080  15
  15   5   7 5.02332 103.837  10
  15   5  -7 65.4053 101.039  15
  15   5  -8 10.4911 84.0966  15
 -15  -5  -9 162.114 117.440   7
  15   5  -9 55.6713 71.8568  15
  15   5 -10-90.5997 107.517  11
 -15  -5 -10 82.8454 94.5388   7
  15   5 -10 166.642 83.6861  15
  15   5 -11-273.982 118.128  11
 -15  -6   0 594.517 192.063   6
  15   6   0-17.7509 102.458  10
 -15  -6  -1 356.796 137.077   6
  15   6   1 534.369 173.751  10
  15   6  -1 607.105 193.068  10
 -15  -6  -2 412.950 148.372   6
  15   6   2 638.778 174.923  10
  15   6  -2 549.330 171.373  10
  15   6  -2 330.946 122.897  15
 -15  -6  -3 609.349 167.687   6
  15   6   3 510.920 169.998  10
  15   6  -3 528.313 164.037  10
  15   6  -3 607.091 160.198  15
 -15  -6  -4 5378.62 436.659   6
  15   6   4 5067.11 451.296  10
  15   6  -4 4196.56 374.837  15
 -15  -6  -5 254.789 132.860   6
  15   6   5 534.156 159.715  10
  15   6  -5 350.559 136.400  15
 -15  -6  -6 1515.18 234.926   6
  15   6   6 2036.68 277.131  10
  15   6  -6 1680.61 235.654  15
  15   6   7 116.605 101.093  10
  15   6  -7 75.6256 82.3114  15
  15   6  -8 1113.73 196.432  15
 -15  -6  -9 9.69171 67.4957   7
  15   6  -9 94.4734 92.7435  15
  15   6 -10 859.907 149.109  15
 -15  -7   0 233.489 138.040   6
  15   7   0 92.4988 96.1117  10
 -15  -7  -1 101.070 132.214   6
  15   7   1-50.4422 115.971  10
  15   7  -1-33.5360 93.5891  10
 -15  -7  -2 751.850 185.217   6
  15   7   2 689.451 177.815  10
  15   7  -2 1005.72 212.244  10
 -15  -7  -3 242.952 117.887   6
  15   7   3-21.8265 115.825  10
  15   7  -3 170.997 120.346  10
  15   7  -3 206.336 86.8971  15
 -15  -7  -4 316.228 148.658   6
  15   7   4 268.812 134.244  10
  15   7  -4 407.346 138.448  10
  15   7  -4 264.569 108.655  15
 -15  -7  -5-332.373 161.272   6
  15   7   5-154.037 123.062  10
  15   7  -5-5.47770 89.5830  15
  15   7   6-13.2687 83.1371  10
  15   7  -6 82.1074 77.0841  15
  15   7   7 52.2145 76.0941  10
  15   7  -7 35.7224 74.3989  15
  15   7  -8-30.3771 68.8150  15
  15   7  -9 107.934 88.3751  15
  15   8   0 139.499 115.149  10
  15   8   1 1856.24 267.450  10
  15   8  -1 1667.87 257.395  10
  15   8   2 680.117 192.274  10
  15   8  -2 297.049 131.663  10
  15   8   3 2684.73 323.344  10
  15   8  -3 2696.93 310.115  10
  15   8   4 41.7615 86.2393  10
  15   8  -4 189.902 111.870  10
  15   8  -4 62.6412 92.6247  15
  15   8   5-2.76529 101.373  10
  15   8  -5 246.199 125.674  10
  15   8  -5 67.1023 70.8222  15
  15   8   6-66.2715 79.3245  10
  15   8  -6-42.5857 71.7337  10
  15   8  -6 76.4218 74.9886  15
  15   8   7 302.241 111.611  10
  15   8  -7 509.014 129.157  15
  15   8  -8 206.673 85.6506  15
  15   9   0-1.31076 80.4775  10
  15   9   1-10.3504 91.1830  10
  15   9  -1-108.572 113.801  10
  15   9   2 25.5883 90.0816  10
  15   9  -2-106.012 102.696  10
  15   9   3 243.050 131.980  10
  15   9  -3 180.097 101.705  10
  15   9   4 26.2017 77.9313  10
  15   9  -4 120.172 98.2631  10
  15   9   5 3.44005 80.7170  10
  15   9  -5 159.304 109.259  10
  15   9  -5 170.215 95.2375  15
  15   9   6-0.44515 70.7303  10
  15   9  -6 173.556 104.999  10
  15   9  -6-31.8939 64.8178  15
  15  10   0 45.2045 73.1570  10
  15  10   1 214.723 108.734  10
  15  10  -1 226.531 102.330  10
  15  10   2 61.7417 87.3452  10
  15  10  -2 179.928 97.1162  10
  15  10   3 418.075 126.236  10
  15  10  -3 400.902 128.289  10
  15  10   4 2388.91 262.768  10
  15  10  -4 2779.60 284.626  10
  15  10   5 471.697 130.777  10
  15  11   0 79.4355 75.7215  10
  15  11   1 163.441 95.0662  10
  15  11  -1-2.02949 63.6627  10
  15  11  -2 211.865 87.2075  10
 -16   0   0 1705.56 271.169   6
  16   0   0 1724.50 262.654  15
 -16   0  -1-12.7746 117.067   6
  16   0   1 35.6904 100.848  15
  16   0  -1-208.592 117.122  15
 -16   0  -2-3.48186 114.344   6
  16   0  -2 111.759 91.1292  15
 -16   0  -3-76.4110 108.799   6
  16   0  -3-15.2043 109.856  15
 -16   0  -4 1739.90 268.606   6
  16   0  -4 1533.17 251.321  15
 -16   0  -5-168.944 149.948   6
  16   0  -5-92.2718 105.970  15
 -16   0  -6 1848.66 259.268   6
  16   0  -6 1950.69 259.254  15
  16   0  -7 171.377 87.3400  15
  16   0  -8 162.337 99.0769  15
 -16   0  -9-67.3947 76.6700   7
  16   0  -9-159.951 81.2827  15
 -16   0 -10 1498.26 219.053   7
 -16   1   0 2787.77 325.967   6
 -16  -1   0 2279.06 315.204   6
  16  -1   0 2441.61 303.965  15
  16   1   0 2356.69 282.927  15
 -16   1  -1 218.522 125.389   6
 -16  -1  -1 37.1039 106.687   6
  16  -1  -1-7.03335 114.463  15
  16   1   1 205.942 126.831  15
  16   1  -1 68.5135 89.9715  15
 -16   1  -2 782.905 172.815   6
 -16  -1  -2 1310.84 237.950   6
  16  -1  -2 733.312 176.547  15
  16   1  -2 872.016 188.578  15
 -16   1  -3 1149.86 216.236   6
 -16  -1  -3 1139.17 229.670   6
  16  -1  -3 1039.37 228.770  15
  16   1  -3 1063.65 203.784  15
 -16   1  -4 183.826 124.086   6
 -16  -1  -4 308.725 154.433   6
  16  -1  -4 262.631 133.529  15
  16   1  -4 373.115 135.689  15
 -16   1  -5-77.7341 130.214   6
 -16  -1  -5-78.7592 110.318   6
  16  -1  -5-57.0926 111.793  15
  16   1  -5 144.066 100.058  15
 -16  -1  -6 442.627 151.110   6
  16  -1  -6 610.534 166.700  15
  16   1  -6 415.945 139.338  15
  16  -1  -7 1289.65 222.735  15
  16   1  -7 994.497 196.113  15
  16  -1  -8 261.713 116.451  15
  16   1  -8 357.344 104.541  15
 -16   1  -9 126.426 118.735   7
 -16  -1  -9 208.604 98.7696   7
  16  -1  -9-72.6574 101.431  15
  16   1  -9 314.399 115.994  15
 -16   1 -10 324.666 127.507   7
 -16  -1 -10 484.482 133.711   7
 -16  -2   0 811.459 193.039   6
  16   2   0 687.856 176.160  15
 -16  -2  -1 702.894 193.070   6
  16  -2  -1 736.463 167.210  15
  16   2   1 603.492 156.266  15
  16   2  -1 645.850 168.409  15
 -16   2  -2-87.3060 110.139   6
 -16  -2  -2 45.6677 109.627   6
  16  -2  -2-29.6836 98.5542  15
  16   2  -2 10.8213 98.5088  15
 -16   2  -3 4462.79 397.885   6
 -16  -2  -3 4456.40 424.041   6
  16  -2  -3 4427.11 399.779  15
  16   2  -3 3856.41 368.068  15
 -16   2  -4 387.162 163.301   6
 -16  -2  -4 568.197 160.366   6
  16   2   4 558.768 157.487  10
  16  -2  -4 632.814 163.651  15
  16   2  -4 520.282 147.022  15
 -16   2  -5 209.173 101.441   6
 -16  -2  -5 214.868 125.232   6
  16   2   5 169.792 120.264  10
  16  -2  -5 360.562 149.127  15
  16   2  -5 433.921 157.508  15
 -16  -2  -6 111.113 119.536   6
  16  -2  -6-52.8612 85.4056  15
  16   2  -6-144.422 125.248  15
  16  -2  -7 2058.26 266.481  15
  16   2  -7 2141.71 268.958  15
 -16   2  -8-101.042 95.6219   7
  16  -2  -8 54.8532 91.1167  15
  16   2  -8 72.4702 89.5817  15
 -16   2  -9-108.679 95.1775   7
 -16  -2  -9 25.9795 78.9761   7
  16   2  -9 110.082 79.1756  15
 -16  -2 -10 194.949 99.6467   7
 -16  -3   0 93.6605 157.361   6
  16   3   0-23.8872 83.7355  15
 -16  -3  -1 943.733 202.811   6
  16   3  -1 780.699 167.748  15
 -16  -3  -2 205.102 149.010   6
  16   3   2 62.6174 92.9699  10
  16   3  -2 30.6790 81.1425  15
  16   3   3 2193.52 292.885  10
 -16  -3  -3 2185.05 307.185   6
  16   3  -3 2190.36 273.850  15
 -16  -3  -4 88.4964 117.047   6
  16   3   4-23.2470 107.003  10
  16  -3  -4-99.3279 101.373  15
  16   3  -4 8.29014 82.3857  15
 -16  -3  -5 866.003 207.764   6
  16   3   5 525.519 177.297  10
  16  -3  -5 579.908 156.231  15
  16   3  -5 978.858 190.990  15
 -16  -3  -6-56.1670 115.173   6
  16  -3  -6 1.31123 83.1538  15
  16   3  -6 121.995 84.3380  15
  16   3  -7 1864.66 249.493  15
  16   3  -8 65.6795 69.3408  15
 -16  -3  -9 334.337 120.911   7
  16   3  -9 189.558 94.0000  15
 -16  -3 -10 74.0285 69.5592   7
 -16  -4   0 2352.79 316.019   6
 -16  -4  -1 385.749 157.558   6
  16   4   1 133.614 111.913  10
  16   4  -1 182.118 108.651  15
 -16  -4  -2 143.738 114.189   6
  16   4   2-49.6215 123.766  10
  16   4  -2-1.48922 93.4238  15
 -16  -4  -3 1114.48 237.332   6
  16   4   3 898.727 192.504  10
  16   4  -3 761.353 182.245  15
 -16  -4  -4 2210.62 292.163   6
  16   4   4 2158.68 289.532  10
  16   4  -4 2037.87 262.798  15
 -16  -4  -5-24.7245 98.9216   6
  16   4   5-56.3258 109.057  10
  16   4  -5-6.13187 78.0968  15
 -16  -4  -6 341.463 127.842   6
  16   4   6 274.719 127.577  10
  16   4  -6 297.097 118.143  15
  16   4  -7 573.354 139.690  15
  16   4  -8-128.843 101.962  15
 -16  -4  -9 68.0031 82.5312   7
  16   4  -9-9.51027 61.0412  15
 -16  -5   0 2725.13 324.660   6
  16   5   0 2783.32 327.085  10
 -16  -5  -1 197.230 118.797   6
  16   5   1 174.451 135.950  10
  16   5  -1 152.397 96.3137  10
 -16  -5  -2 988.837 195.940   6
  16   5   2 739.668 180.233  10
  16   5  -2 430.991 120.696  15
 -16  -5  -3 194.364 106.898   6
  16   5   3 218.771 135.208  10
  16   5  -3 153.669 109.060  15
 -16  -5  -4 154.472 124.086   6
  16   5   4-21.8411 99.3532  10
  16   5  -4 328.523 127.747  15
 -16  -5  -5-135.187 124.360   6
  16   5   5-61.1867 95.7759  10
  16   5  -5 85.0319 83.3851  15
  16   5   6 5.63065 104.088  10
  16   5  -6 248.953 105.826  15
  16   5  -7 14.1465 68.8168  15
  16   5  -8 720.637 140.416  15
 -16  -6   0 1910.88 268.323   6
  16   6   0 1776.51 260.432  10
 -16  -6  -1 239.316 124.999   6
  16   6   1 113.374 114.356  10
 -16  -6   1 398.433 168.080   6
  16   6  -1 248.757 124.706  10
 -16  -6  -2 122.541 100.087   6
  16   6   2-22.5851 93.1523  10
  16   6  -2 9.23856 83.3582  10
 -16  -6  -3 1249.47 215.269   6
  16   6   3 925.919 202.786  10
  16   6  -3 1074.99 184.779  15
 -16  -6  -4 928.965 183.920   6
  16   6   4 856.597 182.808  10
  16   6  -4 686.252 156.767  15
 -16  -6  -5-282.353 155.613   6
  16   6   5-160.964 109.024  10
  16   6  -5-90.4654 79.3651  15
  16   6   6 8.14864 74.7422  10
  16   6  -6 122.462 83.9484  15
  16   6  -7 515.753 135.426  15
  16   6  -8-30.6458 72.2969  15
 -16  -7   0 1566.94 232.923   6
  16   7   0 1212.47 210.537  10
 -16  -7  -1 199.338 113.635   6
 -16  -7   1 193.307 90.8784   6
  16   7   1 148.677 126.161  10
  16   7  -1-167.405 112.295  10
 -16  -7  -2 388.734 134.995   6
  16   7   2 427.688 131.950  10
 -16  -7   2 600.440 159.372   6
  16   7  -2 372.860 144.622  10
 -16  -7  -3 585.491 148.072   6
  16   7   3 582.101 148.130  10
  16   7  -3 731.773 165.986  10
 -16  -7  -4-150.587 113.275   6
  16   7   4-100.452 87.6801  10
  16   7  -4-51.2996 63.7397  15
  16   7   5 329.686 127.976  10
  16   7  -5-37.2955 88.7190  15
  16   7   6 50.6227 66.0383  10
  16   7  -6 86.9607 69.5787  15
  16   7  -7 576.000 122.195  15
  16   8   0-73.1288 80.5520  10
  16   8   1-101.328 93.1982  10
  16   8  -1 77.8018 77.1162  10
  16   8   2-24.4666 79.5995  10
  16   8  -2-31.4424 87.6506  10
  16   8   3 1787.53 233.596  10
  16   8  -3 1540.96 217.935  10
  16   8   4-41.8030 91.2170  10
  16   8  -4 8.06266 71.1353  10
  16   8   5 203.863 107.090  10
  16   9   0-23.9158 74.4094  10
  16   9   1 489.309 130.382  10
  16   9  -1 204.643 88.5844  10
  16   9   2-118.292 91.2947  10
  16   9  -2 22.7707 70.8717  10
  16   9   3 260.888 95.6989  10
 -17   0   0 46.9495 95.8426   6
 -17   0  -1-8.50960 104.103   6
 -17   0   1-144.600 118.173   6
  17   0  -1 112.396 86.4819  15
 -17   0  -2 2877.31 321.808   6
 -17   0   2 3141.97 333.127   6
  17   0  -2 2834.09 301.082  15
 -17   0  -3-37.0363 109.429   6
  17   0  -3-71.6237 100.738  15
 -17   0  -4 439.367 131.566   6
  17   0  -4 317.702 125.271  15
 -17   0  -5-95.4356 102.969   6
  17   0  -5 86.5142 95.3032  15
  17   0  -6 167.004 110.911  15
  17   0  -7-70.5166 83.5205  15
 -17   0  -8 450.176 130.981   7
 -17   1   0 6.61032 91.7975   6
 -17  -1   0 102.909 108.357   6
  17   1   0-105.776 107.456  15
 -17   1  -1-3.81486 91.0809   6
 -17  -1  -1 109.938 97.4524   6
 -17   1   1 136.714 96.1561   6
 -17  -1   1 160.338 122.700   6
  17   1  -1-47.7671 81.5230  15
 -17   1  -2 475.011 150.210   6
 -17  -1  -2 588.128 164.978   6
 -17   1   2 616.327 171.090   6
 -17  -1   2 953.111 190.264   6
  17  -1  -2 415.290 120.737  15
  17   1  -2 468.256 135.953  15
 -17   1  -3-57.0461 98.0382   6
 -17  -1  -3 12.9876 101.521   6
 -17   1   3 19.5458 93.5245   6
  17  -1  -3 113.807 95.6027  15
  17   1  -3-76.0477 99.1603  15
 -17   1  -4 599.033 152.263   6
 -17  -1  -4 930.202 188.086   6
  17  -1  -4 1091.02 185.794  15
  17   1  -4 772.720 174.044  15
 -17  -1  -5 127.608 96.0513   6
  17  -1  -5 142.764 103.583  15
  17   1  -5 35.8200 81.4514  15
  17  -1  -6 392.968 132.569  15
  17   1  -6 91.5568 97.5722  15
  17  -1  -7 9.32200 70.8678  15
  17   1  -7 264.667 113.809  15
 -17  -1  -8 192.547 97.8569   7
  17   1  -8 135.149 77.1535  15
 -17  -2   0 198.546 118.632   6
  17   2   0-66.1625 93.7794  15
 -17  -2  -1 74.6133 92.4969   6
 -17  -2   1 121.294 122.574   6
  17   2  -1 268.377 107.149  15
 -17  -2  -2 1045.61 202.928   6
  17   2  -2 747.135 161.815  15
 -17  -2  -3 97.7867 118.353   6
  17   2  -3 444.775 141.590  15
 -17  -2  -4 10.4273 93.9742   6
  17   2  -4 171.147 96.8227  15
 -17  -2  -5 4278.96 357.068   6
  17   2  -5 3517.60 320.141  15
  17   2  -6 88.4487 95.0308  15
  17   2  -7 46.1648 72.3910  15
 -17  -2  -8-26.8195 77.4788   7
 -17  -3   0 289.194 144.448   6
 -17  -3  -1 372.264 156.199   6
 -17  -3   1 423.838 146.355   6
  17   3  -1 87.3639 89.4244  15
 -17  -3  -2 107.075 110.546   6
 -17  -3   2 311.087 139.940   6
  17   3  -2-104.890 97.6211  15
 -17  -3  -3 577.637 154.243   6
  17   3  -3 760.196 150.915  15
 -17  -3  -4-30.8002 109.622   6
  17   3  -4 11.0926 69.6665  15
 -17  -3  -5 140.274 103.459   6
  17   3  -5 118.933 98.5154  15
  17   3  -6 28.7474 61.4037  15
  17   3  -7-19.3569 74.8830  15
 -17  -4   0-53.6397 101.524   6
 -17  -4  -1 80.4362 97.8354   6
 -17  -4   1 203.471 120.901   6
  17   4  -1 155.588 82.2367  15
 -17  -4   2 2253.66 286.782   6
  17   4   2 1823.48 245.309  10
 -17  -4  -2 1810.39 245.447   6
  17   4  -2 2221.38 248.181  15
 -17  -4  -3 96.0998 102.579   6
  17   4   3 339.121 131.220  10
  17   4  -3 320.975 129.054  15
 -17  -4  -4 103.807 94.7418   6
  17   4   4-60.8830 71.8598  10
  17   4  -4-104.792 83.7419  15
 -17  -4  -5 839.506 158.125   6
  17   4  -5 1045.25 180.683  15
  17   4  -6 121.650 80.7893  15
  17   4  -7 51.0005 54.0934  15
 -17  -5   0 132.751 115.741   6
 -17  -5  -1 49.4717 91.6896   6
  17   5   1-68.3570 86.6862  10
 -17  -5   1 65.4721 91.7625   6
 -17  -5  -2 171.627 104.546   6
  17   5   2 232.060 98.1276  10
 -17  -5   2 327.614 141.792   6
  17   5  -2 203.843 84.2414  15
 -17  -5  -3-22.9634 85.9741   6
  17   5   3-130.302 90.4708  10
  17   5  -3-123.783 88.8329  15
 -17  -5  -4 875.928 155.502   6
  17   5   4 1008.17 186.186  10
  17   5  -4 957.960 159.176  15
  17   5   5-121.348 82.7545  10
  17   5  -5-101.292 81.1600  15
  17   5  -6-128.909 95.2639  15
 -17  -6   0 43.9604 90.0778   6
  17   6   0-21.4378 79.6984  10
 -17  -6  -1 23.8841 87.0233   6
 -17  -6   1 200.224 103.468   6
  17   6   1 208.844 98.3796  10
  17   6  -1 211.351 102.136  10
 -17  -6  -2 1375.74 195.789   6
  17   6   2 1113.33 185.101  10
 -17  -6   2 1203.60 192.247   6
 -17  -6  -3-33.3822 88.0656   6
  17   6   3 28.2319 85.4131  10
 -17  -6   3-51.2569 82.1355   6
  17   6  -3-2.21746 61.4114  15
 -17  -6  -4-0.54981 85.1585   6
  17   6   4 175.505 90.5541  10
  17   6  -4 119.506 68.8585  15
  17   7   0-84.8782 78.2435  10
  17   7   1-76.8276 90.1076  10
  17   7   2 222.328 90.6933  10
 -18   0   0 104.775 90.6679   6
 -18   0  -1 73.6798 73.3283   6
 -18   0   1 19.3468 93.8115   6
 -18   0  -2 228.617 105.127   6
 -18   0   2 157.644 92.8645   6
 -18   0  -3-38.2753 83.5645   6
 -18   0   3 156.200 105.437   6
 -18   1   0-57.5149 96.7792   6
 -18  -1   0 122.060 74.7972   6
 -18   1  -1 439.961 119.028   6
 -18  -1  -1 444.451 124.661   6
 -18   1   1 426.222 122.625   6
 -18  -1   1 187.897 105.373   6
 -18   1  -2 435.515 115.837   6
 -18  -1  -2 426.658 132.285   6
 -18   1   2 408.380 118.823   6
 -18  -1   2 438.382 123.658   6
 -18   1  -3 62.5193 84.0949   6
 -18  -1  -3-125.052 94.4672   6
 -18  -1   3 264.400 111.535   6
  18   1  -3 125.003 94.3889  15
 -18  -1  -4 414.105 108.324   6
 -18  -1   4 404.706 125.401   6
  18   1  -4 345.924 110.389  15
 -18  -2   0 31.2883 70.4854   6
 -18  -2  -1 38.9863 89.0314   6
 -18  -2   1 162.279 96.8777   6
 -18  -2  -2-133.250 82.9206   6
 -18  -2   2 132.177 95.0828   6
  18   2  -2 28.6394 68.5851  15
 -18  -2  -3 10.5701 64.8655   6
 -18  -2   3 116.323 74.1529   6
  18   2  -3-25.5929 60.1283  15
 -18  -2  -4 22.9855 80.7813   6
 -18  -2   4 62.2085 79.3645   6
  18   2  -4 44.7502 71.2844  15
 -18  -3   0 107.257 97.6721   6
 -18  -3  -1 2328.05 251.545   6
 -18  -3   1 2643.60 265.521   6
 -18  -3  -2-90.1636 93.8940   6
 -18  -3   2 162.301 91.5121   6
  18   3  -2-33.3818 63.9859  15
 -18  -3  -3 363.539 114.368   6
 -18  -3   3 224.108 96.3115   6
 -18  -4   0 288.967 109.659   6
 -18  -4  -1 88.3177 84.4257   6
 -18  -4   1 93.5181 69.1832   6
 -18  -4   2 86.7459 77.9948   6
   0   0   0    0.00    0.00   0
TITL exp_453_aoife in Pbca
REM Pbca (#61 in standard setting)
CELL 1.54184  15.874860  16.280539  18.068127  90.0000  90.0000  90.0000
ZERR   16.00   0.000577   0.000613   0.000596   0.0000   0.0000   0.0000
LATT  1
SYMM -x+1/2,-y, z+1/2
SYMM -x, y+1/2,-z+1/2
SYMM  x+1/2,-y+1/2,-z
SFAC C H N Cl Zn
UNIT 176.00 144.00 64.00 16.00 16.00
TREF
HKLF 4
END
;
_shelx_hkl_checksum              49848
loop_
_space_group_symop_operation_xyz
'x, y, z'
'-x+1/2, -y, z+1/2'
'-x, y+1/2, -z+1/2'
'x+1/2, -y+1/2, -z'
'-x, -y, -z'
'x-1/2, y, -z-1/2'
'x, -y-1/2, z-1/2'
'-x-1/2, y-1/2, z'
loop_
_atom_site_label
_atom_site_type_symbol
_atom_site_fract_x
_atom_site_fract_y
_atom_site_fract_z
_atom_site_U_iso_or_equiv
_atom_site_adp_type
_atom_site_occupancy
_atom_site_site_symmetry_order
_atom_site_calc_flag
_atom_site_refinement_flags_posn
_atom_site_refinement_flags_adp
_atom_site_refinement_flags_occupancy
_atom_site_disorder_assembly
_atom_site_disorder_group
Zn1 Zn 0.68367(7) 0.35207(7) 0.09704(6) 0.0742(5) Uani 1 1 d . . . . .
Zn2 Zn 0.48797(7) 0.16158(7) 0.31624(6) 0.0708(5) Uani 1 1 d . . . . .
N3 N 0.6130(5) 0.2616(5) 0.1377(4) 0.089(2) Uani 1 1 d . . . . .
N4 N 0.5409(5) 0.1903(5) 0.2197(4) 0.0815(18) Uani 1 1 d . . . . .
N5 N 0.6568(5) 0.3653(5) -0.0090(4) 0.0805(19) Uani 1 1 d . . . . .
N8 N 0.9190(4) 0.2535(4) 0.1454(4) 0.0768(17) Uani 1 1 d . . . . .
N7 N 0.8033(5) 0.3251(5) 0.1151(4) 0.0824(19) Uani 1 1 d . . . . .
N1 N 0.5852(6) 0.5649(6) 0.1893(5) 0.1117(16) Uani 1 1 d . . . . .
N6 N 0.5807(4) 0.3604(5) -0.1141(4) 0.0797(19) Uani 1 1 d . . . . .
N2 N 0.6569(6) 0.4540(6) 0.1534(5) 0.1117(16) Uani 1 1 d . . . . .
C6 C 0.5765(6) 0.2604(5) 0.2026(5) 0.079(2) Uani 1 1 d . . . . .
H6 H 0.575918 0.305631 0.234025 0.095 Uiso 1 1 calc R U . . .
C10 C 0.8351(5) 0.2552(5) 0.1401(5) 0.076(2) Uani 1 1 d D . . . .
C5 C 0.5539(11) 0.1450(7) 0.1580(7) 0.137(6) Uani 1 1 d . . . . .
H5 H 0.534894 0.091399 0.151461 0.165 Uiso 1 1 calc R U . . .
C3 C 0.5969(7) 0.5096(7) 0.1395(6) 0.1117(16) Uani 1 1 d . . . . .
H3 H 0.565418 0.508349 0.096163 0.134 Uiso 1 1 calc R U . . .
C9 C 0.5849(5) 0.3448(5) -0.0414(4) 0.077(2) Uani 1 1 d . . . . .
H9 H 0.540437 0.321202 -0.015522 0.092 Uiso 1 1 calc R U . . .
C7 C 0.6577(9) 0.3912(14) -0.1292(8) 0.176(6) Uani 1 1 d . . . . .
H7 H 0.676296 0.408164 -0.175522 0.212 Uiso 1 1 calc R U . . .
C8 C 0.7041(9) 0.3936(13) -0.0655(7) 0.176(6) Uani 1 1 d . . . . .
H8 H 0.759417 0.411810 -0.061743 0.212 Uiso 1 1 calc R U . . .
C4 C 0.5965(10) 0.1861(7) 0.1089(7) 0.139(6) Uani 1 1 d . . . . .
H4 H 0.612701 0.167339 0.062418 0.167 Uiso 1 1 calc R U . . .
C2 C 0.6846(7) 0.4789(7) 0.2193(6) 0.1117(16) Uani 1 1 d . . . . .
H2 H 0.730044 0.455487 0.243979 0.134 Uiso 1 1 calc R U . . .
C1 C 0.6391(7) 0.5415(7) 0.2456(6) 0.1117(16) Uani 1 1 d . . . . .
H1 H 0.642987 0.564739 0.292455 0.134 Uiso 1 1 calc R U . . .
C11B C 0.9437(5) 0.3268(6) 0.1193(6) 0.111(4) Uani 0.375(11) 1 d G . P A 1
H11B H 0.998823 0.345858 0.116808 0.134 Uiso 0.375(11) 1 calc R U P A 1
C12B C 0.8721(5) 0.3692(6) 0.0968(5) 0.116(4) Uani 0.375(11) 1 d G . P A 1
H12B H 0.871751 0.419796 0.072963 0.139 Uiso 0.375(11) 1 calc R U P A 1
C11A C 0.9437(5) 0.3268(6) 0.1193(6) 0.111(4) Uani 0.625(11) 1 d . . P A 2
C12A C 0.8721(5) 0.3692(6) 0.0968(5) 0.116(4) Uani 0.625(11) 1 d . . P A 2
C13 C 0.8800(10) 0.4423(7) 0.0578(9) 0.124(11) Uani 0.375(11) 1 d G . P A 2
H13 H 0.832164 0.470681 0.042682 0.149 Uiso 0.375(11) 1 calc R U P A 2
C14 C 0.9595(12) 0.4731(9) 0.0413(12) 0.17(2) Uani 0.375(11) 1 d G . P A 2
H14 H 0.964819 0.522070 0.015140 0.204 Uiso 0.375(11) 1 calc R U P A 2
C15 C 1.0311(9) 0.4307(12) 0.0638(12) 0.152(17) Uani 0.375(11) 1 d G . P A 2
Cl1 Cl 1.1210(8) 0.4631(6) 0.0534(5) 0.154(6) Uani 0.375(11) 1 d . . P A 2
C17 C 0.7862(19) 0.1944(17) 0.165(2) 0.159(17) Uani 0.375(11) 1 d D . P A 2
H17A H 0.820866 0.149316 0.180858 0.238 Uiso 0.375(11) 1 calc R U P A 2
H17B H 0.753604 0.213835 0.206467 0.238 Uiso 0.375(11) 1 calc R U P A 2
H17C H 0.749085 0.176563 0.126564 0.238 Uiso 0.375(11) 1 calc R U P A 2
C16 C 1.0232(5) 0.3576(11) 0.1028(10) 0.126(13) Uani 0.375(11) 1 d G . P A 2
H16 H 1.071029 0.329237 0.117916 0.151 Uiso 0.375(11) 1 calc R U P A 2
C1S C 0.752(3) 0.413(2) 0.378(3) 0.400 Uiso 0.78(3) 1 d D U P B 3
H1S H 0.751429 0.459190 0.347881 0.480 Uiso 0.78(3) 1 calc R U P B 3
N1S N 0.8262(17) 0.3328(18) 0.4005(15) 0.224(14) Uiso 0.78(3) 1 d D . P B 3
C2S C 0.863(4) 0.398(4) 0.452(3) 0.52(5) Uiso 0.78(3) 1 d D . P B 3
H2S1 H 0.868188 0.375444 0.500818 0.780 Uiso 0.78(3) 1 calc R U P B 3
H2S2 H 0.918198 0.413126 0.434150 0.780 Uiso 0.78(3) 1 calc R U P B 3
H2S3 H 0.827332 0.444830 0.452541 0.780 Uiso 0.78(3) 1 calc R U P B 3
O1S O 0.6875(19) 0.369(3) 0.432(2) 0.37(2) Uiso 0.78(3) 1 d D . P B 3
C3S C 0.793(4) 0.289(4) 0.336(3) 0.49(4) Uiso 0.78(3) 1 d D . P B 3
H3S1 H 0.777133 0.234875 0.350273 0.738 Uiso 0.78(3) 1 calc R U P B 3
H3S2 H 0.745394 0.318302 0.317116 0.738 Uiso 0.78(3) 1 calc R U P B 3
H3S3 H 0.836259 0.286598 0.298724 0.738 Uiso 0.78(3) 1 calc R U P B 3
loop_
_atom_site_aniso_label
_atom_site_aniso_U_11
_atom_site_aniso_U_22
_atom_site_aniso_U_33
_atom_site_aniso_U_23
_atom_site_aniso_U_13
_atom_site_aniso_U_12
Zn1 0.0705(7) 0.0775(8) 0.0747(8) 0.0047(5) 0.0003(5) 0.0082(5)
Zn2 0.0680(7) 0.0767(8) 0.0676(7) -0.0007(5) 0.0039(4) -0.0017(5)
N3 0.108(6) 0.091(5) 0.068(4) -0.008(4) 0.019(4) -0.003(4)
N4 0.091(5) 0.085(4) 0.068(4) -0.008(4) 0.012(4) -0.007(4)
N5 0.073(4) 0.093(4) 0.075(4) 0.019(4) -0.005(3) -0.009(4)
N8 0.069(4) 0.082(4) 0.080(4) 0.005(4) -0.004(3) -0.003(3)
N7 0.073(4) 0.088(5) 0.087(5) 0.013(4) 0.001(3) 0.005(4)
N1 0.121(3) 0.113(3) 0.102(3) -0.028(2) -0.041(3) 0.042(3)
N6 0.066(4) 0.099(5) 0.075(4) 0.017(4) 0.001(3) -0.006(3)
N2 0.121(3) 0.113(3) 0.102(3) -0.028(2) -0.041(3) 0.042(3)
C6 0.089(5) 0.075(5) 0.074(5) -0.002(4) 0.011(4) 0.002(4)
C10 0.067(5) 0.078(5) 0.082(5) -0.005(4) -0.008(4) 0.000(4)
C5 0.215(16) 0.095(7) 0.102(8) -0.035(6) 0.077(10) -0.050(9)
C3 0.121(3) 0.113(3) 0.102(3) -0.028(2) -0.041(3) 0.042(3)
C9 0.066(5) 0.094(6) 0.070(5) 0.012(4) 0.005(4) -0.006(4)
C7 0.109(6) 0.308(16) 0.112(7) 0.076(9) -0.016(5) -0.095(9)
C8 0.109(6) 0.308(16) 0.112(7) 0.076(9) -0.016(5) -0.095(9)
C4 0.199(14) 0.098(7) 0.121(9) -0.047(7) 0.083(10) -0.047(9)
C2 0.121(3) 0.113(3) 0.102(3) -0.028(2) -0.041(3) 0.042(3)
C1 0.121(3) 0.113(3) 0.102(3) -0.028(2) -0.041(3) 0.042(3)
C11B 0.075(6) 0.124(8) 0.135(9) 0.047(7) -0.006(6) -0.008(6)
C12B 0.083(7) 0.095(7) 0.170(12) 0.046(7) -0.011(7) -0.001(6)
C11A 0.075(6) 0.124(8) 0.135(9) 0.047(7) -0.006(6) -0.008(6)
C12A 0.083(7) 0.095(7) 0.170(12) 0.046(7) -0.011(7) -0.001(6)
C13 0.13(3) 0.14(3) 0.11(2) -0.01(2) -0.02(2) 0.02(2)
C14 0.18(4) 0.20(5) 0.12(3) 0.08(3) -0.04(3) -0.08(4)
C15 0.12(3) 0.12(3) 0.21(4) -0.05(3) -0.06(3) 0.02(2)
Cl1 0.216(12) 0.122(7) 0.122(7) -0.002(5) 0.011(7) -0.074(8)
C17 0.13(3) 0.14(3) 0.20(4) -0.05(3) -0.04(3) 0.07(3)
C16 0.087(19) 0.17(3) 0.12(3) 0.05(2) -0.006(17) 0.01(2)
loop_
_atom_type_symbol
_atom_type_description
_atom_type_scat_dispersion_real
_atom_type_scat_dispersion_imag
_atom_type_scat_source
C C 0.0181 0.0091 'International Tables Vol C Tables 4.2.6.8 and 6.1.1.4'
H H 0.0000 0.0000 'International Tables Vol C Tables 4.2.6.8 and 6.1.1.4'
N N 0.0311 0.0180 'International Tables Vol C Tables 4.2.6.8 and 6.1.1.4'
Cl Cl 0.3639 0.7018 'International Tables Vol C Tables 4.2.6.8 and 6.1.1.4'
Zn Zn -1.5491 0.6778 'International Tables Vol C Tables 4.2.6.8 and 6.1.1.4'
O O 0.0492 0.0322 'International Tables Vol C Tables 4.2.6.8 and 6.1.1.4'
loop_
_geom_angle_atom_site_label_1
_geom_angle_atom_site_label_2
_geom_angle_atom_site_label_3
_geom_angle
_geom_angle_site_symmetry_1
_geom_angle_site_symmetry_3
N5 Zn1 N7 113.1(3) . .
N5 Zn1 N3 108.4(3) . .
N7 Zn1 N3 108.4(3) . .
N5 Zn1 N2 111.0(3) . .
N7 Zn1 N2 107.8(4) . .
N3 Zn1 N2 107.9(4) . .
N1 Zn2 N6 109.2(3) 3_645 7_566
N1 Zn2 N8 107.3(4) 3_645 6_556
N6 Zn2 N8 109.1(3) 7_566 6_556
N1 Zn2 N4 113.2(3) 3_645 .
N6 Zn2 N4 106.7(3) 7_566 .
N8 Zn2 N4 111.3(3) 6_556 .
C6 N3 C4 104.2(8) . .
C6 N3 Zn1 126.2(6) . .
C4 N3 Zn1 129.5(6) . .
C6 N4 C5 102.3(8) . .
C6 N4 Zn2 126.4(6) . .
C5 N4 Zn2 131.2(7) . .
C9 N5 C8 103.3(8) . .
C9 N5 Zn1 126.0(6) . .
C8 N5 Zn1 130.6(7) . .
C10 N8 C11B 104.4(7) . .
C10 N8 C11A 104.4(7) . .
C10 N8 Zn2 126.3(6) . 6_656
C11B N8 Zn2 129.3(6) . 6_656
C10 N7 C12B 103.4(7) . .
C10 N7 C12A 103.4(7) . .
C10 N7 Zn1 127.9(6) . .
C12B N7 Zn1 128.3(6) . .
C12A N7 Zn1 128.3(6) . .
C3 N1 C1 103.4(8) . .
C3 N1 Zn2 127.8(7) . 3_655
C1 N1 Zn2 128.8(7) . 3_655
C9 N6 C7 102.9(8) . .
C9 N6 Zn2 129.0(6) . 7_565
C7 N6 Zn2 128.1(7) . 7_565
C2 N2 C3 101.3(8) . .
C2 N2 Zn1 129.7(7) . .
C3 N2 Zn1 128.3(7) . .
N3 C6 N4 114.5(8) . .
N7 C10 N8 115.0(8) . .
N7 C10 C17 122.0(16) . .
N8 C10 C17 122.6(17) . .
C4 C5 N4 111.1(10) . .
N1 C3 N2 116.5(9) . .
N5 C9 N6 115.4(7) . .
N6 C7 C8 109.2(11) . .
N5 C8 C7 109.1(11) . .
C5 C4 N3 107.8(9) . .
N2 C2 C1 111.8(9) . .
C2 C1 N1 106.5(9) . .
N8 C11B C12B 107.8(8) . .
N7 C12B C11B 109.0(8) . .
N8 C11A C12A 107.8(8) . .
N8 C11A C16 131.4(8) . .
C12A C11A C16 120.0 . .
N7 C12A C13 130.9(8) . .
N7 C12A C11A 109.0(8) . .
C13 C12A C11A 120.0 . .
C14 C13 C12A 120.0 . .
C13 C14 C15 120.0 . .
C16 C15 C14 120.0 . .
C16 C15 Cl1 116.1(12) . .
C14 C15 Cl1 123.7(13) . .
C15 C16 C11A 120.0 . .
O1S C1S N1S 87.5(14) . .
C3S N1S C2S 164(4) . .
C3S N1S C1S 86.3(16) . .
C2S N1S C1S 83.8(15) . .
loop_
_geom_bond_atom_site_label_1
_geom_bond_atom_site_label_2
_geom_bond_distance
_geom_bond_site_symmetry_2
Zn1 N5 1.974(7) .
Zn1 N7 1.977(7) .
Zn1 N3 1.992(8) .
Zn1 N2 1.993(9) .
Zn2 N1 1.959(8) 3_645
Zn2 N6 1.969(7) 7_566
Zn2 N8 1.980(7) 6_556
Zn2 N4 1.991(7) .
N3 C6 1.308(10) .
N3 C4 1.359(12) .
N4 C6 1.312(11) .
N4 C5 1.354(12) .
N5 C9 1.325(11) .
N5 C8 1.349(13) .
N8 C10 1.335(11) .
N8 C11B 1.341(11) .
N8 C11A 1.341(11) .
N7 C10 1.324(11) .
N7 C12B 1.348(12) .
N7 C12A 1.348(12) .
N1 C3 1.286(11) .
N1 C1 1.383(12) .
N6 C9 1.340(10) .
N6 C7 1.349(14) .
N2 C2 1.332(12) .
N2 C3 1.337(12) .
C10 C17 1.337(19) .
C5 C4 1.301(15) .
C7 C8 1.366(18) .
C2 C1 1.336(14) .
C11B C12B 1.3900 .
C11A C12A 1.3900 .
C11A C16 1.3900 .
C12A C13 1.3900 .
C13 C14 1.3900 .
C14 C15 1.3900 .
C15 C16 1.3900 .
C15 Cl1 1.534(14) .
C1S O1S 1.584(17) .
C1S N1S 1.805(14) .
N1S C3S 1.46(2) .
N1S C2S 1.52(2) .
