#------------------------------------------------------------------------------
#$Date: 2020-06-04 04:08:10 +0300 (Thu, 04 Jun 2020) $
#$Revision: 252609 $
#$URL: file:///home/coder/svn-repositories/cod/cif/4/13/49/4134913.cif $
#------------------------------------------------------------------------------
#
# This file is available in the Crystallography Open Database (COD),
# http://www.crystallography.net/
#
# All data on this site have been placed in the public domain by the
# contributors.
#
data_4134913
loop_
_publ_author_name
'Ort\'in-Rubio, Borja'
'Ghasempour, Hosein'
'Guillerm, Vincent'
'Morsali, Ali'
'Juanhuix, Judith'
'Imaz, Inhar'
'Maspoch, Daniel'
_publ_section_title
;
 Net-Clipping: An Approach to Deduce the Topology of Metal-Organic
 Frameworks Built with Zigzag Ligands.
;
_journal_issue                   20
_journal_name_full               'Journal of the American Chemical Society'
_journal_page_first              9135
_journal_page_last               9140
_journal_paper_doi               10.1021/jacs.0c03404
_journal_volume                  142
_journal_year                    2020
_chemical_formula_moiety         '0.25(C68 H60 Cu4 N12 O20)'
_chemical_formula_sum            'C17 H15 Cu N3 O5'
_chemical_formula_weight         404.86
_space_group_crystal_system      monoclinic
_space_group_IT_number           12
_space_group_name_Hall           '-C 2y'
_space_group_name_H-M_alt        'C 1 2/m 1'
_atom_sites_solution_hydrogens   geom
_atom_sites_solution_primary     direct
_audit_creation_date             2020-03-16
_audit_creation_method
;
Olex2 1.2
(compiled 2018.05.29 svn.r3508 for OlexSys, GUI svn.r5506)
;
_cell_angle_alpha                90
_cell_angle_beta                 101.22(5)
_cell_angle_gamma                90
_cell_formula_units_Z            4
_cell_length_a                   10.170(5)
_cell_length_b                   18.680(5)
_cell_length_c                   10.350(5)
_cell_measurement_reflns_used    2451
_cell_measurement_temperature    100
_cell_measurement_theta_max      30
_cell_measurement_theta_min      1
_cell_volume                     1928.7(15)
_computing_cell_refinement       'xds kabsch et al., 2010'
_computing_data_collection       'mxcube, Gabadinho et a., 2010'
_computing_molecular_graphics    'Olex2 (Dolomanov et al., 2009)'
_computing_publication_material  'Olex2 (Dolomanov et al., 2009)'
_computing_structure_refinement  'ShelXL (Sheldrick, 2015)'
_computing_structure_solution    'SIR2004 (Burla et al.,  2007)'
_diffrn_ambient_temperature      100
_diffrn_measured_fraction_theta_full 0.982
_diffrn_measured_fraction_theta_max 0.867
_diffrn_measurement_device_type  'Pilatus DECTRIS 6M'
_diffrn_measurement_method       'w/ scan'
_diffrn_radiation_type           synchrotron
_diffrn_radiation_wavelength     0.82653
_diffrn_reflns_av_R_equivalents  0.0662
_diffrn_reflns_av_unetI/netI     0.0421
_diffrn_reflns_Laue_measured_fraction_full 0.982
_diffrn_reflns_Laue_measured_fraction_max 0.867
_diffrn_reflns_limit_h_max       12
_diffrn_reflns_limit_h_min       -12
_diffrn_reflns_limit_k_max       24
_diffrn_reflns_limit_k_min       -24
_diffrn_reflns_limit_l_max       12
_diffrn_reflns_limit_l_min       -12
_diffrn_reflns_number            13038
_diffrn_reflns_point_group_measured_fraction_full 0.982
_diffrn_reflns_point_group_measured_fraction_max 0.867
_diffrn_reflns_theta_full        29.730
_diffrn_reflns_theta_max         33.863
_diffrn_reflns_theta_min         2.333
_exptl_absorpt_coefficient_mu    1.748
_exptl_absorpt_correction_type   none
_exptl_crystal_colour            'clear dark blue'
_exptl_crystal_colour_lustre     clear
_exptl_crystal_colour_modifier   dark
_exptl_crystal_colour_primary    blue
_exptl_crystal_density_diffrn    1.394
_exptl_crystal_description       block
_exptl_crystal_F_000             828
_exptl_crystal_size_max          0.36
_exptl_crystal_size_mid          0.33
_exptl_crystal_size_min          0.31
_refine_diff_density_max         0.820
_refine_diff_density_min         -0.960
_refine_diff_density_rms         0.099
_refine_ls_extinction_method     none
_refine_ls_goodness_of_fit_ref   1.125
_refine_ls_hydrogen_treatment    constr
_refine_ls_matrix_type           full
_refine_ls_number_parameters     144
_refine_ls_number_reflns         2211
_refine_ls_number_restraints     6
_refine_ls_restrained_S_all      1.124
_refine_ls_R_factor_all          0.0592
_refine_ls_R_factor_gt           0.0566
_refine_ls_shift/su_max          0.000
_refine_ls_shift/su_mean         0.000
_refine_ls_structure_factor_coef Fsqd
_refine_ls_weighting_details
'w=1/[\s^2^(Fo^2^)+(0.1201P)^2^+1.7784P] where P=(Fo^2^+2Fc^2^)/3'
_refine_ls_weighting_scheme      calc
_refine_ls_wR_factor_gt          0.1754
_refine_ls_wR_factor_ref         0.1785
_reflns_Friedel_coverage         0.000
_reflns_number_gt                2057
_reflns_number_total             2211
_reflns_threshold_expression     'I > 2\s(I)'
_cod_data_source_file            ja0c03404_si_002.cif
_cod_data_source_block           shelx
_cod_depositor_comments
'Adding full bibliography for 4134913--4134914.cif.'
_cod_database_code               4134913
_shelx_shelxl_version_number     2018/1
_shelx_space_group_comment
;
The symmetry employed for this shelxl refinement is uniquely defined
by the following loop, which should always be used as a source of
symmetry information in preference to the above space-group names.
They are only intended as comments.
;
_shelx_estimated_absorpt_t_max   0.613
_shelx_estimated_absorpt_t_min   0.572
_olex2_refinement_description
;
1. Fixed Uiso
 At 1.2 times of:
  All C(H) groups
 At 1.5 times of:
  All C(H,H,H) groups
2. Rigid bond restraints
 C1AA, O3, N2
 with sigma for 1-2 distances of 0.01 and sigma for 1-3 distances of 0.01
3. Rigid body (RIGU) restrains
 O3, C1AA
 with sigma for 1-2 distances of 0.004 and sigma for 1-3 distances of 0.004
4. Others
 Fixed Sof: O3(0.5) C1AA(0.5) H1AA(0.5) C2AA(0.5) H2AA(0.5) H2AB(0.5)
 H2AC(0.5) N2(0.5) C3AA(0.5) H3AA(0.5) H3AB(0.5) H3AC(0.5)
5.a Aromatic/amide H refined with riding coordinates:
 C1(H1), C0AA(H0AA), C3(H3), C5(H5), C1AA(H1AA)
5.b Idealised Me refined as rotating group:
 C2AA(H2AA,H2AB,H2AC), C3AA(H3AA,H3AB,H3AC)
;
_shelx_res_file
;
TITL in C2/m
    shelx.res
    created by SHELXL-2018/1 at 12:11:25 on 16-Mar-2020
CELL 0.82653 10.17 18.68 10.35 90 101.22 90
ZERR 4 0.005 0.005 0.005 0 0.05 0
LATT 7
SYMM -X,+Y,-Z
SFAC C H Cu N O
DISP C 0.005 0.002 16.098
DISP Cu 0.256 1.683 7813.756
DISP H -0 0 0.63
DISP N 0.009 0.005 28.748
DISP O 0.016 0.009 48.778
UNIT 68 60 4 12 20
DELU C1AA O3 N2
RIGU O3 C1AA

L.S. 20
PLAN  20
SIZE 0.31 0.33 0.36
TEMP -173.15
ABIN
fmap 2
acta
MERG 2
OMIT 2 2 1
OMIT 2 2 0
OMIT -3 1 1
OMIT -2 2 2
OMIT 1 1 2
OMIT 2 4 0
REM <olex2.extras>
REM <HklSrc "%.\\shelx.hkl">
REM </olex2.extras>

WGHT    0.120100    1.778400
FVAR       0.78422
CU1   3    0.438966    0.000000    0.100944    10.50000    0.04717    0.02846 =
         0.03531    0.00000    0.00080    0.00000
O1    5    0.571969    0.074099    0.162585    11.00000    0.06293    0.04570 =
         0.05248   -0.01443    0.00811   -0.01495
O2    5    0.320530    0.073821    0.006736    11.00000    0.06580    0.04976 =
         0.04925    0.01476    0.01060    0.01795
PART -1
O3    5    0.360724    0.004963    0.277582    10.50000    0.07477    0.04731 =
         0.04745    0.00177    0.01537    0.01360
PART 0
N4    4    0.789675    0.266886    0.472330    11.00000    0.11571    0.11130 =
         0.08805   -0.06262    0.04427   -0.07452
C1    1    0.909660    0.248475    0.161508    11.00000    0.15316    0.14477 =
         0.09670   -0.06346    0.06831   -0.10878
AFIX  43
H1    2    0.970682    0.272391    0.117474    11.00000   -1.20000
AFIX   0
C0AA  1    0.839735    0.189919    0.103527    11.00000    0.10970    0.09177 =
         0.06868   -0.03437    0.03386   -0.05906
AFIX  43
H0AA  2    0.853989    0.172687    0.020994    11.00000   -1.20000
AFIX   0
C2    1    0.660427    0.096090    0.101709    11.00000    0.05587    0.03829 =
         0.04646   -0.00559    0.00127   -0.00713
C3    1    0.892023    0.272811    0.283018    11.00000    0.15865    0.14352 =
         0.10429   -0.07524    0.06880   -0.11589
AFIX  43
H3    2    0.940072    0.313563    0.321712    11.00000   -1.20000
AFIX   0
C4    1    0.804290    0.237785    0.348383    11.00000    0.10728    0.10026 =
         0.08173   -0.05360    0.04010   -0.06563
C5    1    0.732213    0.178784    0.289715    11.00000    0.07460    0.07388 =
         0.06620   -0.03169    0.02070   -0.03367
AFIX  43
H5    2    0.672527    0.154356    0.334621    11.00000   -1.20000
AFIX   0
C6    1    0.747196    0.155934    0.167534    11.00000    0.07041    0.05852 =
         0.05885   -0.02084    0.01403   -0.02453
PART -1
C1AA  1    0.273339   -0.040689    0.293425    10.50000    0.11175    0.05392 =
         0.05860   -0.00841    0.02394   -0.00694
AFIX  43
H1AA  2    0.240989   -0.073354    0.224176    10.50000   -1.20000
AFIX   0
C2AA  1    0.284859    0.002196    0.516666    10.50000    0.20692    0.16005 =
         0.05635    0.00702    0.03517    0.12728
AFIX 137
H2AA  2    0.339678   -0.026596    0.586083    10.50000   -1.50000
H2AB  2    0.214241    0.026529    0.552197    10.50000   -1.50000
H2AC  2    0.341499    0.037884    0.484639    10.50000   -1.50000
AFIX   0
N2    4    0.223748   -0.044530    0.407552    10.50000    0.12020    0.07263 =
         0.08686   -0.00165    0.04602   -0.01425
C3AA  1    0.109878   -0.090073    0.412306    10.50000    0.12398    0.10889 =
         0.12907   -0.01806    0.05030   -0.04512
AFIX 137
H3AA  2    0.030735   -0.060384    0.413777    10.50000   -1.50000
H3AB  2    0.128773   -0.119664    0.491955    10.50000   -1.50000
H3AC  2    0.092925   -0.121046    0.334410    10.50000   -1.50000
AFIX   0
HKLF 4




REM  in C2/m
REM R1 =  0.0566 for    2057 Fo > 4sig(Fo)  and  0.0592 for all    2211 data
REM    144 parameters refined using      6 restraints

END

WGHT      0.1201      1.7784

REM Highest difference peak  0.820,  deepest hole -0.960,  1-sigma level  0.099
Q1    1   0.5000  0.0000  0.0000  10.25000  0.05    0.82
Q2    1   0.3648  0.0000  0.1595  10.50000  0.05    0.79
Q3    1   0.3777  0.0319  0.0845  11.00000  0.05    0.74
Q4    1   0.4975 -0.0317  0.1336  11.00000  0.05    0.67
Q5    1   0.2206  0.0000  0.2327  10.50000  0.05    0.41
Q6    1   0.1234  0.0000  0.3138  10.50000  0.05    0.40
Q7    1   0.2798  0.0904 -0.0351  11.00000  0.05    0.38
Q8    1   0.8379  0.1578  0.1279  11.00000  0.05    0.37
Q9    1   0.1155 -0.1138  0.2260  11.00000  0.05    0.36
Q10   1   0.6983  0.1209  0.1383  11.00000  0.05    0.36
Q11   1  -0.0324 -0.0454  0.3542  11.00000  0.05    0.35
Q12   1   0.7649  0.2861  0.4432  11.00000  0.05    0.35
Q13   1   0.6483  0.0815  0.1260  11.00000  0.05    0.34
Q14   1   0.3267  0.0507 -0.0333  11.00000  0.05    0.33
Q15   1   0.6141  0.0598  0.1564  11.00000  0.05    0.33
Q16   1   0.5456  0.0777  0.1259  11.00000  0.05    0.31
Q17   1   0.8130  0.2488  0.4942  11.00000  0.05    0.29
Q18   1   0.2997  0.0697  0.0304  11.00000  0.05    0.27
Q19   1   0.9502  0.2337  0.1724  11.00000  0.05    0.27
Q20   1   0.8748  0.2890  0.2419  11.00000  0.05    0.26
;
_shelx_res_checksum              60571
_shelx_hkl_file
;
   0   0   112090.00 1133.00   1
   0   0  -111690.00 1095.00   1
   0   0   2  145.50   14.10   1
   0   0  -2  132.70   12.72   1
   0   0   3 2858.00  267.90   1
   0   0   3 2417.00  226.80   1
   0   0  -3 2805.00  263.00   1
   0   0  -3 2514.00  235.50   1
   0   0   4 3836.00  359.40   1
   0   0   4 3318.00  311.40   1
   0   0  -4 3780.00  354.20   1
   0   0  -4 4499.00  421.80   1
   0   0   5 7068.00  662.60   1
   0   0   5 7423.00  695.40   1
   0   0  -5 9213.00  863.30   1
   0   0  -5 7308.00  684.80   1
   0   0   6   68.74   7.812   1
   0   0  -6   59.95   6.222   1
   0   0  -6   67.89   6.502   1
   0   0   7  977.80   91.82   1
   0   0   7 1098.00  103.50   1
   0   0  -7  967.30   90.85   1
   0   0  -7 1033.00   96.88   1
   0   0   8  454.30   42.80   1
   0   0   8  420.50   39.91   1
   0   0  -8  419.50   39.40   1
   0   0  -8  409.80   38.64   1
   0   0  -9  234.70   22.08   1
   0   0  -9  207.80   19.65   1
   0  -1   1   1.151   1.808   1
   0  -1  -1   2.198  0.3217   1
   0   1   1  0.6393  0.6832   1
   0   1  -1 -0.1744   1.898   1
   0  -1   2  137.40   13.74   1
   0   1   2  144.40   13.58   1
   0   1  -2  140.10   13.80   1
   0  -1   3  0.2145   1.488   1
   0  -1   3  -1.569   3.402   1
   0  -1  -3   1.134   1.129   1
   0  -1  -3   4.928   0.769   1
   0   1   3  0.1718  0.8364   1
   0   1   3   1.985   2.043   1
   0   1  -3   4.628   1.125   1
   0   1  -3   2.388   2.521   1
   0  -1   4   6.494   3.635   1
   0  -1  -4   11.14   1.733   1
   0   1  -4   8.026    2.69   1
   0  -1   5   80.36   9.125   1
   0   1   5   69.87   6.759   1
   0   1   5   67.58   7.132   1
   0  -1  -6  153.00   14.41   1
   0  -1  -6  114.90   10.94   1
   0   1  -6  152.80   14.48   1
   0   1  -6  126.90   12.84   1
   0  -1   7   8.881   4.414   1
   0  -1  -7   21.45   2.317   1
   0   1   7   14.68   1.883   1
   0   1   7   17.62    2.44   1
   0   1  -7   14.19   3.329   1
   0   1  -7   21.54   2.348   1
   0  -1   8 -0.5148   2.506   1
   0  -1   8 -0.9641    4.35   1
   0   1  -8   1.495   1.092   1
   0   1  -8   1.764   2.484   1
   0  -1   9   3.465   3.278   1
   0  -1   9   6.218   3.133   1
   0   1  -9   12.99   1.758   1
   0   1  -9   12.72    3.18   1
   0  -1  10   1.655   2.443   1
   0  -1  10   1.107   2.325   1
   0   1 -10  0.3978  0.9068   1
   0   1 -10  0.3891   1.792   1
   0  -2   0 4163.00  389.90   1
   0  -2   0 4558.00  427.30   1
   0   2   0 4841.00  453.80   1
   0   2   0 3564.00  333.90   1
   0  -2   110820.00 1014.00   1
   0  -2   111820.00 1108.00   1
   0  -2  -113840.00 1297.00   1
   0  -2  -1 9773.00  915.60   1
   0   2   110270.00  962.40   1
   0   2   111330.00 1062.00   1
   0   2  -112400.00 1162.00   1
   0   2  -110070.00  943.00   1
   0  -2   2 4100.00  384.20   1
   0  -2   2 3982.00  373.60   1
   0  -2  -2 4217.00  395.10   1
   0  -2  -2 4572.00  428.40   1
   0   2   2 4947.00  463.70   1
   0   2   2 3965.00  371.70   1
   0   2  -2 4101.00  384.60   1
   0   2  -2 4461.00  418.00   1
   0  -2   3   46.03   6.315   1
   0  -2  -3   37.05   3.508   1
   0   2   3   51.06   4.958   1
   0   2  -3   41.89   4.227   1
   0   2  -3   46.75    5.77   1
   0  -2   4  838.70   79.44   1
   0  -2   4  791.60   74.41   1
   0   2  -4  735.40   69.46   1
   0   2  -4  945.90   88.77   1
   0  -2   5  271.40   26.66   1
   0   2  -5  316.60   29.84   1
   0   2  -5  268.70   25.95   1
   0  -2   6 1828.00  172.20   1
   0  -2   6 2129.00  199.90   1
   0   2  -6 2230.00  209.50   1
   0   2  -6 1904.00  178.50   1
   0  -2   7   15.47   4.964   1
   0   2  -7   28.97   3.043   1
   0  -2   8  375.40   36.62   1
   0  -2   8  269.90   25.80   1
   0   2  -8  319.60   30.69   1
   0  -2   9  441.40   41.96   1
   0  -2   9  478.70   46.35   1
   0   2  -9  398.60   38.00   1
   0  -2  10  808.80   76.53   1
   0   2 -10  800.10   75.12   1
   0   2 -11  150.60   14.53   1
   0   2 -11  193.80   18.33   1
   0  -3   1  210.70   20.77   1
   0  -3  -1  208.00   20.05   1
   0   3   1  211.80   20.47   1
   0   3  -1  250.60   24.52   1
   0  -3   2   31.60   5.802   1
   0  -3  -2   31.55   3.459   1
   0   3   2   31.82   4.079   1
   0   3  -2   32.65   5.997   1
   0  -3   3   61.15   7.905   1
   0  -3  -3   63.54   6.032   1
   0   3   3   69.13   6.914   1
   0   3  -3   71.81   8.451   1
   0  -3   4   2.824   4.445   1
   0  -3   4  -0.235   2.046   1
   0   3  -4   7.082   1.511   1
   0   3  -4  0.5068    3.66   1
   0  -3   7   4.414   3.097   1
   0  -3   7   8.805   4.963   1
   0   3  -7   2.146   4.144   1
   0   3  -7    1.01   1.095   1
   0  -3   8    3.00   5.342   1
   0  -3   8   7.032   3.549   1
   0   3  -8   14.48   4.519   1
   0  -3   9  -5.369   6.134   1
   0  -3   9  0.8792   3.653   1
   0   3  -9 -0.3913   1.292   1
   0   3  -9  -5.865   3.808   1
   0  -3  10   16.79   5.356   1
   0  -3  10   10.47   5.086   1
   0   3 -10   11.75   4.454   1
   0   3 -10   13.53   2.004   1
   0  -3  11   3.718   4.777   1
   0   3 -11  0.9168    1.41   1
   0   3 -11   5.581   4.078   1
   0  -4   026670.00 2498.00   1
   0  -4   026910.00 2521.00   1
   0   4   034140.00 3198.00   1
   0   4   030160.00 2825.00   1
   0  -4   1  959.90   90.08   1
   0  -4   1  870.90   82.42   1
   0  -4  -1  794.60   74.97   1
   0  -4  -1 1010.00   94.73   1
   0   4   1  939.60   88.13   1
   0   4   1  866.90   81.85   1
   0   4  -1  905.10   85.69   1
   0   4  -1  999.00   93.74   1
   0  -4   2   33.82   3.615   1
   0  -4   2   31.38   5.937   1
   0  -4  -2   27.30   3.901   1
   0  -4  -2   28.12   2.894   1
   0   4   2   23.56   4.115   1
   0   4   2   29.12   2.947   1
   0   4  -2   32.83   3.537   1
   0   4  -2   23.25   5.899   1
   0  -4   3  220.30   20.85   1
   0  -4   3  238.40   23.79   1
   0  -4  -3  259.60   24.48   1
   0  -4  -3  226.80   21.34   1
   0   4   3  241.90   23.18   1
   0   4   3  223.10   20.96   1
   0   4  -3  249.40   23.58   1
   0   4  -3  241.80   24.04   1
   0  -4   4  452.60   43.77   1
   0  -4   4  375.40   35.38   1
   0  -4  -4  515.20   48.36   1
   0  -4  -4  423.00   39.71   1
   0   4   4  447.10   42.11   1
   0   4  -4  457.10   43.04   1
   0   4  -4  397.90   38.43   1
   0  -4   5 5925.00  555.30   1
   0  -4   6  986.00   92.89   1
   0  -4   6  972.30   92.37   1
   0   4  -6  842.00   79.77   1
   0   4  -6  960.90   90.20   1
   0  -4   7  172.20   18.04   1
   0  -4   7  197.30   19.40   1
   0   4  -7  185.80   18.87   1
   0   4  -7  187.70   17.82   1
   0  -4   8  162.50   16.55   1
   0  -4   8  167.10   18.04   1
   0   4  -8  184.90   19.20   1
   0   4  -8  158.70   15.13   1
   0  -4   9  206.00   20.54   1
   0  -4   9  224.40   23.58   1
   0   4  -9  211.60   21.43   1
   0   4  -9  181.30   17.27   1
   0  -4  10  356.50   35.50   1
   0  -4  10  314.60   30.52   1
   0   4 -10  363.10   34.27   1
   0   4 -10  341.50   33.07   1
   0  -4  11  186.40   19.67   1
   0  -4  11  163.30   17.65   1
   0   4 -11  175.60   18.17   1
   0   4 -11  165.90   15.93   1
   0  -4  12   3.523   5.657   1
   0   4 -12  -3.102   4.534   1
   0   4 -12   0.331   1.875   1
   0  -5   1    4.58   4.672   1
   0  -5  -1   9.216    4.01   1
   0   5   1   6.213   4.524   1
   0   5  -1   0.587   5.109   1
   0  -5   2   42.03   6.895   1
   0  -5  -2   48.00   5.837   1
   0   5   2   41.01   5.841   1
   0  -5   3   3.049   1.413   1
   0  -5  -3    2.76  0.9296   1
   0  -5  -3  0.1078   1.608   1
   0   5   3   2.248  0.7751   1
   0   5   3  -1.322   3.298   1
   0   5  -3  -4.601   4.883   1
   0  -5   4 -0.8336   5.312   1
   0  -5   4   15.58   2.173   1
   0  -5  -4   13.69   1.523   1
   0   5   4   10.38    1.42   1
   0   5   4   4.193   2.852   1
   0   5  -4   13.01    2.01   1
   0   5  -4   8.078   5.212   1
   0   5  -5   10.85   1.707   1
   0   5  -5   1.728   4.471   1
   0  -5   6   17.33   6.003   1
   0  -5   6   3.848   3.024   1
   0   5  -6   16.90   4.699   1
   0  -5   7  -1.518   3.488   1
   0  -5   7   6.528   5.322   1
   0   5  -7   1.229   1.197   1
   0   5  -7  -1.073   4.309   1
   0  -5   8   13.07   5.073   1
   0  -5   8   22.32   6.876   1
   0   5  -8   25.07   6.336   1
   0   5  -8   29.08   3.262   1
   0  -5   9   12.63   7.564   1
   0  -5   9   3.975   5.364   1
   0   5  -9   5.684   1.579   1
   0   5  -9   1.709   5.587   1
   0  -5  10   -1.08   4.828   1
   0  -5  10   1.897   7.322   1
   0   5 -10 -0.8907   4.845   1
   0   5 -10   4.674   1.648   1
   0  -5  11   -3.64    6.80   1
   0  -5  11  -4.325   5.839   1
   0   5 -11   4.802   1.914   1
   0  -5  12   1.159   3.571   1
   0  -5  12  -9.439   8.839   1
   0   5 -12   1.258   2.276   1
   0   5 -12  -4.661   6.714   1
   0  -6   0   79.92   9.328   1
   0   6   0   85.11   10.48   1
   0  -6   1  818.70   77.83   1
   0  -6  -1  783.80   74.25   1
   0  -6  -1  860.50   80.79   1
   0   6   1  915.90   86.83   1
   0   6   1  846.10   79.42   1
   0   6  -1  837.90   78.71   1
   0  -6   2  828.80   77.87   1
   0  -6  -2 1088.00  102.60   1
   0  -6  -2  912.50   85.64   1
   0   6   2  976.60   92.38   1
   0   6   2  892.40   83.74   1
   0   6  -2 1019.00   96.84   1
   0  -6   3  124.10   11.95   1
   0  -6   3  120.30   13.80   1
   0  -6  -3  123.00   11.70   1
   0  -6  -3  107.70   10.72   1
   0   6  -3  136.30   13.11   1
   0   6  -3  124.40   14.11   1
   0  -6   4 1219.00  115.60   1
   0  -6   4 1001.00   93.98   1
   0  -6  -4 1336.00  125.30   1
   0  -6  -4 1104.00  103.50   1
   0   6   4 1167.00  109.40   1
   0   6   4 1264.00  119.00   1
   0   6  -4 1114.00  104.60   1
   0   6  -4 1142.00  108.30   1
   0  -6   5 4308.00  404.10   1
   0  -6   5 4862.00  456.70   1
   0  -6  -5 4547.00  426.40   1
   0  -6  -5 6314.00  592.00   1
   0   6   5 5906.00  553.90   1
   0   6   5 4766.00  447.00   1
   0   6  -5 5593.00  524.10   1
   0   6  -5 4382.00  411.50   1
   0  -6   6 3693.00  347.20   1
   0  -6   6 3598.00  337.70   1
   0   6  -6 3287.00  308.90   1
   0   6  -6 3917.00  367.20   1
   0  -6   7  158.70   16.13   1
   0  -6   7  157.10   17.30   1
   0   6  -7  180.30   17.18   1
   0   6  -7  130.90   14.12   1
   0  -6   8   7.704   6.285   1
   0  -6   8   13.27   5.334   1
   0   6  -8   20.33   6.258   1
   0   6  -8   18.14   2.384   1
   0  -6   9  164.50   18.99   1
   0  -6   9  168.50   18.09   1
   0   6  -9  168.60   18.55   1
   0  -6  10  387.70   38.11   1
   0   6 -10  415.50   40.94   1
   0  -6  11  106.50   14.41   1
   0  -6  11  105.90   13.19   1
   0   6 -11  101.20   12.23   1
   0   6 -11  127.10   12.40   1
   0  -6  12   19.99   11.09   1
   0  -6  12   8.279   9.086   1
   0   6 -12   26.22   8.392   1
   0   6 -12   15.72   3.285   1
   0  -7   1  0.1553    1.46   1
   0  -7   1  0.1823   4.998   1
   0  -7  -1   1.436   3.931   1
   0   7   1 -0.8575   1.294   1
   0   7  -1 -0.4605   1.342   1
   0   7  -1  -2.376   6.349   1
   0  -7   2   6.924   1.755   1
   0  -7   2  -1.092   5.488   1
   0  -7  -2   4.459   1.362   1
   0  -7  -2    1.20   3.988   1
   0   7   2   2.801    1.23   1
   0   7   2  0.3834    4.64   1
   0   7  -2   3.735    1.55   1
   0   7  -2   10.32   6.144   1
   0  -7   3   19.70   2.596   1
   0  -7   3   17.09   6.192   1
   0  -7  -3   4.524   3.238   1
   0  -7  -3   15.78   2.034   1
   0   7   3   15.41    1.91   1
   0   7   3   6.234   4.918   1
   0   7  -3   18.12   2.416   1
   0   7  -3   14.48   6.418   1
   0  -7   4   28.01   3.188   1
   0  -7   4   13.42   6.113   1
   0  -7  -4   23.92   2.553   1
   0   7   4   12.43   4.382   1
   0   7   4   20.99   2.233   1
   0   7  -4   9.635   6.265   1
   0   7  -4   23.05    2.74   1
   0  -7   5   4.328   3.075   1
   0  -7   5  -1.531   5.665   1
   0  -7  -5   4.434   1.517   1
   0  -7  -5   11.35   1.673   1
   0   7   5   9.745   2.541   1
   0   7  -5   11.43   5.394   1
   0  -7   6   2.224   5.872   1
   0  -7   6   2.192   3.679   1
   0   7  -6   3.062   4.808   1
   0   7  -6   6.511   1.532   1
   0  -7   7  -1.538   5.957   1
   0   7  -7   1.095   1.336   1
   0  -7   8  -3.237   5.264   1
   0   7  -8   5.037    5.80   1
   0  -7   9   8.859   7.973   1
   0  -7   9   10.82   6.924   1
   0   7  -9   10.21   7.074   1
   0   7  -9   7.432   1.694   1
   0  -7  10   6.432   7.737   1
   0  -7  10   1.124   8.572   1
   0   7 -10    4.54   6.713   1
   0  -7  11  -13.40   8.272   1
   0  -7  11  -9.388   7.789   1
   0   7 -11   -1.14   6.363   1
   0   7 -11  0.8869   1.892   1
   0  -7  12 -0.3383   9.224   1
   0  -7  12 -0.5918   9.688   1
   0   7 -12  -9.293   7.087   1
   0   7 -12   1.927   2.592   1
   0  -8   0 2011.00  188.70   1
   0  -8   0 1732.00  163.40   1
   0   8   0 1828.00  171.40   1
   0   8   0 1954.00  184.50   1
   0  -8   1  113.20   10.99   1
   0  -8   1   74.15    9.79   1
   0  -8  -1  102.50   9.939   1
   0   8   1   79.56   10.45   1
   0   8  -1  105.50   10.26   1
   0  -8   2   16.44   2.395   1
   0  -8   2   35.53   7.285   1
   0  -8  -2   36.20   6.232   1
   0  -8  -2   24.08    2.92   1
   0   8   2   37.99   7.366   1
   0   8   2   24.42   2.765   1
   0   8  -2   20.73    2.64   1
   0   8  -2   23.75   7.531   1
   0  -8   3 1050.00   98.60   1
   0  -8   3  915.70   87.38   1
   0  -8  -3 1084.00  101.70   1
   0  -8  -3 1016.00   95.90   1
   0   8   3 1050.00   98.51   1
   0   8   3 1057.00  100.20   1
   0   8  -3  969.40   92.51   1
   0   8  -3 1067.00  100.20   1
   0  -8   4 1374.00  130.30   1
   0  -8   4 1239.00  116.30   1
   0  -8  -4 1405.00  131.80   1
   0  -8  -4 1372.00  128.90   1
   0   8   4 1489.00  139.70   1
   0   8   4 1565.00  147.50   1
   0   8  -4 1342.00  125.90   1
   0   8  -4 1376.00  130.50   1
   0  -8   5 4127.00  387.40   1
   0  -8   5 4149.00  390.20   1
   0  -8  -5 5308.00  497.40   1
   0  -8  -5 5103.00  478.40   1
   0   8   5 5126.00  480.30   1
   0   8   5 4325.00  405.70   1
   0   8  -5 4726.00  442.90   1
   0   8  -5 4585.00  431.10   1
   0  -8   6  851.00   81.49   1
   0   8  -6  840.00   78.93   1
   0  -8   7  696.80   66.38   1
   0   8  -7  644.40   61.88   1
   0   8  -7  840.70   79.02   1
   0  -8   8   40.98   7.479   1
   0  -8   8   47.58   9.375   1
   0   8  -8   50.38   8.417   1
   0   8  -8   38.89    4.19   1
   0  -8   9  292.50   29.99   1
   0  -8   9  280.50   29.63   1
   0   8  -9  271.30   28.17   1
   0   8  -9  229.50   21.84   1
   0  -8  10  237.60   26.75   1
   0  -8  10  220.90   24.06   1
   0   8 -10  265.00   27.97   1
   0  -8  11   60.65   12.01   1
   0   8 -11   62.51   6.585   1
   0  -8  12   7.144   9.733   1
   0  -8  12   -2.39   9.722   1
   0   8 -12   5.013    8.17   1
   0   8 -12   3.384   3.121   1
   0  -9   1   64.43   9.464   1
   0  -9  -1   67.74   9.115   1
   0   9   1   72.46   10.41   1
   0   9  -1   59.01   9.767   1
   0  -9   2   3.507   5.807   1
   0  -9   2   4.514   1.784   1
   0  -9  -2   4.135    4.65   1
   0  -9  -2    2.23   1.412   1
   0   9   2   2.956   5.933   1
   0   9   2   1.525   1.304   1
   0   9  -2    3.90   1.603   1
   0   9  -2  -1.841   6.557   1
   0  -9   3   51.55   8.577   1
   0   9   3   45.33   7.889   1
   0   9  -3   39.86   8.442   1
   0  -9   4  -1.968   6.137   1
   0  -9   4 0.01661   1.302   1
   0  -9  -4  0.8095   2.407   1
   0   9   4-0.04961   1.018   1
   0   9  -4  0.5958    1.33   1
   0   9  -4   3.784   5.545   1
   0  -9   5   8.086   6.095   1
   0  -9  -5   12.18    2.46   1
   0   9   5   16.83   1.982   1
   0   9   5   4.972   3.804   1
   0   9  -5   8.627   6.932   1
   0   9  -5   21.97   2.695   1
   0  -9   6  -4.659   4.314   1
   0  -9   6  -12.05   6.418   1
   0  -9  -6   2.203   1.403   1
   0  -9  -6 -0.8799   2.149   1
   0   9   6   3.802   1.262   1
   0   9   6   3.811   2.964   1
   0   9  -6   5.933   1.549   1
   0   9  -6   3.509   5.268   1
   0  -9   7   4.706   5.121   1
   0  -9   7 -0.1814   6.669   1
   0   9  -7   5.527   5.578   1
   0   9  -7   1.506   1.431   1
   0  -9   8  -2.565   7.791   1
   0  -9   8    6.87   6.051   1
   0   9  -8   11.93   6.146   1
   0   9  -8   4.939   1.591   1
   0  -9   9   3.084   8.276   1
   0  -9   9   5.721   7.794   1
   0   9  -9   12.75   2.084   1
   0   9  -9    5.33   7.102   1
   0  -9  10   23.13   9.424   1
   0  -9  10   27.17   11.17   1
   0   9 -10   33.40   9.767   1
   0  -9  11   10.13   10.90   1
   0  -9  11 -0.4291   9.851   1
   0   9 -11   2.133   2.036   1
   0   9 -11  -4.153   9.182   1
   0 -10   0 2323.00  218.90   1
   0 -10   0 2327.00  218.20   1
   0  10   0 2314.00  217.00   1
   0  10   0 2469.00  233.00   1
   0 -10   1 3703.00  348.30   1
   0 -10   1 3513.00  329.30   1
   0 -10  -1 3594.00  337.90   1
   0 -10  -1 3707.00  347.40   1
   0  10   1 3480.00  326.20   1
   0  10   1 4005.00  376.70   1
   0  10  -1 3495.00  327.60   1
   0  10  -1 3823.00  359.70   1
   0 -10   2  563.90   53.11   1
   0 -10   2  525.70   51.11   1
   0 -10  -2  635.70   60.91   1
   0 -10  -2  645.60   60.75   1
   0  10  -2  556.90   52.45   1
   0  10  -2  570.50   55.55   1
   0 -10   3  124.00   11.99   1
   0 -10   3  101.60   12.59   1
   0 -10  -3   96.74   11.03   1
   0 -10  -3  124.70   11.95   1
   0  10   3  114.20   10.98   1
   0  10   3   99.68   12.20   1
   0  10  -3  128.10   12.36   1
   0  10  -3   88.82   12.03   1
   0 -10   4  910.50   85.54   1
   0 -10   4 1014.00   96.87   1
   0 -10  -4  972.10   91.24   1
   0  10   4 1073.00  101.70   1
   0  10  -4  976.30   93.23   1
   0  10  -4 1079.00  101.30   1
   0 -10   5 3042.00  286.60   1
   0 -10  -5 3471.00  325.50   1
   0  10   5 3459.00  324.10   1
   0  10  -5 3328.00  312.00   1
   0  10  -5 3157.00  297.40   1
   0 -10   6 3211.00  301.60   1
   0 -10   6 3353.00  315.90   1
   0 -10  -6 4172.00  391.10   1
   0 -10  -6 3606.00  338.20   1
   0  10   6 4331.00  405.90   1
   0  10   6 3612.00  338.90   1
   0  10  -6 3470.00  325.30   1
   0  10  -6 3049.00  287.00   1
   0 -10   7   78.33   11.78   1
   0 -10   7   71.60   9.762   1
   0  10  -7   58.01   8.981   1
   0  10  -7   70.23   7.024   1
   0 -10   8  299.10   30.09   1
   0 -10   8  316.60   33.12   1
   0  10  -8  315.50   29.88   1
   0  10  -8  283.40   28.93   1
   0 -10   9  597.70   59.18   1
   0 -10   9  515.00   50.58   1
   0  10  -9  620.20   60.53   1
   0 -10  10  401.70   41.65   1
   0 -10  10  423.00   42.95   1
   0  10 -10  488.70   49.04   1
   0 -10  11  333.80   36.05   1
   0 -10  11  306.30   33.60   1
   0  10 -11  332.30   31.61   1
   0  10 -11  410.60   42.72   1
   0 -11   1   75.62   10.35   1
   0 -11  -1   80.36   10.38   1
   0  11   1   98.62   12.83   1
   0  11  -1   77.88   11.50   1
   0 -11   2    8.06   6.128   1
   0 -11  -2   5.688   5.275   1
   0 -11  -2   13.28    2.00   1
   0  11   2   11.20   1.845   1
   0  11   2    5.79   6.306   1
   0  11  -2   13.09   2.046   1
   0 -11   3   1.032   1.343   1
   0 -11  -3   3.287   4.838   1
   0 -11  -3 0.03663   1.181   1
   0  11   3   1.182   1.356   1
   0  11   3 -0.3913   5.853   1
   0  11  -3 0.08887   6.596   1
   0 -11   4  -4.661   5.886   1
   0 -11   4  0.8214   1.501   1
   0 -11  -4  0.7648   3.137   1
   0 -11  -4  0.1576   1.284   1
   0  11   4   1.319   1.252   1
   0  11   4  -4.885   5.988   1
   0  11  -4  -2.167    6.73   1
   0  11  -4   2.577   1.459   1
   0 -11   5   58.14   10.04   1
   0  11   5   55.41    7.80   1
   0  11  -5   67.61   10.71   1
   0 -11   6 0.02401    6.44   1
   0 -11   6   9.102    5.33   1
   0 -11  -6 -0.8834   3.622   1
   0 -11  -6  0.7297    2.35   1
   0  11   6    2.19   1.543   1
   0  11   6   1.652   4.227   1
   0  11  -6   5.327   1.575   1
   0  11  -6  -2.198   6.091   1
   0 -11   7   4.216    7.43   1
   0 -11   7  -8.615   5.691   1
   0  11  -7  -5.826   6.033   1
   0  11  -7  -2.995   1.453   1
   0 -11   8   5.321   8.464   1
   0 -11   8   2.578   6.653   1
   0  11  -8   -4.61   6.213   1
   0 -11   9   15.27    9.61   1
   0 -11   9    1.20   7.733   1
   0  11  -9   9.036   1.928   1
   0  11  -9   4.815   7.095   1
   0 -11  10  -7.447   9.998   1
   0 -11  10   5.048   10.63   1
   0  11 -10   9.095   2.169   1
   0  11 -10  -9.504   8.219   1
   0 -11  11 -0.1395   12.79   1
   0 -11  11   4.675   10.44   1
   0  11 -11   19.72   11.85   1
   0 -12   0 9945.00  931.90   1
   0 -12   010570.00  991.20   1
   0  12   010750.00 1008.00   1
   0  12   010310.00  965.50   1
   0 -12   1 3269.00  306.40   1
   0 -12   1 3509.00  330.40   1
   0 -12  -1 3711.00  347.90   1
   0 -12  -1 3532.00  332.30   1
   0  12   1 3491.00  327.20   1
   0  12   1 3746.00  352.60   1
   0  12  -1 3582.00  337.40   1
   0  12  -1 3446.00  323.10   1
   0 -12   2  124.30   14.76   1
   0 -12   2  107.30   10.43   1
   0 -12  -2  168.40   17.94   1
   0 -12  -2  114.00   11.02   1
   0  12   2  133.50   12.87   1
   0  12   2  140.00   16.08   1
   0  12  -2   96.84   12.87   1
   0  12  -2  128.20   12.40   1
   0 -12   3  408.50   40.50   1
   0 -12   3  537.60   50.68   1
   0 -12  -3  484.20   46.84   1
   0 -12  -3  507.30   47.76   1
   0  12   3  502.00   47.29   1
   0  12   3  474.50   46.48   1
   0  12  -3  482.30   45.49   1
   0  12  -3  451.10   44.70   1
   0 -12   4  859.60   80.78   1
   0 -12   4 1015.00   97.14   1
   0 -12  -4  868.10   81.54   1
   0 -12  -4 1008.00   95.26   1
   0  12   4 1023.00   96.07   1
   0  12   4 1030.00   98.05   1
   0  12  -4  937.30   88.09   1
   0  12  -4 1017.00   97.27   1
   0 -12   5 1414.00  133.50   1
   0 -12   5 1490.00  141.60   1
   0 -12  -5 1410.00  132.70   1
   0 -12  -5 1605.00  150.90   1
   0  12   5 1597.00  149.80   1
   0  12   5 1413.00  133.50   1
   0  12  -5 1481.00  140.60   1
   0  12  -5 1501.00  140.90   1
   0 -12   6   13.90   7.451   1
   0 -12   6   12.99   6.268   1
   0 -12  -6   12.01   4.722   1
   0  12   6   21.61   2.647   1
   0  12   6   16.79   5.472   1
   0  12  -6   20.54   2.726   1
   0  12  -6   21.02   7.017   1
   0 -12   7   38.33   7.899   1
   0 -12  -7   35.09   3.977   1
   0 -12  -7   31.71   4.816   1
   0  12   7   23.30   2.829   1
   0  12   7   39.95   5.572   1
   0  12  -7   30.82   7.795   1
   0 -12   8  140.50   16.66   1
   0 -12   8  172.30   20.63   1
   0  12  -8  132.80   12.86   1
   0  12  -8  130.20   15.48   1
   0 -12   9  222.50   25.43   1
   0 -12   9  199.80   22.38   1
   0  12  -9  187.90   18.01   1
   0  12  -9  190.40   21.50   1
   0 -12  10  338.70   36.00   1
   0 -12  10  322.80   34.89   1
   0  12 -10  338.80   35.71   1
   0 -12  11   82.69   17.27   1
   0 -12  11   84.33   15.35   1
   0  12 -11   74.82   7.752   1
   0  12 -11  100.30   16.86   1
   0 -13   1   2.222   6.059   1
   0 -13   1   -1.92   1.642   1
   0 -13  -1   9.429    5.86   1
   0  13   1  0.4307   1.485   1
   0  13  -1  0.1123   1.422   1
   0  13  -1   2.403   7.237   1
   0 -13   2    3.76   6.192   1
   0 -13   2   10.13   2.056   1
   0 -13  -2   8.058   1.852   1
   0 -13  -2   10.56   6.004   1
   0  13   2   5.995    1.79   1
   0  13   2 -0.2358   7.174   1
   0  13  -2   9.128   1.903   1
   0  13  -2 -0.7933   7.578   1
   0 -13   3  -2.105   6.743   1
   0 -13   3 0.01954   1.565   1
   0 -13  -3  0.4139   5.299   1
   0 -13  -3   1.195   1.541   1
   0  13   3   3.173   6.911   1
   0  13   3  0.2451   1.539   1
   0  13  -3   2.642   7.301   1
   0  13  -3   1.481   1.495   1
   0 -13   4   7.692   1.837   1
   0 -13   4   2.611   6.833   1
   0 -13  -4    9.88   1.779   1
   0 -13  -4   1.274   4.086   1
   0  13   4   15.66   7.341   1
   0  13   4   6.722   1.714   1
   0  13  -4   7.981   1.886   1
   0  13  -4    7.61   7.506   1
   0 -13   5   19.53   6.016   1
   0 -13   5   40.00   9.079   1
   0 -13  -5   18.52   5.119   1
   0 -13  -5   39.50   5.461   1
   0  13   5   33.11   7.214   1
   0  13  -5   34.95   9.349   1
   0 -13   6   12.76   6.629   1
   0 -13  -6   23.08    4.18   1
   0 -13  -6   6.872   5.323   1
   0  13   6   29.40   6.771   1
   0  13  -6   14.64   7.358   1
   0 -13   7   12.71   7.049   1
   0 -13   7   6.013   8.267   1
   0 -13  -7 -0.2912    2.29   1
   0 -13  -7  -1.321   4.638   1
   0  13   7   1.641   1.846   1
   0  13   7   0.281   5.329   1
   0  13  -7   1.278   1.582   1
   0  13  -7   5.265   6.801   1
   0 -13   8   1.224   8.447   1
   0 -13   8   5.369   7.585   1
   0  13  -8   2.891   6.444   1
   0  13  -8  -0.484   1.465   1
   0 -13   9 -0.5775   9.494   1
   0 -13   9  0.5071   9.116   1
   0  13  -9  0.9962   1.674   1
   0  13  -9  -8.404   8.002   1
   0 -13  10  0.4527   12.00   1
   0 -13  10  -6.214   10.91   1
   0  13 -10   7.574   10.24   1
   0  13 -10   1.707    1.90   1
   0 -13  11  -3.192   10.87   1
   0 -13  11   1.945   10.09   1
   0  13 -11   3.012   9.038   1
   0 -14   0 2217.00  209.50   1
   0 -14   0 2006.00  188.20   1
   0  14   0 2245.00  210.60   1
   0  14   0 2237.00  211.60   1
   0 -14   1 1906.00  178.80   1
   0 -14   1 1969.00  186.40   1
   0 -14  -1 1945.00  182.40   1
   0  14   1 2058.00  194.90   1
   0  14   1 2005.00  188.10   1
   0  14  -1 1959.00  185.50   1
   0  14  -1 1860.00  174.50   1
   0 -14   2  263.00   24.99   1
   0 -14   2  274.40   28.50   1
   0 -14  -2  281.90   26.73   1
   0  14   2  271.10   28.45   1
   0  14  -2  257.70   27.43   1
   0  14  -2  269.00   25.57   1
   0 -14   3  223.00   21.23   1
   0 -14   3  273.30   28.40   1
   0 -14  -3  260.90   26.49   1
   0  14   3  257.20   24.42   1
   0  14  -3  243.30   26.04   1
   0  14  -3  237.80   22.63   1
   0 -14   4  233.60   24.73   1
   0 -14  -4  210.80   21.22   1
   0 -14  -4  176.50   16.83   1
   0  14   4  222.70   21.19   1
   0  14   4  212.30   22.68   1
   0  14  -4  212.30   20.26   1
   0 -14   5   43.25   7.921   1
   0 -14  -5   35.39    6.52   1
   0 -14  -5   49.14   6.424   1
   0  14   5   61.48   6.231   1
   0  14   5   38.59   7.824   1
   0  14  -5   53.67   9.778   1
   0  14  -5   55.52   5.848   1
   0 -14   6  113.50   13.67   1
   0 -14   6  125.60   16.23   1
   0 -14  -6  168.40   16.85   1
   0 -14  -6  123.70   13.76   1
   0  14   6  147.20   14.12   1
   0  14   6  136.80   15.46   1
   0  14  -6  154.80   14.95   1
   0 -14   7   8.496   7.209   1
   0 -14   7  -8.488   8.311   1
   0 -14  -7  -1.906   2.627   1
   0  14   7   1.347   2.087   1
   0  14  -7  0.1217   1.518   1
   0  14  -7  -1.654   6.755   1
   0 -14   8   93.19   14.57   1
   0 -14   8   59.88   10.90   1
   0  14  -8   89.34    8.83   1
   0  14  -8   65.98   10.56   1
   0 -14   9  136.50   17.90   1
   0 -14   9  143.40   19.38   1
   0  14  -9  131.60   12.83   1
   0  14  -9  119.10   15.85   1
   0 -14  10   95.05   17.14   1
   0  14 -10   80.90   8.283   1
   0 -14  11  162.90   19.13   1
   0 -14  11  172.80   20.35   1
   0  14 -11  209.60   22.45   1
   0 -15   1 -0.3784   1.672   1
   0 -15   1  -1.692   6.486   1
   0 -15  -1   3.006   1.699   1
   0 -15  -1   7.525   6.912   1
   0  15   1  -3.303   8.757   1
   0  15   1   1.754   1.592   1
   0  15  -1  -1.982   8.488   1
   0  15  -1  0.6894   1.678   1
   0 -15   2  -5.529   6.646   1
   0 -15   2   2.776   1.642   1
   0 -15  -2   1.178   1.544   1
   0 -15  -2   1.029   6.993   1
   0  15   2  -8.544   8.436   1
   0  15   2  0.5977   1.745   1
   0  15  -2  0.7439   1.563   1
   0  15  -2   18.46   8.921   1
   0 -15   3   1.416   7.049   1
   0 -15   3 -0.2107   1.594   1
   0 -15  -3  0.7922   1.437   1
   0 -15  -3   3.393   5.505   1
   0  15   3    1.34   7.849   1
   0  15   3   1.597   1.722   1
   0  15  -3  -6.352   8.045   1
   0  15  -3   3.136    1.64   1
   0 -15   4   3.085   7.171   1
   0 -15   4 -0.6702   5.341   1
   0 -15  -4   1.616   5.367   1
   0 -15  -4   8.808   1.897   1
   0  15   4   7.442   2.133   1
   0  15   4    4.14   7.141   1
   0  15  -4   14.46   8.621   1
   0  15  -4   7.086   1.905   1
   0 -15   5   11.39   8.155   1
   0 -15   5   13.16   6.405   1
   0 -15  -5   10.70   6.087   1
   0 -15  -5   1.087   4.011   1
   0  15   5   11.43   2.163   1
   0  15   5   -1.65   6.935   1
   0  15  -5   6.851   7.979   1
   0  15  -5   18.83   2.652   1
   0 -15  -6   13.19   4.454   1
   0  15  -6   27.47   3.375   1
   0 -15   7 -0.4907   7.505   1
   0 -15   7   -7.49    8.39   1
   0 -15  -7  0.8189   3.367   1
   0 -15  -7 -0.9335   7.324   1
   0  15   7  -1.684   2.388   1
   0  15   7 -0.3299   7.284   1
   0  15  -7   2.856   1.616   1
   0  15  -7   1.382   7.011   1
   0 -15   8  -3.151   8.842   1
   0 -15   8  -3.487   8.851   1
   0  15  -8   6.726   7.786   1
   0  15  -8 -0.4253   1.522   1
   0 -15   9  -9.676   9.817   1
   0 -15   9  -3.292   11.56   1
   0  15  -9  -11.05   9.888   1
   0  15  -9  -1.063   1.722   1
   0 -15  10  0.8477   13.55   1
   0 -15  10  -5.717   10.50   1
   0  15 -10    1.01   10.36   1
   0  15 -10  0.9044   2.187   1
   0 -16   0 1231.00  117.50   1
   0 -16   0 1028.00   96.58   1
   0  16   0 1170.00  109.90   1
   0  16   0 1040.00   99.79   1
   0 -16   1  690.40   67.03   1
   0 -16  -1  802.60   77.46   1
   0 -16  -1  576.20   54.27   1
   0  16   1  665.40   65.10   1
   0  16   1  693.80   65.33   1
   0  16  -1  631.30   59.48   1
   0 -16   2   34.95   3.915   1
   0 -16  -2   63.77   10.30   1
   0 -16  -2   33.08   3.741   1
   0  16   2   50.12   5.375   1
   0  16   2   33.91   10.21   1
   0  16  -2   50.13   10.34   1
   0 -16   3   14.85   8.071   1
   0 -16   3   27.07   3.272   1
   0 -16  -3   16.27   6.635   1
   0 -16  -3   27.17   3.247   1
   0  16   3   25.74   3.339   1
   0  16   3   2.077   8.012   1
   0  16  -3   26.48   3.264   1
   0  16  -3   17.34   8.338   1
   0 -16   4  125.90   14.58   1
   0 -16   4  143.70   17.56   1
   0 -16  -4  123.20   14.18   1
   0 -16  -4  138.60   15.07   1
   0  16   4  130.30   12.66   1
   0  16   4  125.70   15.70   1
   0  16  -4  127.80   12.41   1
   0  16  -4  119.20   15.73   1
   0 -16   5  647.30   63.43   1
   0 -16  -5  722.60   69.05   1
   0 -16  -5  509.90   49.56   1
   0  16   5  556.00   54.28   1
   0  16  -5  686.90   64.67   1
   0  16  -5  536.30   52.68   1
   0 -16   6   62.33   10.56   1
   0 -16  -6   72.14    8.70   1
   0 -16  -6   76.99   11.47   1
   0  16   6   85.46   12.04   1
   0  16   6   64.79    6.64   1
   0  16  -6   73.31   7.445   1
   0  16  -6   64.60   10.96   1
   0 -16   7   10.68   9.243   1
   0 -16   7   19.83   9.787   1
   0 -16  -7   14.50    9.73   1
   0 -16  -7   9.809   4.365   1
   0  16   7   17.85   9.804   1
   0  16   7   12.82   3.187   1
   0  16  -7   9.004   7.999   1
   0  16  -7   14.94   2.436   1
   0 -16   8   49.48   11.17   1
   0 -16   8   60.26   12.84   1
   0  16  -8   65.96   6.758   1
   0  16  -8   50.13   10.04   1
   0 -16   9  139.00   19.94   1
   0 -16   9  108.30   18.19   1
   0  16  -9  105.20   10.43   1
   0  16  -9   99.19   15.02   1
   0 -16  10  165.50   21.54   1
   0 -17   1   3.986   7.588   1
   0 -17   1   12.87   2.255   1
   0 -17  -1   2.113   7.819   1
   0  17   1   13.83   2.481   1
   0  17  -1   14.46   2.472   1
   0  17  -1  -3.111    8.22   1
   0 -17   2   46.61   4.978   1
   0 -17   2   29.11    8.99   1
   0 -17  -2   16.90   8.052   1
   0 -17  -2   45.76   4.871   1
   0  17   2   34.48   4.125   1
   0  17   2   22.14   9.641   1
   0  17  -2   24.16   9.266   1
   0  17  -2   39.51   4.434   1
   0 -17   3  -3.812    7.55   1
   0 -17   3   4.617   5.512   1
   0 -17  -3 -0.2113   5.737   1
   0 -17  -3    3.00   5.806   1
   0  17   3 -0.9824   1.894   1
   0  17   3  -3.667   8.036   1
   0  17  -3 -0.7693   1.654   1
   0  17  -3   2.489   7.507   1
   0 -17   4   15.25   8.739   1
   0 -17   4  -1.025   6.557   1
   0 -17  -4   9.872   5.304   1
   0 -17  -4   3.276   6.818   1
   0  17   4   19.12   2.865   1
   0  17   4   19.48   8.743   1
   0  17  -4   17.70   2.599   1
   0  17  -4   7.104   8.041   1
   0 -17   5   5.435   7.437   1
   0 -17  -5   6.748   7.658   1
   0 -17  -5   4.438   4.391   1
   0  17   5   1.934   1.878   1
   0  17   5  0.6528   7.804   1
   0  17  -5 -0.8838   7.197   1
   0 -17   6 -0.2171   8.847   1
   0 -17   6 -0.1716   7.537   1
   0 -17  -6 -0.0938   4.376   1
   0 -17  -6  -7.282   7.944   1
   0  17   6   6.129   8.028   1
   0  17  -6   6.794   7.596   1
   0  17  -6  0.1863   1.633   1
   0 -17   7   3.939   9.635   1
   0 -17   7   9.104   9.095   1
   0 -17  -7  -1.838   5.048   1
   0 -17  -7  -15.09   10.57   1
   0  17   7   5.575   3.408   1
   0  17   7 -0.4037   10.74   1
   0  17  -7   2.367   1.804   1
   0  17  -7  -2.364   7.831   1
   0 -17   8  0.7506   9.753   1
   0 -17   8  -1.487   10.20   1
   0  17  -8   6.826   7.868   1
   0  17  -8  0.9704   1.775   1
   0 -17   9   2.763   10.82   1
   0  17  -9   2.655   2.164   1
   0 -18   0  412.60   38.98   1
   0  18   0  393.00   39.89   1
   0  18   0  489.70   46.25   1
   0 -18   1  177.40   20.48   1
   0 -18  -1  115.00   11.21   1
   0  18   1  169.00   16.30   1
   0  18   1  151.20   18.85   1
   0  18  -1  147.00   14.24   1
   0  18  -1  144.40   18.04   1
   0 -18   2   23.13   8.621   1
   0 -18   2   16.52   6.257   1
   0 -18  -2   13.40   6.606   1
   0  18   2   11.28   8.863   1
   0  18  -2   8.639   2.046   1
   0  18  -2   10.22   7.941   1
   0 -18   3   50.06   10.44   1
   0 -18  -3   25.98    7.53   1
   0  18   3   34.87    4.15   1
   0  18  -3   42.58   4.703   1
   0 -18   4  211.60   22.73   1
   0 -18   4  267.60   28.92   1
   0 -18  -4  224.70   24.05   1
   0 -18  -4  236.10   24.02   1
   0  18   4  265.10   25.28   1
   0  18   4  187.80   21.14   1
   0  18  -4  252.40   24.05   1
   0  18  -4  202.30   22.32   1
   0 -18   5  438.90   44.56   1
   0 -18   5  347.00   35.04   1
   0 -18  -5  391.80   38.30   1
   0 -18  -5  346.40   35.38   1
   0  18   5  330.90   33.96   1
   0  18   5  401.70   38.05   1
   0  18  -5  386.70   36.61   1
   0  18  -5  305.00   31.35   1
   0 -18   6  380.60   39.39   1
   0 -18   6  274.60   29.23   1
   0 -18  -6  352.00   36.94   1
   0 -18  -6  369.70   36.26   1
   0  18   6  336.80   35.44   1
   0  18   6  328.10   31.22   1
   0  18  -6  259.50   27.95   1
   0  18  -6  332.50   31.55   1
   0 -18   7   31.78   12.05   1
   0 -18   7   10.02   10.42   1
   0 -18  -7   12.21   6.405   1
   0  18   7   12.51   4.308   1
   0  18  -7   15.21   2.638   1
   0  18  -7   9.059   8.787   1
   0 -18   8   8.018   11.11   1
   0  18  -8   11.88   2.504   1
   0 -19   1  -3.191   7.378   1
   0 -19   1  -9.749   8.543   1
   0 -19  -1   7.951   7.945   1
   0 -19  -1  -1.778   7.795   1
   0  19   1   1.328   1.964   1
   0  19   1    5.61   8.936   1
   0  19  -1  -2.918   9.312   1
   0 -19   2    5.59   6.787   1
   0 -19  -2  -10.62    7.02   1
   0 -19  -2   18.23   8.374   1
   0  19   2  -3.597   8.426   1
   0  19   2   2.745   1.927   1
   0  19  -2   7.557   8.374   1
   0 -19   3  -4.387   6.848   1
   0 -19   3   17.35    8.68   1
   0 -19  -3   3.295   8.067   1
   0 -19  -3    5.58   6.474   1
   0  19   3   9.958   7.805   1
   0  19   3   3.391   2.033   1
   0  19  -3   2.547   7.507   1
   0  19  -3   5.422   1.856   1
   0 -19   4   18.25   9.162   1
   0 -19   4   13.57    8.11   1
   0 -19  -4   12.36   8.815   1
   0 -19  -4   8.992    5.74   1
   0  19   4   26.21   8.737   1
   0  19  -4   22.38   3.006   1
   0  19  -4   23.95   8.786   1
   0 -19   5   20.04   9.582   1
   0 -19  -5  -6.489   5.827   1
   0  19   5   4.484   2.243   1
   0  19  -5   3.385   1.878   1
   0 -19   6   2.328   9.483   1
   0 -19   6   2.126   9.233   1
   0 -19  -6  -9.297   12.48   1
   0 -19  -6   4.775   6.227   1
   0  19   6   3.638   2.527   1
   0  19   6   10.18   10.97   1
   0  19  -6   5.974   8.428   1
   0  19  -6   1.558    1.99   1
   0 -19   7  -8.283   11.84   1
   0 -19  -7  -5.387   16.03   1
   0 -19  -7   8.994   7.508   1
   0  19   7  -0.806   14.02   1
   0  19  -7   2.503   2.075   1
   0 -20   0  281.00   28.94   1
   0  20   0  286.50   30.09   1
   0 -20   1  140.90   16.49   1
   0 -20   1  234.00   25.77   1
   0 -20  -1  203.80   22.60   1
   0  20   1  170.80   16.50   1
   0  20  -1  159.70   19.03   1
   0  20  -1  164.80   15.93   1
   0 -20   2   17.19    7.78   1
   0 -20   2   23.84   9.782   1
   0 -20  -2    9.94   8.531   1
   0 -20  -2   20.21    7.73   1
   0  20   2   11.35   8.165   1
   0  20   2   15.27   2.683   1
   0  20  -2   21.43   8.958   1
   0  20  -2   8.653   2.208   1
   0 -20   3   55.17   10.77   1
   0 -20   3   72.16   12.84   1
   0 -20  -3   51.62   11.33   1
   0 -20  -3   59.01   9.906   1
   0  20   3   60.18   11.58   1
   0  20   3   62.04   6.618   1
   0  20  -3   72.04   7.389   1
   0  20  -3   47.59   10.47   1
   0 -20   4  334.80   36.66   1
   0 -20   4  273.80   28.88   1
   0 -20  -4  312.90   31.41   1
   0 -20  -4  291.60   31.28   1
   0  20   4  314.60   30.03   1
   0  20   4  246.50   26.73   1
   0  20  -4  272.00   28.80   1
   0 -20   5  646.50   63.86   1
   0 -20   5  470.10   47.28   1
   0 -20  -5  561.30   54.62   1
   0 -20  -5  571.80   57.89   1
   0  20   5  560.30   56.60   1
   0  20   5  579.70   54.84   1
   0  20  -5  640.70   60.40   1
   0 -20   6  417.80   43.87   1
   0 -20  -6  355.80   40.92   1
   0  20   6  385.90   42.04   1
   0  20   6  374.70   35.82   1
   0  20  -6  366.40   34.79   1
   0 -21   1  -3.095    8.26   1
   0 -21   1   11.45   8.782   1
   0 -21  -1   15.74   9.117   1
   0 -21  -1   7.006   7.397   1
   0  21   1   13.12   2.624   1
   0  21   1   3.549   8.978   1
   0  21  -1   6.052   9.114   1
   0  21  -1   11.85   2.642   1
   0 -21   2   -5.26   8.945   1
   0 -21   2   4.922   9.106   1
   0 -21  -2 -0.6185   9.399   1
   0 -21  -2    7.68   7.795   1
   0  21   2   -1.57   8.702   1
   0  21   2 -0.8316   2.268   1
   0  21  -2  -7.981   8.162   1
   0  21  -2 -0.6608   1.971   1
   0 -21   3   2.904   8.593   1
   0 -21   3  0.4586   9.841   1
   0 -21  -3  -9.848   9.661   1
   0  21   3   8.362   2.617   1
   0  21   3   14.15   8.728   1
   0  21  -3   7.009   2.208   1
   0  21  -3   14.10   8.147   1
   0 -21   4    5.22   9.516   1
   0 -21   4   16.89   9.744   1
   0 -21  -4    0.29   6.631   1
   0  21   4   14.74   3.048   1
   0  21   4    1.39   10.58   1
   0  21  -4   13.62   8.971   1
   0  21  -4   19.05   2.938   1
   0 -21   5  -5.153   10.94   1
   0 -21  -5   2.399   6.788   1
   0 -21  -5 -0.5283   15.46   1
   0  21   5  -2.598   12.24   1
   0  21   5  0.5825   2.492   1
   0 -21  -6  -2.962   8.822   1
   0 -22   0  269.80   29.30   1
   0 -22   0  246.50   27.87   1
   0  22   0  265.50   25.39   1
   0  22   0  226.00   25.52   1
   0 -22   1   66.02   12.63   1
   0 -22   1   97.62   14.63   1
   0 -22  -1   72.35   12.06   1
   0 -22  -1   79.71   15.38   1
   0  22   1   59.81   13.15   1
   0  22   1   73.03   7.656   1
   0  22  -1   68.77   7.281   1
   0  22  -1   67.98   12.51   1
   0 -22   2   11.81   9.781   1
   0 -22  -2   30.24   12.70   1
   0 -22  -2   17.45   8.403   1
   0  22   2   10.31   2.836   1
   0  22   2    6.68   10.49   1
   0  22  -2   5.989   8.921   1
   0  22  -2   12.73   2.672   1
   0 -22   3   11.85   10.59   1
   0 -22  -3   8.133   7.282   1
   0 -22  -3    5.97   12.90   1
   0  22   3    6.03   2.634   1
   0  22   3   1.035   10.18   1
   0  22  -3   9.892    2.43   1
   0 -22  -4  153.60   17.41   1
   0 -22  -4  198.40   27.16   1
   0  22   4  187.70   18.30   1
   0  22   4  165.90   21.97   1
   0 -22  -5  325.20   33.48   1
   0 -22  -5  430.10   47.69   1
   0  22   5  359.00   38.79   1
   0 -23   1   13.42   10.09   1
   0 -23  -1  -4.638   12.23   1
   0 -23  -1   8.016   8.803   1
   0  23   1   4.146   2.411   1
   0  23   1    2.72   9.409   1
   0  23  -1   3.735   2.244   1
   0 -23  -2   5.514   8.625   1
   0 -23  -2  -4.278   13.63   1
   0  23   2   6.009   9.814   1
   0  23   2  0.0283   2.691   1
   0 -23  -3  -5.077   13.67   1
   0  23   3   6.762   11.16   1
   0  23   3   -1.89   3.176   1
   0 -23  -4   7.581   6.313   1
   0  23   4   5.038   3.575   1
   0 -24  -2   13.24   7.813   1
   0  24   2   11.20   3.478   1
   0 -24  -3   6.898   5.982   1
   0 -24  -3   2.382   5.601   1
   0  24   3   6.911   4.019   1
   0  24   3   4.117   6.491   1
   0 -24  -4   26.52   6.347   1
   1   0  -8  0.9959  0.7788   1
   1   0  -8  0.2641   1.751   1
  -1   0   8  0.4496   1.538   1
  -1   0   8  -2.323   1.805   1
   1   0  -7  -1.673   2.317   1
   1   0  -7  -1.355  0.7058   1
  -1   0   7   1.584   1.802   1
  -1   0   7 -0.6285   1.635   1
   1   0  -6 -0.3525  0.6657   1
   1   0  -6  -1.825    2.42   1
  -1   0   6 -0.3367   1.612   1
  -1   0   6  -2.043   1.753   1
   1   0  -5   3.048   2.607   1
   1   0  -5 -0.4567   0.705   1
  -1   0   5    1.06   1.714   1
  -1   0   5  -1.304   1.461   1
   1   0  -4   1.699   3.201   1
   1   0  -4-0.01707  0.6503   1
  -1   0   4   1.476   1.525   1
  -1   0   4-0.01541  0.7826   1
   1   0  -3 -0.3877  0.6333   1
   1   0  -3  -2.955   2.375   1
  -1   0   3   1.136   1.299   1
  -1   0   3 -0.8717  0.7283   1
   1   0  -2 -0.3973  0.7109   1
   1   0  -2  0.2505   1.869   1
  -1   0   2 -0.6974   1.418   1
  -1   0   2 -0.6572  0.7654   1
   1   0  -1 -0.8174  0.6962   1
   1   0  -1 0.00887  0.8043   1
  -1   0   1-0.02108  0.7271   1
  -1   0   1 -0.5912  0.5873   1
   1   0   0  0.1304  0.7129   1
   1   0   0 -0.7192  0.6673   1
  -1   0   0 -0.1473  0.6627   1
  -1   0   0 -0.5731   0.722   1
   1   0   1   1.873   1.568   1
   1   0   1 -0.1903   1.182   1
  -1   0  -1   1.324   1.575   1
  -1   0  -1  -1.623   1.057   1
   1   0   2   2.324   1.546   1
   1   0   2  -4.921   2.934   1
  -1   0  -2 -0.5995   1.618   1
  -1   0  -2 -0.3214   2.101   1
   1   0   3   1.732   2.586   1
   1   0   3 -0.4888   1.326   1
  -1   0  -3  -1.543   1.467   1
  -1   0  -3  -0.526   1.923   1
   1   0   4 -0.6983   1.506   1
   1   0   4    3.64   2.846   1
  -1   0  -4   1.889   2.163   1
  -1   0  -4  -1.572   1.556   1
   1   0   5  -6.032   4.071   1
   1   0   5   1.811   1.897   1
  -1   0  -5   1.099   2.428   1
  -1   0  -5   1.575    1.11   1
   1   0   6  -0.299   4.395   1
   1   0   6  0.0259   2.068   1
  -1   0  -6 -0.4506  0.9346   1
  -1   0  -6  -1.858   2.244   1
   1   0   7 -0.2524   2.013   1
   1   0   7  -2.744   4.671   1
  -1   0  -7  0.3825  0.9597   1
  -1   0  -7 0.06761   1.961   1
   1   0   8  -3.121   2.348   1
   1   0   8  -3.122   4.505   1
  -1   0  -8  0.4609   1.004   1
  -1   0  -8 -0.5667   1.844   1
   1   0   9  -1.095   5.131   1
   1   0   9   2.147   2.617   1
  -1   0  -9  0.1913    1.03   1
  -1   0  -9 -0.5948   1.998   1
  -1  -1   9  571.00   53.87   1
  -1  -1   9  515.50   48.67   1
   1   1  -9  492.50   46.55   1
   1   1  -9  522.00   49.03   1
  -1  -1   8  257.30   24.58   1
  -1  -1   8  239.90   22.94   1
   1   1  -8  253.00   24.44   1
   1   1  -8  214.40   20.22   1
  -1  -1   7  582.60   54.98   1
  -1  -1   7  590.60   55.74   1
   1   1  -7  634.50   60.07   1
   1   1  -7  642.40   60.30   1
   1  -1  -6  208.00   19.55   1
   1  -1  -6  169.80   16.04   1
  -1  -1   6  155.10   14.95   1
  -1  -1   6  192.20   18.64   1
   1   1  -6  199.00   18.77   1
   1   1  -6  162.20   15.96   1
  -1   1   6  204.90   19.30   1
  -1   1   6  181.80   17.13   1
   1  -1  -5 8225.00  770.90   1
   1  -1  -5 9512.00  891.80   1
  -1  -1   5 8049.00  754.40   1
  -1  -1   5 8059.00  755.00   1
   1   1  -5 8029.00  752.10   1
   1   1  -5 7383.00  692.20   1
  -1   1   5 8321.00  780.10   1
  -1   1   5 7717.00  723.40   1
   1  -1  -4 5738.00  537.70   1
   1  -1  -4 5283.00  495.30   1
  -1  -1   4 5484.00  513.80   1
  -1  -1   4 5269.00  493.90   1
   1   1  -4 5466.00  512.70   1
   1   1  -4 5401.00  506.00   1
  -1   1   4 4892.00  458.50   1
  -1   1   4 5755.00  539.40   1
   1  -1  -3 1892.00  177.50   1
   1  -1  -3 2139.00  200.40   1
  -1  -1   3 1976.00  185.30   1
  -1  -1   3 2031.00  190.30   1
   1   1  -3 2041.00  191.30   1
   1   1  -3 1815.00  170.50   1
  -1   1   3 2231.00  209.10   1
  -1   1   3 1957.00  183.40   1
   1  -1  -2 3770.00  353.30   1
   1  -1  -2 4966.00  465.20   1
  -1  -1   2 3875.00  363.00   1
  -1  -1   2 4142.00  388.20   1
   1   1  -2 3948.00  369.90   1
   1   1  -2 5066.00  474.90   1
  -1   1   2 5291.00  495.60   1
  -1   1   2 4144.00  388.20   1
   1  -1  -113660.00 1280.00   1
  -1  -1   111690.00 1095.00   1
  -1  -1   111460.00 1073.00   1
   1   1  -110900.00 1021.00   1
   1   1  -111360.00 1064.00   1
  -1   1   111310.00 1060.00   1
  -1   1   112090.00 1133.00   1
   1  -1   019280.00 1806.00   1
   1  -1   018630.00 1745.00   1
  -1  -1   018250.00 1709.00   1
   1   1   015640.00 1465.00   1
  -1   1   015400.00 1443.00   1
  -1   1   020470.00 1917.00   1
   1  -1   115420.00 1445.00   1
   1  -1   117730.00 1661.00   1
  -1  -1  -113400.00 1255.00   1
  -1  -1  -113210.00 1238.00   1
   1   1   113730.00 1286.00   1
  -1   1  -115150.00 1419.00   1
  -1   1  -117090.00 1601.00   1
   1  -1   2  725.90   68.42   1
   1  -1   2  602.90   56.66   1
  -1  -1  -2  610.70   57.31   1
  -1  -1  -2  795.10   74.59   1
   1   1   2  700.00   65.68   1
   1   1   2  757.30   71.10   1
  -1   1  -2  537.40   50.56   1
   1  -1   3 1582.00  148.40   1
  -1  -1  -3 1682.00  157.80   1
  -1  -1  -3 1248.00  117.10   1
   1   1   3 1808.00  169.70   1
   1   1   3 1587.00  148.80   1
  -1   1  -3 1715.00  161.00   1
  -1   1  -3 1510.00  141.70   1
   1  -1   4  337.80   32.49   1
   1  -1   4  396.30   37.35   1
  -1  -1  -4  315.30   29.74   1
  -1  -1  -4  397.20   37.41   1
  -1   1  -4  404.30   38.40   1
   1  -1   5  798.80   75.93   1
   1  -1   5  599.70   56.42   1
  -1  -1  -5  704.30   66.16   1
   1   1   5  618.20   58.51   1
   1   1   5  721.90   67.80   1
  -1   1  -5  845.00   79.31   1
  -1   1  -5  774.00   72.95   1
   1  -1   6  459.70   44.40   1
   1  -1   6  493.70   46.64   1
  -1  -1  -6  407.60   38.30   1
  -1  -1  -6  399.40   37.61   1
   1   1   6  437.30   41.18   1
   1   1   6  461.50   44.17   1
  -1   1  -6  420.60   39.58   1
   1  -1   7  184.70   19.12   1
  -1  -1  -7  197.30   18.63   1
  -1  -1  -7  195.00   18.48   1
   1   1   7  212.40   21.12   1
   1   1   7  217.60   20.67   1
  -1   1  -7  176.80   16.77   1
   1  -1   8  110.40   12.72   1
   1  -1   8  135.90   13.49   1
  -1  -1  -8  169.80   16.04   1
   1   1   8  123.00   11.99   1
   1   1   8  132.80   13.80   1
  -1   1  -8  156.60   15.32   1
   1  -1   9  121.40   14.03   1
   1  -1   9  128.20   12.76   1
  -1  -1  -9  113.00   10.69   1
  -1  -1  -9  105.40   10.00   1
  -1   1  -9  102.80   10.28   1
   1  -1  10  598.50   56.62   1
   1  -1  10  589.10   56.39   1
  -1   1 -10  652.20   61.49   1
  -1   1 -10  580.80   54.59   1
  -1  -2  10   3.173   3.936   1
  -1  -2  10    4.62   3.379   1
   1   2 -10  -1.264   3.376   1
   1   2 -10 -0.1952   1.158   1
  -1  -2   9   8.006   3.211   1
   1   2  -9   8.947   1.532   1
  -1  -2   8  -2.544   2.802   1
   1   2  -8  0.8214   1.091   1
  -1  -2   7   11.59   3.621   1
   1   2  -7   20.55   2.315   1
  -1  -2   6 -0.7181   2.183   1
  -1  -2   6    1.42   3.916   1
   1   2  -6   11.65   3.892   1
  -1  -2   5  0.5888    1.10   1
  -1  -2   5   2.577   3.858   1
   1   2  -5  -1.425   4.501   1
   1   2  -5   1.081   1.049   1
  -1  -2   4   3.124   1.171   1
  -1  -2   4   6.372   3.616   1
   1   2  -4   2.383   1.096   1
   1   2  -4   4.226   4.262   1
   1  -2  -3   1.282  0.7236   1
  -1  -2   3   5.074   3.485   1
  -1  -2   3   3.118   1.173   1
   1   2  -3-0.04675  0.9988   1
   1   2  -3  -7.522    3.77   1
  -1   2   3   2.915  0.4495   1
   1  -2  -2   87.58   8.667   1
  -1  -2   2   63.93   7.406   1
   1   2  -2   61.04   7.449   1
   1  -2  -1   59.00   5.744   1
  -1   2   1   49.90   4.943   1
   1  -2   0  -1.309   2.215   1
   1  -2   0   2.911   1.334   1
  -1  -2   0   1.844   0.756   1
  -1  -2   0    1.18   1.352   1
   1   2   0   1.854   1.601   1
   1   2   0   1.739  0.7152   1
  -1   2   0   1.012   2.493   1
  -1   2   0  0.6679   1.299   1
   1  -2   1   41.30   5.146   1
  -1  -2  -1   47.62    4.81   1
  -1  -2  -1   61.15    5.87   1
   1   2   1   62.23   6.018   1
   1   2   1   48.40   5.041   1
  -1   2  -1   60.23   6.981   1
  -1  -2  -2   61.33   5.995   1
  -1  -2  -2   77.72   7.444   1
   1   2   2   65.32   6.389   1
   1   2   2   63.35   6.265   1
  -1   2  -2   67.76   7.751   1
   1   2   3  118.80   11.43   1
   1   2   3   91.49   8.794   1
  -1   2  -3  131.50   13.36   1
   1  -2   4    6.17   2.239   1
   1  -2   4   7.774   4.614   1
   1   2   4   20.67   3.565   1
   1   2   4   12.14   1.838   1
  -1   2  -4   20.03   4.607   1
   1  -2   5  -5.133   5.123   1
  -1  -2  -5   1.248   1.498   1
  -1  -2  -5   1.092   1.125   1
   1   2   5   2.472   1.412   1
   1   2   5   1.117   2.599   1
  -1   2  -5  0.1228    1.18   1
   1   2   6   71.89   8.178   1
  -1   2  -6   88.63   9.447   1
   1  -2   7   1.672   5.066   1
   1  -2   7   4.391   2.358   1
  -1  -2  -7   2.904  0.9331   1
  -1  -2  -7   2.408  0.8464   1
   1   2   7   2.845   1.831   1
   1   2   7   5.103   3.571   1
  -1   2  -7   3.947    2.78   1
  -1   2  -7   3.455   1.131   1
   1  -2   8   2.096    2.91   1
   1  -2   8   3.234   5.479   1
  -1  -2  -8   1.635  0.6653   1
  -1  -2  -8   1.471  0.6056   1
  -1   2  -8   2.788   3.012   1
  -1   2  -8   1.488   1.135   1
   1  -2   9  0.7553   3.907   1
   1  -2   9  0.8823   6.537   1
  -1   2  -9   4.818   1.391   1
  -1   2  -9   4.927   3.436   1
   1  -2  10   -2.06    3.87   1
   1  -2  10   1.185   7.132   1
  -1   2 -10  0.7092   2.933   1
  -1   2 -10   1.453   1.235   1
   1  -2  11   1.681   4.747   1
  -1   2 -11   4.334   1.539   1
  -1  -3  11   77.72   9.129   1
   1   3 -11   67.59   6.725   1
  -1  -3  10  621.40   59.08   1
  -1  -3  10  615.30   58.46   1
   1   3 -10  636.60   60.65   1
   1   3 -10  583.70   54.89   1
  -1  -3   9  981.60   92.72   1
  -1  -3   9 1138.00  107.40   1
   1   3  -9 1230.00  116.50   1
   1   3  -9 1116.00  104.70   1
  -1  -3   8  113.90   12.11   1
  -1  -3   8  126.60   12.99   1
   1   3  -8  117.60   11.26   1
   1   3  -8  113.70   12.22   1
  -1  -3   7  146.00   14.50   1
   1   3  -7  144.30   14.81   1
  -1  -3   6   96.62   11.00   1
  -1  -3   6   77.74   7.551   1
   1   3  -6  101.90   9.872   1
   1   3  -6   70.73   8.592   1
  -1  -3   5 1368.00  129.10   1
   1   3  -5 1199.00  112.50   1
  -1  -3   4 9075.00  850.80   1
  -1  -3   4 9427.00  883.20   1
   1   3  -4 8952.00  839.50   1
   1   3  -4 8872.00  831.30   1
   1  -3  -3 2755.00  258.30   1
   1  -3  -3 2979.00  279.20   1
  -1  -3   3 2713.00  254.80   1
  -1  -3   3 2745.00  257.30   1
   1   3  -3 2664.00  250.40   1
   1   3  -3 2590.00  242.80   1
  -1   3   3 2471.00  231.60   1
  -1   3   3 2706.00  253.60   1
   1  -3  -2  487.30   45.98   1
  -1  -3   2  551.90   51.85   1
  -1  -3   2  590.70   56.09   1
   1   3  -2  565.40   53.10   1
   1   3  -2  493.20   47.05   1
  -1   3   2  486.40   45.64   1
   1  -3  -1 1552.00  145.70   1
  -1  -3   1 1648.00  154.50   1
  -1  -3   1 1753.00  164.70   1
   1   3  -1 1902.00  178.80   1
   1   3  -1 1536.00  144.00   1
  -1   3   1 2018.00  189.30   1
   1  -3   0 8268.00  774.80   1
  -1  -3   0 9417.00  882.20   1
  -1  -3   0 8714.00  816.50   1
   1   3   0 9921.00  929.70   1
   1   3   0 8919.00  835.50   1
  -1   3   011410.00 1069.00   1
  -1   3   0 9331.00  874.30   1
   1  -3   130200.00 2829.00   1
   1  -3   135930.00 3366.00   1
  -1  -3  -137500.00 3512.00   1
   1   3   132680.00 3062.00   1
  -1   3  -132810.00 3074.00   1
  -1   3  -136650.00 3434.00   1
   1  -3   2 5516.00  517.30   1
  -1  -3  -2 6676.00  625.40   1
  -1  -3  -2 6008.00  562.90   1
   1   3   2 6133.00  574.80   1
   1   3   2 6666.00  624.50   1
  -1   3  -2 6085.00  570.50   1
  -1   3  -2 5096.00  477.50   1
   1  -3   3  248.00   23.61   1
   1  -3   3  257.90   25.41   1
  -1  -3  -3  211.70   19.92   1
  -1  -3  -3  251.50   23.70   1
   1   3   3  214.90   20.30   1
   1   3   3  258.90   24.50   1
  -1   3  -3  209.40   19.82   1
  -1   3  -3  253.50   24.63   1
   1  -3   4  136.10   14.77   1
  -1  -3  -4  141.50   13.43   1
   1   3   4  108.00   10.54   1
   1   3   4  133.20   12.79   1
   1  -3   5 4135.00  387.70   1
  -1  -3  -5 3726.00  349.20   1
  -1  -3  -5 4461.00  418.00   1
   1   3   5 4203.00  394.10   1
   1   3   5 4625.00  433.60   1
  -1   3  -5 5342.00  501.20   1
   1  -3   6 2655.00  250.00   1
   1  -3   6 2688.00  252.30   1
  -1  -3  -6 2779.00  260.60   1
  -1  -3  -6 2580.00  241.90   1
   1   3   6 2672.00  250.80   1
   1   3   6 2696.00  252.80   1
  -1   3  -6 3269.00  307.10   1
  -1   3  -6 2871.00  269.10   1
   1  -3   7  736.30   70.57   1
   1  -3   7  716.70   67.62   1
  -1  -3  -7  807.00   75.73   1
  -1  -3  -7  728.50   68.38   1
  -1   3  -7  814.90   77.13   1
  -1   3  -7  776.30   72.93   1
   1  -3   8  105.30   10.80   1
   1  -3   8  125.70   14.43   1
  -1   3  -8  127.70   13.02   1
   1  -3   9   47.89   6.269   1
   1  -3   9   42.38   8.589   1
  -1   3  -9   44.24   5.915   1
  -1   3  -9   37.05   3.913   1
   1  -3  10  369.20   37.43   1
   1  -3  10  336.40   32.74   1
  -1   3 -10  265.50   25.13   1
  -1   3 -10  330.60   31.93   1
   1  -3  11  386.30   38.31   1
   1  -3  11  423.60   40.79   1
  -1   3 -11  408.80   39.09   1
  -1   3 -11  427.00   40.30   1
  -1  -4  12  -3.591   5.491   1
   1   4 -12  -7.291   5.422   1
  -1  -4  11   5.019    5.75   1
  -1  -4  11  -2.665   4.749   1
   1   4 -11   1.648    5.00   1
   1   4 -11  0.4286   1.494   1
  -1  -4  10  -3.066   4.534   1
  -1  -4  10  -5.677   5.491   1
   1   4 -10  -1.817   5.368   1
  -1  -4   9   3.552   5.198   1
  -1  -4   9    2.98   4.209   1
   1   4  -9   6.337   1.536   1
   1   4  -9   8.856   5.564   1
  -1  -4   8   3.559   4.499   1
  -1  -4   8  -1.689   3.874   1
   1   4  -8   1.869   1.279   1
   1   4  -8   7.116   4.407   1
  -1  -4   7   5.753   3.419   1
  -1  -4   7   15.31   5.103   1
   1   4  -7   11.12   4.622   1
  -1  -4   6   10.22   4.793   1
   1   4  -6   17.03   2.123   1
   1   4  -6   3.413   4.973   1
  -1  -4   5   1.362   1.447   1
  -1  -4   4   8.548   4.872   1
   1   4  -4   17.40   2.199   1
   1  -4  -3   2.801    1.08   1
   1  -4  -3   5.911   2.649   1
  -1  -4   3   4.049   1.391   1
  -1  -4   3   1.386   4.214   1
   1   4  -3   4.809   1.315   1
   1   4  -3   9.825   5.112   1
  -1   4   3   6.849   2.041   1
  -1   4   3   5.193  0.8889   1
   1  -4  -2   40.00   5.411   1
  -1  -4   2   33.68   5.693   1
   1   4  -2   23.79   5.246   1
  -1   4   2   33.40   4.206   1
   1  -4  -1   60.51   7.334   1
  -1  -4   1   58.79   7.603   1
   1   4  -1   53.73   7.428   1
  -1   4   1   53.83   6.327   1
   1  -4   0  532.70   50.72   1
  -1  -4   0  502.60   47.68   1
   1   4   0  554.50   52.80   1
  -1   4   0  533.50   50.60   1
   1  -4   1 1203.00  113.40   1
  -1  -4  -1 1206.00  113.30   1
   1   4   1 1333.00  125.50   1
  -1   4  -1 1193.00  112.30   1
   1  -4   2   65.45   8.323   1
  -1  -4  -2   62.55   6.314   1
   1   4   2   56.03   6.317   1
  -1   4  -2   62.81   7.396   1
   1  -4   3  129.50   14.16   1
  -1  -4  -3  106.70   10.22   1
   1   4   3  113.00   11.18   1
   1  -4   4    3.67   2.463   1
  -1  -4  -4    9.68   1.723   1
   1   4   4   10.98   2.623   1
  -1   4  -4   16.73   4.514   1
   1  -4   5   7.963   6.008   1
   1  -4   5   4.115   2.841   1
  -1  -4  -5   4.872   1.478   1
   1   4   5   11.79   2.719   1
  -1   4  -5   15.88   4.647   1
   1  -4   6    5.19   3.151   1
   1  -4   6   4.119   5.748   1
  -1  -4  -6   11.79   1.326   1
  -1  -4  -6   4.818    1.51   1
   1   4   6   9.465   2.312   1
   1   4   6   7.409   2.777   1
  -1   4  -6   14.31   2.059   1
  -1   4  -6   7.951   4.654   1
   1  -4   7   6.382   5.926   1
   1  -4   7   1.792   3.208   1
  -1   4  -7   3.082   1.253   1
  -1   4  -7   7.997   4.441   1
   1  -4   8   2.325   6.179   1
   1  -4   8   11.77    3.83   1
  -1   4  -8   15.45   4.513   1
  -1   4  -8   22.19   2.647   1
   1  -4   9   3.124   6.845   1
   1  -4   9   0.972   3.789   1
  -1   4  -9   2.938    1.39   1
  -1   4  -9  -1.984   3.683   1
   1  -4  10   2.279   4.601   1
   1  -4  10  -4.175   7.858   1
  -1   4 -10 -0.4847   4.324   1
  -1   4 -10  0.3426   1.359   1
   1  -4  11  -2.116   6.549   1
   1  -4  11  -1.617   9.611   1
  -1   4 -11   2.785    4.98   1
  -1   4 -11   6.493   2.051   1
  -1  -5  12   42.85   9.152   1
  -1  -5  12   18.73   8.389   1
   1   5 -12   35.56   7.853   1
   1   5 -12   37.51    4.60   1
  -1  -5  11   59.52   8.866   1
  -1  -5  11   60.43   10.05   1
   1   5 -11   61.94   9.308   1
   1   5 -11   63.80   6.516   1
   1   5 -10  398.80   37.67   1
  -1  -5   9  425.80   41.38   1
  -1  -5   9  425.70   41.49   1
   1   5  -9  443.80   41.84   1
   1   5  -9  433.90   42.38   1
  -1  -5   8  353.20   34.83   1
  -1  -5   8  317.00   30.94   1
   1   5  -8  350.00   33.06   1
   1   5  -8  298.10   29.54   1
  -1  -5   7   62.39   7.438   1
  -1  -5   7   94.81   11.43   1
   1   5  -7   67.16   8.741   1
  -1  -5   6  583.20   56.08   1
  -1  -5   6  458.80   43.19   1
   1   5  -6  496.90   46.76   1
   1   5  -6  451.40   43.96   1
  -1  -5   5 4222.00  395.70   1
   1   5  -5 4265.00  400.90   1
   1   5  -5 3786.00  354.80   1
   1  -5  -4  419.70   39.59   1
  -1  -5   4  569.90   53.63   1
  -1  -5   4  430.00   41.71   1
   1   5  -4  509.50   47.94   1
   1   5  -4  448.40   43.85   1
  -1   5   4  456.30   42.90   1
  -1   5   4  523.70   49.12   1
   1  -5  -3  280.60   26.48   1
   1  -5  -3  220.20   21.33   1
  -1  -5   3  211.50   20.10   1
   1   5  -3  225.70   23.03   1
  -1   5   3  199.20   18.78   1
  -1   5   3  239.50   22.90   1
   1  -5  -2 2119.00  198.70   1
   1  -5  -2 1930.00  181.50   1
  -1  -5   2 1928.00  181.50   1
   1   5  -2 1875.00  175.80   1
  -1   5   2 1681.00  157.90   1
  -1   5   2 1910.00  179.00   1
   1  -5  -1  914.40   86.49   1
   1  -5  -1 1020.00   95.77   1
  -1  -5   1 1082.00  102.20   1
  -1  -5   1  863.00   81.03   1
   1   5  -1  920.20   86.37   1
   1   5  -1  824.30   78.20   1
  -1   5   1  865.80   81.26   1
  -1   5   1  814.90   76.88   1
   1  -5   0 2090.00  196.00   1
   1  -5   0 2179.00  205.00   1
  -1  -5   0 2354.00  220.60   1
  -1  -5   0 2123.00  199.50   1
   1   5   0 1907.00  179.40   1
   1   5   0 2379.00  223.00   1
  -1   5   0 2496.00  233.90   1
  -1   5   0 1914.00  179.90   1
   1  -5   1  803.00   76.34   1
  -1  -5  -1  701.00   66.11   1
   1   5   1  794.30   75.20   1
  -1   5  -1  585.60   55.63   1
   1  -5   2 1580.00  149.20   1
   1  -5   2 1726.00  162.00   1
  -1  -5  -2 1655.00  155.40   1
  -1  -5  -2 1399.00  131.20   1
   1   5   2 1686.00  158.60   1
   1   5   2 1376.00  129.00   1
  -1   5  -2 1334.00  125.70   1
  -1   5  -2 1374.00  128.90   1
   1  -5   3  396.80   38.94   1
  -1  -5  -3  321.80   30.30   1
  -1  -5  -3  418.50   39.43   1
   1   5   3  342.40   32.23   1
  -1   5  -3  322.80   31.24   1
   1  -5   4  328.20   32.72   1
  -1  -5  -4  257.30   24.23   1
  -1  -5  -4  327.50   30.83   1
   1   5   4  266.00   25.09   1
  -1   5  -4  232.50   22.08   1
  -1   5  -4  280.30   27.40   1
  -1  -5  -5 2630.00  246.50   1
  -1  -5  -5 2987.00  279.90   1
   1   5   5 2658.00  249.10   1
   1   5   5 2831.00  265.80   1
  -1   5  -5 3385.00  317.30   1
   1  -5   6 4582.00  430.80   1
   1  -5   6 4662.00  437.20   1
  -1  -5  -6 4347.00  407.70   1
  -1  -5  -6 4445.00  416.70   1
   1   5   6 4248.00  398.60   1
   1   5   6 4273.00  401.00   1
  -1   5  -6 5123.00  481.00   1
  -1   5  -6 4872.00  456.70   1
   1  -5   7  562.60   54.77   1
   1  -5   7  621.80   59.09   1
  -1   5  -7  589.70   55.50   1
  -1   5  -7  744.00   71.08   1
   1  -5   8   22.96    7.19   1
   1  -5   8   23.27   5.193   1
  -1   5  -8   12.27   1.895   1
  -1   5  -8   20.64   5.705   1
   1  -5   9   67.30   11.11   1
  -1   5  -9   72.12   7.162   1
   1  -5  10  224.90   22.42   1
   1  -5  10  213.90   24.11   1
  -1   5 -10  206.40   20.72   1
   1  -5  11  147.40   16.76   1
  -1   5 -11  132.70   12.98   1
  -1   5 -11  135.60   14.83   1
  -1  -6  12   -4.74   8.871   1
  -1  -6  12   15.83   7.075   1
   1   6 -12  -1.493   7.283   1
  -1  -6  11  0.5621   8.416   1
   1   6 -11    5.96   7.363   1
   1   6 -11   1.536   1.728   1
  -1  -6   9   27.48   7.134   1
   1   6  -9   41.23   4.428   1
  -1  -6   8   4.243   6.085   1
  -1  -6   8  0.7568   4.706   1
   1   6  -8   18.67   2.486   1
   1   6  -8   10.08   5.536   1
  -1  -6   7   1.025   3.799   1
  -1  -6   7   12.60    6.10   1
   1   6  -7   10.63   5.507   1
   1   6  -7   15.33    2.12   1
  -1  -6   6   -1.19   5.346   1
   1   6  -6   8.191   1.578   1
   1   6  -6   3.824   5.851   1
  -1  -6   5   5.945   5.234   1
  -1  -6   5   5.291   1.459   1
   1   6  -5   12.36   6.816   1
   1   6  -5    5.37   1.417   1
   1  -6  -4   2.217   1.465   1
   1  -6  -4   5.319   2.831   1
  -1  -6   4   10.22   1.966   1
  -1  -6   4    1.34   5.331   1
   1   6  -4   3.536   1.448   1
   1   6  -4   7.805   6.552   1
  -1   6   4   6.582   1.088   1
  -1   6   4   6.289   2.737   1
   1  -6  -3   40.47   5.597   1
  -1  -6   3   37.40   6.762   1
   1   6  -3   41.82   8.272   1
   1  -6  -2   54.92   7.338   1
   1   6  -2   34.67    7.04   1
  -1   6   2   42.07    5.34   1
   1  -6  -1  0.2182   1.832   1
   1  -6  -1   4.538    4.83   1
  -1  -6   1   3.983   1.467   1
  -1  -6   1   9.519   4.713   1
   1   6  -1   2.029   5.063   1
   1   6  -1    7.67   1.549   1
  -1   6   1    4.24   3.799   1
  -1   6   1   10.68   1.749   1
   1  -6   0  -1.411   4.936   1
  -1  -6   0  -1.755    4.16   1
   1   6   0 -0.8917   1.318   1
  -1   6   0   2.042   1.432   1
  -1  -6  -1   11.12   3.473   1
  -1  -6  -1   19.44   2.341   1
   1   6   1   20.85   2.417   1
   1   6   1    8.82   4.393   1
  -1   6  -1   9.531   4.144   1
   1  -6   2   93.91   11.59   1
  -1  -6  -2   75.96   7.831   1
   1   6   2   84.92   9.634   1
  -1   6  -2   78.42   9.144   1
   1  -6   3   4.505   5.927   1
   1  -6   3  -2.345   2.466   1
  -1  -6  -3    7.03    2.39   1
  -1   6  -3   4.131   4.402   1
   1  -6   4   26.52   7.391   1
   1  -6   4   3.317    2.71   1
  -1  -6  -4   6.489   1.635   1
   1   6   4   2.306   3.934   1
  -1   6  -4   9.238   4.452   1
   1  -6   5  -4.622   3.029   1
   1  -6   5    6.34   6.167   1
  -1  -6  -5  0.8586   1.405   1
  -1  -6  -5  0.4978  0.7924   1
   1   6   5  0.7289   3.439   1
   1   6   5   1.523   1.708   1
  -1   6  -5  0.6837   4.108   1
  -1   6  -5   1.809   1.387   1
   1  -6   6   1.082   3.349   1
   1  -6   6   10.64   6.454   1
  -1  -6  -6   2.226   1.617   1
   1   6   6    7.54   2.461   1
   1   6   6  0.7723   3.083   1
  -1   6  -6   9.129   1.717   1
  -1   6  -6   7.246   4.904   1
   1  -6   7   2.588   6.488   1
   1  -6   7   2.982   4.075   1
  -1   6  -7   1.802    1.35   1
  -1   6  -7   4.015   5.368   1
   1  -6   8   1.772   6.318   1
   1  -6   8   0.689   5.218   1
  -1   6  -8   7.608   1.721   1
  -1   6  -8   1.984   5.708   1
   1  -6   9-0.08644   7.528   1
   1  -6   9 -0.6932   5.157   1
  -1   6  -9   2.593   1.448   1
  -1   6  -9  -2.694   4.899   1
   1  -6  10   6.307   5.313   1
   1  -6  10  -2.264    9.46   1
  -1   6 -10   13.99   2.209   1
  -1   6 -10   12.62   5.159   1
   1  -6  11   2.306   7.393   1
   1  -6  11  0.8308   10.69   1
  -1   6 -11   1.624   5.156   1
  -1   6 -11 -0.6031    1.88   1
  -1  -7  12   67.51   11.86   1
  -1  -7  12   67.50   13.43   1
   1   7 -12   75.25   8.012   1
   1   7 -12   58.54   11.16   1
  -1  -7  11   59.32   9.379   1
  -1  -7  11   78.22   13.73   1
   1   7 -11   72.57    7.43   1
   1   7 -11   91.37   13.48   1
  -1  -7  10  423.70   41.90   1
   1   7 -10  490.40   46.26   1
   1   7 -10  519.50   51.13   1
  -1  -7   9  737.20   70.68   1
  -1  -7   9  827.10   79.43   1
   1   7  -9  785.20   73.84   1
   1   7  -9  683.70   65.80   1
  -1  -7   8  451.80   44.40   1
  -1  -7   8  346.30   33.93   1
   1   7  -8  320.50   31.92   1
  -1  -7   7   75.67   10.62   1
   1   7  -7   69.93   6.948   1
   1   7  -7   46.00   8.186   1
  -1  -7   6 1521.00  142.70   1
  -1  -7   6 1578.00  149.30   1
   1   7  -6 1451.00  136.10   1
   1   7  -6 1546.00  146.60   1
   1  -7  -5 1471.00  138.00   1
   1  -7  -5 1488.00  139.60   1
  -1  -7   5 1344.00  127.30   1
  -1  -7   5 1347.00  126.40   1
   1   7  -5 1488.00  141.30   1
   1   7  -5 1351.00  126.70   1
  -1   7   5 1492.00  140.00   1
  -1   7   5 1312.00  123.00   1
   1  -7  -4 5456.00  511.30   1
   1  -7  -4 5755.00  539.70   1
  -1  -7   4 5625.00  527.10   1
  -1  -7   4 5282.00  495.90   1
   1   7  -4 5003.00  468.90   1
   1   7  -4 5721.00  537.40   1
  -1   7   4 5833.00  546.80   1
  -1   7   4 5707.00  534.70   1
   1  -7  -3  370.60   35.75   1
   1  -7  -3  396.60   37.46   1
  -1  -7   3  442.00   42.98   1
  -1  -7   3  415.80   39.24   1
   1   7  -3  420.60   41.49   1
   1   7  -3  384.80   36.30   1
  -1   7   3  379.80   35.73   1
  -1   7   3  349.60   33.44   1
   1  -7  -2  521.80   50.06   1
   1  -7  -2  476.50   44.98   1
  -1  -7   2  628.20   59.12   1
  -1  -7   2  542.30   52.18   1
   1   7  -2  541.30   52.49   1
   1   7  -2  600.30   56.49   1
  -1   7   2  466.20   44.45   1
  -1   7   2  653.30   61.39   1
   1  -7  -1   20.52   5.842   1
  -1  -7   1   15.08   5.171   1
  -1  -7   1   15.29   2.233   1
   1   7  -1   13.19   2.024   1
   1   7  -1   12.29   5.704   1
  -1   7   1   15.21    2.23   1
   1  -7   0  845.30   79.41   1
  -1  -7   0  798.90   75.06   1
   1   7   0  684.60   65.41   1
  -1   7   0  798.20   75.99   1
   1  -7   1 1302.00  122.40   1
   1  -7   1 1291.00  122.40   1
  -1  -7  -1 1103.00  103.60   1
  -1  -7  -1 1186.00  111.90   1
   1   7   1 1101.00  104.30   1
   1   7   1 1074.00  100.80   1
  -1   7  -1  987.40   93.50   1
   1  -7   2 3607.00  339.30   1
   1  -7   2 3569.00  334.70   1
  -1  -7  -2 3390.00  318.00   1
   1   7   2 3507.00  328.60   1
  -1   7  -2 3104.00  291.70   1
  -1   7  -2 3650.00  342.10   1
  -1  -7  -3  167.50   15.90   1
   1   7   3  241.40   23.95   1
   1   7   3  188.10   17.80   1
  -1   7  -3  175.40   16.81   1
  -1   7  -3  210.40   21.19   1
   1  -7   4  189.80   20.68   1
   1  -7   4  160.50   15.84   1
  -1  -7  -4  125.80   11.98   1
  -1  -7  -4  144.50   13.89   1
   1   7   4  150.20   14.28   1
   1   7   4  145.60   15.11   1
  -1   7  -4  131.20   12.66   1
  -1   7  -4  131.10   13.93   1
   1  -7   5 3749.00  352.90   1
   1  -7   5 3387.00  317.80   1
  -1  -7  -5 3988.00  373.80   1
  -1  -7  -5 3855.00  361.40   1
   1   7   5 3602.00  337.50   1
   1   7   5 3737.00  350.80   1
  -1   7  -5 4007.00  375.60   1
  -1   7  -5 3273.00  307.60   1
   1  -7   6 2475.00  233.60   1
   1  -7   6 2400.00  225.50   1
  -1  -7  -6 2676.00  250.90   1
  -1  -7  -6 2725.00  255.40   1
   1   7   6 2598.00  243.60   1
   1   7   6 2810.00  263.90   1
  -1   7  -6 2511.00  236.50   1
  -1   7  -6 2652.00  248.70   1
   1  -7   7 1957.00  185.30   1
   1  -7   7 2244.00  211.00   1
  -1   7  -7 2384.00  224.70   1
   1  -7   8   34.69   7.012   1
   1  -7   8   23.82   8.047   1
  -1   7  -8   28.89   3.318   1
  -1   7  -8   34.06   7.556   1
   1  -7   9  161.80   17.48   1
   1  -7   9  131.90   16.62   1
  -1   7  -9  132.80   12.79   1
  -1   7  -9  157.90   17.43   1
   1  -7  10  312.50   33.53   1
   1  -7  10  266.80   26.83   1
  -1   7 -10  288.10   28.91   1
  -1   7 -10  258.60   24.58   1
   1  -7  11  149.60   20.38   1
   1  -7  11  143.70   16.60   1
  -1   7 -11  142.00   13.85   1
  -1   7 -11  143.80   15.84   1
  -1  -8  12    5.68   8.717   1
   1   8 -12   2.992   2.701   1
  -1  -8  11  -3.863   6.978   1
  -1  -8  11   4.604   11.51   1
   1   8 -11 -0.4283   8.648   1
   1   8 -11   3.702   2.058   1
  -1  -8  10   16.85   6.833   1
   1   8 -10   5.853   7.093   1
   1   8 -10   13.52   2.288   1
  -1  -8   9  -1.088   6.922   1
  -1  -8   9   11.29   7.161   1
   1   8  -9  -4.727   6.165   1
   1   8  -9 -0.1975   1.492   1
  -1  -8   8   2.089   7.017   1
  -1  -8   8   5.901   5.845   1
   1   8  -8   6.706    5.89   1
   1   8  -8   13.95   2.224   1
   1   8  -7   3.298   6.806   1
  -1  -8   6   2.295   5.601   1
   1   8  -6   1.865   1.313   1
   1  -8  -5   1.289   1.801   1
   1  -8  -5  0.3842   1.788   1
  -1  -8   5   3.706   5.905   1
  -1  -8   5   1.128   1.422   1
   1   8  -5  -1.388    7.55   1
   1   8  -5   1.553   1.325   1
  -1   8   5  0.8953  0.8102   1
  -1   8   5   2.331   2.778   1
   1  -8  -4   44.67   5.986   1
  -1  -8   4   46.65   8.224   1
   1   8  -4   50.48   9.412   1
  -1   8   4   45.93   5.585   1
   1  -8  -3  0.1955   4.424   1
   1  -8  -3  0.3358   2.091   1
  -1  -8   3   11.29   5.961   1
  -1  -8   3    8.33    1.83   1
   1   8  -3   8.026   1.738   1
   1   8  -3   6.347   7.054   1
  -1   8   3  0.8164   3.742   1
  -1   8   3   10.70   1.647   1
   1  -8  -2   6.761    5.04   1
  -1  -8   2   5.288   5.588   1
   1   8  -2   12.77   2.064   1
   1   8  -2  -8.021   6.332   1
  -1   8   2   3.542   4.031   1
  -1   8   2   15.49    2.15   1
   1  -8  -1   6.574   6.059   1
   1  -8  -1   17.75   2.284   1
  -1  -8   1   18.71   2.577   1
  -1  -8   1   22.09   6.237   1
   1   8  -1   16.29   2.305   1
   1   8  -1   11.10   6.699   1
  -1   8   1   12.29   4.997   1
   1  -8   0   54.45   8.676   1
  -1  -8   0   52.67   7.728   1
   1   8   0   60.14   9.108   1
  -1   8   0   48.24   7.411   1
   1  -8   1  352.70   35.19   1
  -1  -8  -1  337.40   32.78   1
   1   8   1  336.90   33.28   1
  -1   8  -1  347.90   34.32   1
   1  -8   2   3.574   6.479   1
   1  -8   2   2.597    2.53   1
  -1  -8  -2   2.576   1.351   1
   1   8   2   4.386   5.697   1
  -1   8  -2   1.447   4.723   1
  -1   8  -2   1.273   1.696   1
   1  -8   3    4.73   6.649   1
   1  -8   3   1.692   2.848   1
  -1  -8  -3  0.2915   2.158   1
   1   8   3   6.574   1.315   1
  -1   8  -3   1.654   4.748   1
  -1   8  -3   7.488   1.863   1
   1  -8   4   2.453   2.984   1
   1  -8   4   7.236   6.439   1
  -1  -8  -4  -1.235   1.948   1
  -1  -8  -4 -0.2273   1.061   1
   1   8   4   5.663    4.78   1
   1   8   4 -0.1283    1.08   1
  -1   8  -4  -3.786   4.365   1
  -1   8  -4   1.377   1.474   1
   1  -8   5   17.36   7.061   1
  -1  -8  -5   13.75   1.758   1
  -1  -8  -5   9.094   1.999   1
   1   8   5   10.67   1.891   1
   1   8   5   1.206   4.665   1
  -1   8  -5   14.58   2.167   1
  -1   8  -5   3.963   4.979   1
   1  -8   6  -1.051   4.002   1
  -1  -8  -6   1.811   1.997   1
  -1  -8  -6   4.819   1.021   1
   1   8   6   3.928   4.739   1
   1   8   6   4.114   2.016   1
  -1   8  -6   3.811   5.185   1
   1  -8   7   20.81   8.033   1
   1  -8   7   6.738   5.103   1
  -1   8  -7   20.94   6.564   1
  -1   8  -7   19.94   2.556   1
   1  -8   8  -1.184   7.815   1
   1  -8   8   1.811   6.162   1
  -1   8  -8   3.564    1.46   1
  -1   8  -8   -3.39   6.432   1
   1  -8   9   8.256   8.038   1
   1  -8   9   -4.68   6.638   1
  -1   8  -9   1.499    1.44   1
  -1   8  -9  -5.153   6.479   1
   1  -8  10   3.966   6.485   1
   1  -8  10  -16.70   10.04   1
  -1   8 -10   4.207   6.286   1
  -1   8 -10   4.284   1.694   1
   1  -8  11  -9.862   7.873   1
  -1   8 -11   1.772   2.015   1
  -1   8 -11   3.299   6.539   1
  -1  -9  12   14.71   13.77   1
  -1  -9  12   29.81   9.674   1
   1   9 -12   17.30   3.887   1
   1   9 -12   16.49   11.24   1
  -1  -9  11   79.70   16.29   1
   1   9 -11   64.98   6.856   1
   1   9 -11   87.21   14.51   1
   1   9 -10  432.90   40.92   1
  -1  -9   9  414.90   41.56   1
  -1  -9   9  385.60   38.42   1
   1   9  -9  377.70   35.72   1
   1   9  -9  339.10   34.06   1
  -1  -9   8  150.60   17.78   1
  -1  -9   8  125.00   14.40   1
   1   9  -8  151.50   14.56   1
   1   9  -8  120.60   14.40   1
  -1  -9   7   29.06   7.854   1
   1   9  -7   31.46   8.389   1
   1   9  -7   23.61   2.895   1
   1  -9  -6  309.20   29.16   1
   1  -9  -6  280.30   26.44   1
  -1  -9   6  249.10   23.66   1
   1   9  -6  236.30   22.46   1
   1   9  -6  282.90   29.43   1
  -1   9   6  263.60   24.90   1
  -1   9   6  304.80   28.67   1
   1  -9  -5 3977.00  372.80   1
   1  -9  -5 3403.00  319.20   1
  -1  -9   5 3654.00  343.90   1
   1   9  -5 3568.00  334.40   1
  -1   9   5 3749.00  351.30   1
  -1   9   5 4708.00  441.50   1
   1  -9  -4 1277.00  120.50   1
  -1  -9   4 1184.00  112.50   1
  -1  -9   4 1258.00  118.10   1
   1   9  -4 1244.00  116.80   1
   1   9  -4 1184.00  113.10   1
  -1   9   4 1233.00  115.70   1
   1  -9  -3  138.70   13.60   1
  -1  -9   3  113.50   13.35   1
  -1  -9   3   95.86   9.396   1
   1   9  -3  119.60   14.85   1
   1   9  -3  109.60   10.64   1
  -1   9   3  101.80   10.92   1
   1  -9  -2  150.30   16.02   1
  -1  -9   2  221.20   21.07   1
  -1  -9   2  184.80   19.67   1
   1   9  -2  175.20   19.50   1
   1   9  -2  202.30   19.27   1
  -1   9   2  213.20   20.23   1
  -1   9   2  159.10   16.39   1
   1  -9  -1   45.74   7.766   1
  -1  -9   1   31.05   3.583   1
   1   9  -1   33.97   3.744   1
   1   9  -1   43.15   8.641   1
  -1   9   1   48.88   7.406   1
  -1   9   1   28.47   3.282   1
   1  -9   0 3838.00  360.90   1
   1  -9   0 3450.00  323.40   1
  -1  -9   0 4071.00  381.50   1
  -1  -9   0 4365.00  410.00   1
   1   9   0 3946.00  369.90   1
   1   9   0 3652.00  343.60   1
  -1   9   0 3161.00  297.20   1
  -1   9   0 4100.00  384.30   1
   1  -9   1 6911.00  647.60   1
   1  -9   1 8267.00  776.00   1
  -1  -9  -1 8270.00  775.50   1
  -1  -9  -1 7892.00  739.40   1
   1   9   1 8040.00  754.50   1
   1   9   1 7671.00  718.70   1
  -1   9  -1 7906.00  740.80   1
  -1   9  -1 8074.00  757.60   1
   1  -9   2 1991.00  188.30   1
   1  -9   2 2090.00  196.40   1
  -1  -9  -2 1820.00  170.80   1
  -1  -9  -2 2029.00  190.80   1
   1   9   2 1847.00  173.20   1
   1   9   2 2030.00  191.50   1
  -1   9  -2 1851.00  173.70   1
  -1   9  -2 1729.00  163.20   1
   1  -9   3  157.60   17.88   1
  -1  -9  -3  182.40   17.34   1
  -1  -9  -3  129.70   12.91   1
   1   9   3  174.70   16.60   1
   1   9   3  150.10   16.41   1
  -1   9  -3  119.00   13.14   1
   1  -9   4  986.60   94.48   1
  -1  -9  -4  885.00   83.10   1
   1   9   4  928.20   88.34   1
   1   9   4  820.40   77.04   1
  -1   9  -4  906.20   85.17   1
   1  -9   5 2615.00  245.80   1
  -1  -9  -5 2978.00  279.30   1
   1   9   5 3303.00  309.60   1
  -1   9  -5 2415.00  227.40   1
   1  -9   6 4149.00  389.50   1
   1  -9   6 4015.00  378.00   1
  -1  -9  -6 4859.00  455.50   1
  -1  -9  -6 4159.00  389.70   1
   1   9   6 4104.00  384.70   1
   1   9   6 4771.00  447.90   1
  -1   9  -6 3940.00  369.30   1
  -1   9  -6 3843.00  361.20   1
   1  -9   7   8.989   7.476   1
   1  -9   7   15.03   6.005   1
  -1   9  -7   18.58   6.554   1
  -1   9  -7   14.42   2.124   1
   1  -9   8  187.60   21.65   1
   1  -9   8  258.20   26.29   1
  -1   9  -8  279.90   28.89   1
  -1   9  -8  211.30   20.14   1
   1  -9   9  256.00   27.82   1
  -1   9  -9  244.30   23.23   1
   1  -9  10  196.50   24.70   1
   1  -9  10  224.10   23.71   1
  -1   9 -10  281.00   29.14   1
  -1   9 -10  225.80   21.55   1
   1  -9  11  174.70   23.58   1
   1  -9  11  171.20   19.88   1
  -1   9 -11  138.70   16.82   1
  -1   9 -11  140.90   13.80   1
  -1 -10  12   3.354   8.477   1
   1  10 -12  0.7545   2.838   1
  -1 -10  11   9.514   8.156   1
  -1 -10  11   8.264   14.37   1
   1  10 -11   2.937   2.101   1
   1  10 -11  -4.086   10.80   1
   1  10 -10   34.78   4.064   1
  -1 -10   9 -0.1006   7.795   1
   1  10  -9  0.2954   1.624   1
  -1 -10   8  -3.467   7.808   1
  -1 -10   8    3.12   6.593   1
   1  10  -8  -6.795   6.985   1
   1  10  -8  -2.261   1.544   1
  -1 -10   7  -3.464   7.089   1
   1  10  -7   1.657    7.16   1
   1  10  -7  0.8368   1.439   1
   1 -10  -6   13.54   2.551   1
  -1 -10   6   24.71   3.047   1
  -1 -10   6   8.948   7.089   1
   1  10  -6   18.64   8.139   1
   1  10  -6   21.38   2.707   1
  -1  10   6   15.95   3.332   1
  -1  10   6   16.45   1.896   1
  -1 -10   5   15.16   6.694   1
   1  10  -5   21.86   8.505   1
   1  10  -5   30.73   3.459   1
  -1  10   5   35.05   3.597   1
  -1  10   5   23.67   4.619   1
   1 -10  -4   3.123   2.396   1
  -1 -10   4   4.202   1.546   1
  -1 -10   4  -2.625   5.812   1
   1  10  -4   9.621   7.918   1
   1  10  -4   3.285    1.50   1
  -1  10   4   4.191   3.651   1
  -1 -10   3   38.60   4.222   1
  -1 -10   3   24.67   7.013   1
   1  10  -3   31.83    3.57   1
   1  10  -3   11.46   7.335   1
  -1  10   3   33.10   3.536   1
   1 -10  -2   5.399   5.199   1
   1 -10  -2   2.353   2.456   1
  -1 -10   2   12.91   2.111   1
  -1 -10   2    1.00   5.676   1
   1  10  -2   6.835   1.658   1
   1  10  -2  0.7458   7.444   1
   1 -10  -1   1.488    5.68   1
   1 -10  -1   4.784   1.443   1
  -1 -10   1   4.643   1.678   1
  -1 -10   1   11.16   5.772   1
   1  10  -1  -1.273   6.852   1
   1  10  -1   2.771   1.421   1
  -1  10   1   3.666   1.456   1
  -1  10   1    9.79   5.459   1
   1 -10   0   64.56   6.459   1
  -1 -10   0   67.19   6.778   1
  -1 -10   0   40.55    7.32   1
   1  10   0   40.34   8.647   1
   1  10   0   60.64   6.145   1
  -1  10   0   43.85   7.503   1
  -1  10   0   68.07   6.853   1
   1 -10   1   25.79   3.054   1
   1 -10   1   25.60   7.643   1
  -1 -10  -1   32.45   3.633   1
  -1 -10  -1   9.642   5.143   1
   1  10   1   10.45   6.763   1
   1  10   1   26.80   3.095   1
  -1  10  -1   32.16   3.674   1
  -1  10  -1   20.38   7.159   1
   1 -10   2   -0.72   3.077   1
   1 -10   2   12.84   7.019   1
  -1 -10  -2   4.763   3.926   1
   1  10   2   1.713   1.428   1
  -1  10  -2   6.238    1.70   1
  -1  10  -2   3.709    4.78   1
  -1 -10  -3   47.18   4.861   1
   1  10   3   39.56   4.099   1
   1  10   3   23.07   6.767   1
  -1  10  -3   50.46   5.261   1
   1 -10   4   4.602   3.629   1
  -1 -10  -4   1.091   2.612   1
  -1 -10  -4   3.146   1.291   1
   1  10   4  -4.846   6.456   1
   1  10   4   2.355   1.203   1
  -1  10  -4    1.21   4.997   1
   1 -10   5   27.22   7.841   1
   1  10   5   26.27   7.579   1
  -1  10  -5   24.81   6.453   1
   1 -10   6   11.32   7.291   1
   1 -10   6  -2.163   4.629   1
  -1 -10  -6   6.548   2.289   1
  -1 -10  -6   5.171   1.263   1
   1  10   6   2.246   1.794   1
   1  10   6   8.302   6.371   1
  -1  10  -6  -1.832   5.257   1
  -1  10  -6   4.685   1.476   1
   1 -10   7   0.263   5.851   1
   1 -10   7  -3.642   6.949   1
  -1 -10  -7  -3.367   3.143   1
  -1 -10  -7  0.3177   2.103   1
   1  10   7  -2.428   2.035   1
   1  10   7 -0.4071   2.881   1
  -1  10  -7   17.03   6.474   1
  -1  10  -7 -0.2264   1.415   1
   1 -10   8   12.99   8.722   1
  -1  10  -8   3.862   1.526   1
   1 -10   9   1.926   7.272   1
   1 -10   9  -4.664   9.243   1
  -1  10  -9   6.008   1.691   1
  -1  10  -9   24.26   8.231   1
   1 -10  10   25.52   11.66   1
   1 -10  10   2.046   8.291   1
  -1  10 -10   14.84   2.401   1
  -1  10 -10  0.9887   7.548   1
   1 -10  11  -13.90   13.80   1
   1 -10  11  -4.926   9.301   1
  -1  10 -11   4.012   2.093   1
  -1 -11  11  189.00   21.85   1
   1  11 -11  206.60   19.86   1
  -1 -11  10  156.50   19.22   1
  -1 -11  10  164.30   20.54   1
   1  11 -10  156.70   18.98   1
  -1 -11   9  192.70   21.34   1
  -1 -11   9  201.80   22.88   1
   1  11  -9  204.40   19.55   1
   1  11  -9  171.50   19.28   1
  -1 -11   8  191.20   20.87   1
  -1 -11   8  271.80   28.89   1
   1  11  -8  182.20   20.15   1
   1  11  -8  225.60   21.49   1
  -1 -11   7  -11.39   5.459   1
  -1 -11   7   8.473   7.811   1
   1  11  -7 -0.6489   1.513   1
   1  11  -7-0.09797   7.532   1
   1 -11  -6 1324.00  124.50   1
   1 -11  -6 1549.00  145.50   1
  -1 -11   6 1124.00  105.60   1
  -1 -11   6 1311.00  124.80   1
   1  11  -6 1180.00  112.90   1
   1  11  -6 1138.00  106.80   1
  -1  11   6 1659.00  156.10   1
  -1  11   6 1276.00  119.70   1
   1 -11  -5  654.30   61.86   1
  -1 -11   5  671.30   63.17   1
  -1 -11   5  695.50   67.30   1
   1  11  -5  702.20   68.60   1
   1  11  -5  630.10   59.32   1
  -1  11   5  643.90   61.25   1
   1 -11  -4 1599.00  150.30   1
   1 -11  -4 1814.00  171.10   1
  -1 -11   4 1599.00  151.60   1
  -1 -11   4 1414.00  132.70   1
   1  11  -4 1483.00  139.20   1
   1  11  -4 1691.00  160.70   1
  -1  11   4 1525.00  143.00   1
  -1  11   4 1381.00  130.30   1
   1 -11  -3  331.20   31.68   1
   1 -11  -3  364.90   35.90   1
  -1 -11   3  308.80   29.25   1
   1  11  -3  357.40   36.33   1
  -1  11   3  330.10   31.17   1
  -1  11   3  282.60   27.77   1
   1 -11  -2   8.309   5.689   1
   1 -11  -2   4.963   3.002   1
  -1 -11   2   2.057   5.725   1
   1  11  -2 -0.6543   1.436   1
  -1  11   2   10.86   5.057   1
  -1  11   2  0.1629    1.34   1
   1 -11  -1 3253.00  305.00   1
   1 -11  -1 2909.00  274.00   1
  -1 -11   1 3209.00  300.90   1
  -1 -11   1 3223.00  303.40   1
   1  11  -1 2970.00  280.10   1
   1  11  -1 2985.00  279.90   1
  -1  11   1 3086.00  289.30   1
  -1  11   1 2944.00  277.20   1
   1 -11   0 4100.00  385.70   1
   1 -11   0 3765.00  353.00   1
  -1 -11   0 4289.00  402.00   1
  -1 -11   0 4689.00  440.60   1
   1  11   0 4188.00  394.20   1
   1  11   0 4151.00  389.10   1
  -1  11   0 3706.00  348.60   1
  -1  11   0 4128.00  386.90   1
   1 -11   1 1539.00  146.00   1
   1 -11   1 1555.00  146.40   1
  -1 -11  -1 1495.00  140.30   1
  -1 -11  -1 1684.00  159.00   1
   1  11   1 1565.00  148.50   1
   1  11   1 1446.00  135.70   1
  -1  11  -1 1402.00  132.80   1
  -1  11  -1 1360.00  127.70   1
   1 -11   2  431.20   42.81   1
   1 -11   2  454.70   43.43   1
  -1 -11  -2  439.80   42.25   1
  -1 -11  -2  366.10   34.58   1
   1  11   2  435.30   43.04   1
   1  11   2  411.10   38.77   1
  -1  11  -2  359.00   35.37   1
  -1  11  -2  363.30   34.37   1
   1 -11   3  108.40   13.70   1
  -1 -11  -3   80.86   8.761   1
  -1 -11  -3  122.00   11.77   1
   1  11   3   90.55   12.45   1
   1  11   3  114.50   11.03   1
  -1  11  -3   88.48   10.70   1
  -1  11  -3  117.50   11.43   1
   1 -11   4  807.70   77.92   1
   1 -11   4  793.10   75.22   1
  -1 -11  -4  803.60   75.86   1
  -1 -11  -4  794.70   74.67   1
   1  11   4  882.20   84.55   1
   1  11   4  772.40   72.55   1
  -1  11  -4  728.30   69.76   1
  -1  11  -4  766.40   72.09   1
   1 -11   5 1271.00  121.30   1
   1 -11   5 1262.00  119.20   1
  -1 -11  -5 1302.00  122.20   1
  -1 -11  -5 1432.00  134.60   1
   1  11   5 1285.00  120.50   1
   1  11   5 1414.00  134.20   1
  -1  11  -5 1123.00  106.60   1
  -1  11  -5 1219.00  114.40   1
   1 -11   6   7.066   7.439   1
   1 -11   6   7.018    5.19   1
  -1 -11  -6   6.325   2.555   1
  -1 -11  -6   9.313   1.579   1
   1  11   6   18.74   7.008   1
   1  11   6   10.22   2.244   1
  -1  11  -6   10.27    1.84   1
  -1  11  -6  -2.632   5.544   1
   1 -11   7  102.10   14.46   1
  -1 -11  -7  122.00   12.74   1
  -1 -11  -7  140.50   13.73   1
   1  11   7  110.70   11.86   1
   1  11   7  148.10   14.38   1
  -1  11  -7  123.60   11.98   1
   1 -11   8   16.04   7.605   1
   1 -11   8   16.54   8.825   1
  -1  11  -8   17.03   2.362   1
  -1  11  -8   26.64   8.168   1
   1 -11   9  150.10   19.15   1
   1 -11   9  173.00   19.44   1
  -1  11  -9  138.40   13.37   1
  -1  11  -9  211.20   23.26   1
   1 -11  10  234.40   25.49   1
   1 -11  10  266.20   30.38   1
  -1  11 -10  294.30   31.18   1
  -1  11 -10  234.10   22.35   1
   1 -11  11  110.10   18.70   1
   1 -11  11   93.19   14.84   1
  -1  11 -11  127.60   17.12   1
  -1  11 -11  108.50   10.81   1
  -1 -12  11  -18.17   15.67   1
  -1 -12  11   2.593   8.681   1
   1  12 -11   16.72   2.789   1
   1  12 -11   10.33   11.82   1
  -1 -12  10   6.039   8.416   1
   1  12 -10  -1.078   1.796   1
  -1 -12   9   3.279   8.016   1
  -1 -12   9  -3.262    8.65   1
   1  12  -9   4.329   6.914   1
   1  12  -9 -0.9586   1.592   1
  -1 -12   8  -2.665   7.707   1
  -1 -12   8    1.38   7.416   1
   1  12  -8  0.8322   1.609   1
   1  12  -8   5.101   7.381   1
   1 -12  -7 -0.4373   1.669   1
   1 -12  -7   2.514   2.173   1
  -1 -12   7  -5.227   7.833   1
  -1 -12   7   4.897   6.187   1
   1  12  -7   1.637   1.617   1
   1  12  -7  -8.175   7.557   1
   1 -12  -6   5.517   2.898   1
  -1 -12   6   16.71   2.475   1
  -1 -12   6   10.75   7.549   1
   1  12  -6   10.54    8.64   1
  -1  12   6   11.81   1.782   1
   1 -12  -5  -2.086   3.444   1
   1 -12  -5  -3.147   3.987   1
  -1 -12   5 -0.6607   7.402   1
  -1 -12   5   3.434   1.813   1
   1  12  -5  -6.955   9.452   1
   1  12  -5   2.948   1.639   1
  -1  12   5  -10.40   4.605   1
  -1  12   5  0.5653    1.32   1
   1 -12  -4  0.2226   5.379   1
   1 -12  -4 -0.3395    3.41   1
  -1 -12   4  -5.729   6.133   1
  -1 -12   4   3.978   1.941   1
   1  12  -4    3.76    9.56   1
   1  12  -4   2.606   1.599   1
  -1  12   4  -2.113    4.45   1
  -1  12   4   3.749   1.503   1
   1 -12  -3  -6.588   5.179   1
   1 -12  -3   5.535   3.509   1
  -1 -12   3   5.897   6.181   1
  -1 -12   3 0.08253   1.859   1
   1  12  -3   17.80   8.993   1
   1  12  -3 -0.4105   1.442   1
  -1  12   3   1.885    1.43   1
  -1  12   3  -1.204   4.636   1
   1 -12  -2  -1.637   5.501   1
   1 -12  -2  0.3318   3.064   1
  -1 -12   2   5.088   1.631   1
  -1 -12   2   4.329   5.785   1
   1  12  -2   4.479   1.616   1
   1  12  -2  -3.222   6.854   1
  -1  12   2   1.322   4.838   1
  -1  12   2   1.229   1.417   1
   1 -12  -1  -5.431   5.746   1
   1 -12  -1  -1.562   2.658   1
  -1 -12   1   2.346   1.471   1
  -1 -12   1   2.037   5.856   1
   1  12  -1  -1.834    7.13   1
   1  12  -1  0.2163   1.496   1
  -1  12   1   2.973   1.496   1
  -1  12   1   1.741   5.074   1
   1 -12   0  170.70   18.73   1
  -1 -12   0  177.50   19.14   1
   1 -12   1   4.991   3.192   1
  -1 -12  -1   5.317   5.116   1
  -1 -12  -1 -0.3401    1.37   1
   1  12   1  -5.394   6.667   1
   1  12   1 0.04804   1.396   1
  -1  12  -1  0.2143   5.112   1
   1 -12   2  -1.223   3.574   1
   1 -12   2   3.702    6.82   1
  -1 -12  -2  0.5849   1.597   1
  -1 -12  -2   1.465   4.107   1
   1  12   2   1.459   1.404   1
   1  12   2   5.214    8.00   1
  -1  12  -2  0.8699   1.401   1
  -1  12  -2  -3.336   5.199   1
   1 -12   3  -8.419   6.696   1
   1 -12   3  0.8018   3.822   1
  -1 -12  -3   2.834   3.284   1
  -1 -12  -3   1.722   1.558   1
   1  12   3   2.473   7.447   1
   1  12   3   3.495   1.525   1
  -1  12  -3    1.42   1.458   1
  -1  12  -3  -1.387   5.962   1
   1 -12   4   3.584   7.342   1
   1 -12   4   2.372   4.409   1
  -1 -12  -4   8.061   1.799   1
  -1 -12  -4  0.9441   3.128   1
   1  12   4  -7.965   8.407   1
   1  12   4   4.235   1.427   1
  -1  12  -4   7.118   1.764   1
  -1  12  -4   6.536   5.688   1
   1 -12   5   1.096   5.264   1
   1 -12   5   7.823    7.32   1
  -1 -12  -5   8.289   3.269   1
  -1 -12  -5   19.83   2.583   1
   1  12   5   14.01   2.095   1
   1  12   5   17.72   8.731   1
  -1  12  -5   4.473   6.028   1
  -1  12  -5   14.94   2.236   1
   1 -12   6   4.188   7.349   1
  -1 -12  -6  -2.857   2.814   1
  -1 -12  -6   1.173   1.396   1
   1  12   6  -1.252   2.006   1
   1  12   6   1.938   7.164   1
  -1  12  -6   1.618   1.478   1
   1 -12   7  -6.313   7.821   1
   1 -12   7   7.965   6.509   1
   1  12   7  0.9879   5.217   1
   1  12   7  -1.645   2.327   1
  -1  12  -7  0.1264   1.451   1
  -1  12  -7   13.71   6.788   1
   1 -12   8   9.656   7.786   1
   1 -12   8  -6.479   8.051   1
  -1  12  -8   6.439    7.37   1
  -1  12  -8   2.439   1.534   1
   1 -12   9  -12.10   8.763   1
   1 -12   9   5.564   8.643   1
  -1  12  -9   7.027    8.51   1
  -1  12  -9   8.193   1.896   1
   1 -12  10    3.46   10.65   1
   1 -12  10   7.606   9.862   1
  -1  12 -10   7.083   9.129   1
  -1  12 -10  -3.218   1.662   1
   1 -12  11   24.26   12.59   1
   1 -12  11   9.145   10.47   1
  -1  12 -11   22.28   3.188   1
  -1  12 -11   29.85   10.26   1
  -1 -13  11   5.873   8.868   1
  -1 -13  11   12.03   14.93   1
   1  13 -11   2.495    2.05   1
  -1 -13  10  149.90   20.59   1
  -1 -13  10  185.20   21.85   1
   1  13 -10  156.70   19.83   1
   1  13 -10  152.70   14.82   1
  -1 -13   9  204.70   23.38   1
   1  13  -9  188.70   18.11   1
  -1 -13   8  420.90   42.49   1
  -1 -13   8  312.10   31.93   1
   1  13  -8  384.60   36.39   1
   1  13  -8  296.90   30.66   1
   1 -13  -7  282.10   26.96   1
   1 -13  -7  316.90   30.09   1
  -1 -13   7  332.00   34.52   1
   1  13  -7  336.80   31.90   1
   1  13  -7  249.00   26.66   1
  -1  13   7  383.60   36.17   1
  -1  13   7  313.60   29.92   1
   1 -13  -6   2.581    4.77   1
   1 -13  -6   1.529   3.208   1
  -1 -13   6   6.244   1.834   1
  -1 -13   6  -9.005   7.522   1
  -1  13   6   5.295   1.536   1
  -1  13   6   11.39   6.182   1
   1 -13  -5 2238.00  210.40   1
   1 -13  -5 2369.00  222.90   1
  -1 -13   5 2348.00  220.20   1
  -1 -13   5 2564.00  242.20   1
   1  13  -5 2536.00  240.00   1
   1  13  -5 2193.00  205.80   1
  -1  13   5 2453.00  230.00   1
  -1  13   5 2396.00  225.50   1
   1 -13  -4 2291.00  216.10   1
   1 -13  -4 1781.00  167.60   1
  -1 -13   4 2138.00  202.20   1
  -1 -13   4 2188.00  205.20   1
   1  13  -4 1976.00  185.40   1
   1  13  -4 2194.00  208.10   1
  -1  13   4 2118.00  198.70   1
  -1  13   4 1681.00  158.60   1
   1 -13  -3  826.30   79.19   1
   1 -13  -3  797.20   75.50   1
  -1 -13   3  755.40   71.08   1
  -1 -13   3  932.90   89.49   1
   1  13  -3  843.30   81.86   1
   1  13  -3  804.70   75.69   1
  -1  13   3  768.60   72.27   1
  -1  13   3  691.90   66.14   1
   1 -13  -2  0.1512   3.613   1
   1 -13  -2   8.281   5.881   1
  -1 -13   2   13.99   6.648   1
  -1 -13   2   18.87   2.768   1
   1  13  -2   14.34   2.241   1
   1  13  -2   13.62    8.68   1
  -1  13   2   14.74   2.214   1
  -1  13   2   2.865   5.521   1
   1 -13  -1 1343.00  126.60   1
   1 -13  -1 1367.00  129.80   1
  -1 -13   1 1752.00  166.00   1
  -1 -13   1 1606.00  150.70   1
   1  13  -1 1551.00  147.70   1
   1  13  -1 1603.00  150.40   1
  -1  13   1 1525.00  143.20   1
  -1  13   1 1278.00  121.10   1
   1 -13   0 3881.00  364.30   1
   1 -13   0 3946.00  371.30   1
  -1 -13   0 4977.00  467.90   1
  -1 -13   0 4077.00  382.10   1
   1  13   0 4389.00  413.20   1
  -1  13   0 3549.00  333.80   1
   1 -13   1 2250.00  212.60   1
   1 -13   1 2418.00  227.30   1
  -1 -13  -1 2289.00  214.60   1
  -1 -13  -1 2438.00  229.80   1
   1  13   1 2757.00  260.70   1
  -1  13  -1 2043.00  192.80   1
  -1  13  -1 2161.00  202.60   1
   1 -13   2  473.80   45.42   1
   1 -13   2  498.90   49.16   1
  -1 -13  -2  509.00   48.94   1
   1  13   2  515.90   48.62   1
  -1  13  -2  422.00   41.37   1
  -1  13  -2  482.60   45.54   1
   1 -13   3   14.50   4.961   1
   1 -13   3   26.46   8.502   1
  -1 -13  -3   13.61   4.254   1
  -1 -13  -3   17.41   2.499   1
   1  13   3   22.06    8.64   1
   1  13   3   18.68   2.526   1
  -1  13  -3   16.01   6.146   1
  -1  13  -3   18.91   2.569   1
   1 -13   4   50.26   7.756   1
   1 -13   4   37.45   8.824   1
  -1 -13  -4   31.95   4.997   1
  -1 -13  -4   25.63   3.142   1
   1  13   4   33.56   3.723   1
   1  13   4   50.58   11.43   1
  -1  13  -4   33.52   7.617   1
  -1  13  -4   30.45   3.465   1
   1 -13   5  124.60   15.80   1
  -1 -13  -5  196.40   18.71   1
  -1 -13  -5  150.70   15.16   1
   1  13   5  154.60   14.82   1
   1  13   5  128.60   16.46   1
  -1  13  -5  160.50   15.43   1
   1 -13   6  830.80   79.35   1
   1 -13   6  788.30   76.60   1
  -1 -13  -6  900.50   84.93   1
  -1 -13  -6  707.60   66.50   1
   1  13   6  800.00   76.88   1
   1  13   6  982.80   92.39   1
  -1  13  -6  746.70   70.26   1
  -1  13  -6  744.50   71.59   1
   1 -13   7   99.22   12.82   1
   1 -13   7   68.08   11.80   1
  -1 -13  -7   91.62   9.293   1
   1  13   7   84.72   8.538   1
  -1  13  -7   88.24   8.722   1
  -1  13  -7   66.65   10.37   1
   1 -13   8  -1.075   7.346   1
   1 -13   8  -6.326   8.587   1
  -1  13  -8  -5.455    6.98   1
  -1  13  -8 -0.4027   1.443   1
   1 -13   9   78.99   15.99   1
   1 -13   9  115.30   15.91   1
  -1  13  -9  104.40   10.27   1
  -1  13  -9  129.30   16.76   1
   1 -13  10  299.30   34.55   1
   1 -13  10  322.20   34.93   1
  -1  13 -10  264.50   25.25   1
  -1  13 -10  329.10   35.24   1
   1 -13  11  308.20   33.80   1
   1 -13  11  244.00   28.86   1
  -1  13 -11  283.10   29.58   1
  -1  13 -11  296.70   28.30   1
  -1 -14  11   1.707   8.851   1
  -1 -14  11   1.533   10.51   1
   1  14 -11   1.162   2.358   1
   1  14 -11  0.5765   6.611   1
  -1 -14  10   15.28   13.30   1
  -1 -14  10   13.86   10.07   1
   1  14 -10   -3.54   1.929   1
   1  14 -10   4.651   9.511   1
  -1 -14   9   2.301   8.674   1
  -1 -14   9  -2.571   9.303   1
   1  14  -9  -1.574   7.848   1
   1  14  -9  -1.019   1.701   1
  -1 -14   8   15.69   8.846   1
   1  14  -8  0.3274   1.564   1
   1 -14  -7   5.935    3.09   1
  -1 -14   7    8.78   7.128   1
  -1 -14   7   14.40   8.583   1
   1  14  -7  -1.163   1.561   1
   1  14  -7  -4.266   7.676   1
  -1  14   7   -1.25   1.625   1
   1 -14  -6  0.5716   3.551   1
   1 -14  -6  -4.225   5.035   1
   1  14  -6   4.188   1.868   1
  -1  14   6   2.645   1.507   1
  -1  14   6   17.21   6.917   1
   1 -14  -5   41.27   7.072   1
   1  14  -5   48.55   11.88   1
  -1  14   5   50.42   8.296   1
  -1  14   5   69.61   7.009   1
  -1 -14   4   30.42   8.435   1
   1  14  -4   48.61   5.162   1
  -1  14   4   24.44   6.661   1
  -1  14   4   48.14   5.084   1
   1 -14  -3   14.81   7.175   1
  -1 -14   3   22.27   7.603   1
  -1 -14   3   39.53   4.516   1
   1  14  -3   11.73   10.24   1
   1  14  -3   29.80   3.567   1
  -1  14   3   27.84    3.33   1
   1 -14  -2  0.4024   4.294   1
  -1 -14   2  0.5927   1.839   1
  -1 -14   2   3.283   6.857   1
   1  14  -2   3.484   10.15   1
   1  14  -2  0.5537   1.606   1
  -1  14   2  -2.757    5.68   1
   1 -14  -1   -3.72    4.41   1
  -1 -14   1  -7.737   6.238   1
  -1 -14   1   1.377   1.875   1
   1  14  -1   1.223   1.751   1
   1  14  -1  -2.772   9.565   1
  -1  14   1   0.647   1.534   1
  -1  14   1  0.5292   6.259   1
   1 -14   0   24.56   7.216   1
  -1 -14   0   25.10    7.57   1
   1  14   0   16.37   9.905   1
   1 -14   1   31.50   8.355   1
  -1 -14  -1   39.35   8.001   1
   1  14   1   63.00   6.441   1
   1  14   1   45.84   11.45   1
  -1  14  -1   57.98   5.979   1
   1 -14   2   45.45   9.777   1
   1 -14   2   11.82   4.727   1
  -1 -14  -2   22.04   6.179   1
   1  14   2   28.82    9.94   1
  -1  14  -2   30.17   7.784   1
   1 -14   3   10.23   5.201   1
   1 -14   3    4.48   7.406   1
  -1 -14  -3   4.057    1.89   1
   1  14   3   1.629   9.681   1
   1  14   3  0.6538   1.612   1
  -1  14  -3    4.95   6.488   1
  -1  14  -3   3.422    1.60   1
   1 -14   4   1.753    5.58   1
   1 -14   4  -2.951   7.531   1
  -1 -14  -4   2.682   3.642   1
   1  14   4  -1.379   1.474   1
  -1  14  -4  -9.466   6.526   1
  -1  14  -4   2.203   1.576   1
   1 -14   5  -2.121   5.683   1
   1 -14   5   8.252   8.165   1
  -1 -14  -5 -0.7736   1.506   1
  -1 -14  -5 0.07898   3.538   1
   1  14   5   5.003   8.987   1
   1  14   5   0.834   1.628   1
  -1  14  -5  -2.312   6.688   1
  -1  14  -5   1.398    1.55   1
   1 -14   6  -4.074   6.282   1
   1 -14   6  0.5978   7.967   1
  -1 -14  -6   5.907   3.511   1
  -1 -14  -6   17.02   2.292   1
   1  14   6   9.591   2.372   1
   1  14   6   1.373   7.925   1
  -1  14  -6   8.975   6.929   1
   1 -14   7  -2.119   7.357   1
   1 -14   7   7.765   8.661   1
  -1 -14  -7  0.4082   2.915   1
  -1 -14  -7   1.881   7.422   1
   1  14   7  -1.566   7.048   1
  -1  14  -7   1.599   1.544   1
  -1  14  -7   6.772   6.902   1
   1 -14   8  -5.583   8.878   1
  -1  14  -8  0.3882    1.49   1
  -1  14  -8  -2.994   7.672   1
   1 -14   9  -4.449   10.88   1
   1 -14   9  0.1397   10.00   1
  -1  14  -9   1.403   1.696   1
  -1  14  -9   12.77   10.05   1
   1 -14  10   7.965   12.27   1
  -1  14 -10   19.17   11.09   1
  -1  14 -10   6.859   2.193   1
   1 -14  11   3.412   5.098   1
  -1  14 -11   5.908   4.487   1
  -1 -15  11   35.53   6.965   1
  -1 -15  10   52.42   15.44   1
  -1 -15  10   62.93   12.85   1
   1  15 -10   56.84   12.71   1
   1  15 -10   59.67   6.536   1
  -1 -15   9  160.90   21.11   1
  -1 -15   9  158.40   19.99   1
   1  15  -9  115.10   16.64   1
   1  15  -9  140.70   13.69   1
  -1 -15   8  151.50   19.29   1
  -1 -15   8  125.60   16.37   1
   1  15  -8  153.10   14.78   1
   1  15  -8  132.50   16.92   1
   1 -15  -7   74.03   9.169   1
   1 -15  -7   71.80   8.135   1
  -1 -15   7   88.20   13.71   1
   1  15  -7   87.54   8.712   1
  -1  15   7   89.21   10.78   1
   1 -15  -6   23.97   4.951   1
   1 -15  -6   28.29   7.205   1
   1  15  -6   27.05   10.10   1
   1  15  -6   30.90   3.705   1
  -1  15   6   29.03   8.445   1
  -1  15   6   27.56   3.335   1
   1 -15  -5   79.95   10.21   1
   1 -15  -5   92.74   11.33   1
  -1 -15   5   85.05   8.444   1
  -1 -15   5  102.90   14.64   1
   1  15  -5   89.96   8.957   1
   1  15  -5   87.12   14.35   1
  -1  15   5   90.61   8.961   1
  -1  15   5   69.33   10.41   1
   1 -15  -4 1036.00   98.16   1
  -1 -15   4 1013.00   95.15   1
  -1 -15   4 1280.00  122.10   1
   1  15  -4 1031.00   96.92   1
   1  15  -4 1106.00  106.60   1
  -1  15   4 1037.00   97.48   1
  -1  15   4  870.70   83.10   1
   1 -15  -3  375.30   36.48   1
   1 -15  -3  416.10   41.35   1
  -1 -15   3  389.40   36.83   1
  -1 -15   3  473.30   46.81   1
   1  15  -3  400.60   41.50   1
   1  15  -3  440.00   41.57   1
  -1  15   3  356.90   35.35   1
  -1  15   3  401.90   37.96   1
   1 -15  -2   56.17   9.697   1
  -1 -15   2   95.36   13.06   1
  -1 -15   2   91.05    9.06   1
   1  15  -2   62.82   13.56   1
   1  15  -2   91.65   9.092   1
  -1  15   2   61.02   9.571   1
  -1  15   2   79.18   7.913   1
   1 -15  -1  237.80   25.11   1
   1 -15  -1  223.00   22.39   1
  -1 -15   1  252.60   26.32   1
  -1 -15   1  233.50   22.27   1
   1  15  -1  258.90   28.68   1
   1  15  -1  247.70   23.60   1
  -1  15   1  232.50   22.15   1
  -1  15   1  196.00   21.02   1
   1 -15   0 1459.00  137.70   1
   1 -15   0 1411.00  134.20   1
  -1 -15   0 1718.00  161.30   1
  -1 -15   0 1676.00  158.70   1
   1  15   0 1765.00  168.00   1
   1  15   0 1645.00  154.40   1
  -1  15   0 1394.00  132.20   1
  -1  15   0 1578.00  148.20   1
   1 -15   1 1401.00  132.30   1
   1 -15   1 1365.00  130.00   1
  -1 -15  -1 1580.00  149.50   1
  -1 -15  -1 1521.00  142.80   1
   1  15   1 1683.00  160.50   1
   1  15   1 1542.00  144.80   1
  -1  15  -1 1244.00  118.20   1
  -1  15  -1 1325.00  124.40   1
   1 -15   2  299.70   30.87   1
   1 -15   2  283.60   28.05   1
  -1 -15  -2  361.30   34.19   1
  -1 -15  -2  317.30   31.34   1
   1  15   2  362.20   34.28   1
   1  15   2  347.10   36.55   1
  -1  15  -2  280.30   28.63   1
  -1  15  -2  328.90   31.16   1
   1 -15   3  -2.139   5.302   1
  -1 -15  -3  0.7199   1.746   1
  -1 -15  -3   1.676   4.106   1
   1  15   3  0.4302   1.613   1
   1  15   3 -0.5535   9.717   1
  -1  15  -3  -1.252    6.66   1
   1 -15   4   33.40    7.17   1
   1 -15   4   48.69   9.813   1
  -1 -15  -4   31.30   3.677   1
  -1 -15  -4   36.96   5.898   1
   1  15   4   28.52   10.71   1
  -1  15  -4   34.67   3.908   1
  -1  15  -4   39.27   8.317   1
   1 -15   5  390.90   38.50   1
   1 -15   5  380.50   38.67   1
  -1 -15  -5  407.00   39.16   1
   1  15   5  349.20   33.04   1
  -1  15  -5  338.60   34.10   1
  -1  15  -5  321.80   30.50   1
   1 -15   6  192.00   22.12   1
   1 -15   6  210.80   22.63   1
  -1 -15  -6  169.80   18.86   1
  -1 -15  -6  190.00   18.97   1
   1  15   6  164.00   18.87   1
   1  15   6  205.50   19.74   1
  -1  15  -6  190.30   18.24   1
   1 -15   7  176.00   19.55   1
  -1 -15  -7  178.70   17.66   1
  -1 -15  -7  181.70   20.27   1
   1  15   7  184.00   17.87   1
   1  15   7  175.80   19.43   1
  -1  15  -7  160.70   18.30   1
   1 -15   8   13.99   9.604   1
   1 -15   8  -5.029   9.033   1
  -1  15  -8 -0.1159   1.597   1
  -1  15  -8  -13.35    7.81   1
   1 -15   9   52.87   13.94   1
   1 -15   9   26.42   12.99   1
  -1  15  -9   41.22   11.59   1
   1 -15  10  179.60   22.79   1
   1 -15  10  156.70   19.09   1
  -1  15 -10  168.90   16.35   1
  -1  15 -10  149.90   18.48   1
  -1 -16  10  0.6633   8.775   1
   1  16 -10 -0.2075   2.123   1
  -1 -16   9  -11.48   10.56   1
  -1 -16   9  -6.119   11.47   1
   1  16  -9   19.94   9.358   1
   1  16  -9  0.9152    1.80   1
  -1 -16   8   3.266   8.641   1
  -1 -16   8   1.914   8.467   1
   1  16  -8  0.4861   1.772   1
   1  16  -8   6.767   8.511   1
   1 -16  -7   1.535    4.32   1
   1 -16  -7    5.40    6.18   1
  -1 -16   7  -1.498   8.016   1
  -1 -16   7  -2.777   8.918   1
   1  16  -7   3.018   1.819   1
   1  16  -7   3.463   8.404   1
  -1  16   7   1.379   1.857   1
  -1  16   7  -1.291   6.512   1
   1 -16  -6   1.923   7.422   1
   1 -16  -6   3.238   4.087   1
  -1 -16   6  -5.555   8.856   1
   1  16  -6 -0.5694   9.871   1
   1  16  -6    4.96   1.947   1
  -1  16   6   6.187   1.913   1
  -1  16   6   20.14   8.383   1
   1 -16  -5   3.061    6.18   1
  -1 -16   5   14.92   2.382   1
  -1 -16   5 -0.5086   8.681   1
   1  16  -5   10.26   2.147   1
   1  16  -5   3.291   9.296   1
  -1  16   5   24.26    7.83   1
   1 -16  -4  -11.48   5.599   1
   1 -16  -4  -1.379   7.099   1
  -1 -16   4  -1.974   1.838   1
  -1 -16   4   4.769   8.157   1
   1  16  -4  -2.882   9.694   1
   1  16  -4  -2.084   1.768   1
  -1  16   4  -4.831   6.891   1
  -1  16   4  0.9411   1.698   1
   1 -16  -3   34.91   8.831   1
   1 -16  -3   9.413   5.715   1
  -1 -16   3   35.34   4.106   1
  -1 -16   3   18.81    7.79   1
   1  16  -3   18.32   10.68   1
   1  16  -3   29.56   3.646   1
  -1  16   3   32.05   3.856   1
  -1  16   3   16.10   7.014   1
   1 -16  -2   7.107   5.701   1
   1 -16  -2    4.81   7.704   1
  -1 -16   2   13.39   2.403   1
   1  16  -2   3.292   10.02   1
  -1  16   2   5.611   6.831   1
  -1  16   2   9.178   2.108   1
   1 -16  -1  0.3961   7.028   1
   1 -16  -1    3.97   5.511   1
  -1 -16   1   2.312   6.756   1
   1  16  -1   2.793   1.876   1
  -1  16   1   3.998   1.765   1
  -1  16   1   7.541   7.017   1
   1 -16   0  -2.987   5.304   1
   1 -16   0  -5.518   7.154   1
  -1 -16   0  -1.317   6.649   1
  -1 -16   0   2.143   1.973   1
   1  16   0   1.073   1.857   1
   1  16   0 -0.2182   10.90   1
  -1  16   0  -6.944   7.039   1
  -1  16   0  0.3403   1.604   1
   1 -16   1  -2.604   6.209   1
  -1 -16  -1   2.053   1.923   1
  -1 -16  -1   8.742   6.109   1
   1  16   1   8.761   10.77   1
   1  16   1 -0.6834   1.708   1
  -1  16  -1 -0.3247   1.613   1
   1 -16   2   2.348   7.639   1
   1 -16   2  -6.465   5.039   1
  -1 -16  -2  -0.112   4.867   1
  -1 -16  -2    5.65   1.995   1
   1  16   2  -8.409   10.27   1
   1  16   2   3.862    1.86   1
  -1  16  -2   2.743   6.655   1
  -1  16  -2   2.904   1.736   1
   1 -16   3  -13.56   7.756   1
   1 -16   3   4.944   5.538   1
  -1 -16  -3 -0.6873    4.50   1
  -1 -16  -3 -0.2992   1.722   1
   1  16   3  -2.103   10.34   1
   1  16   3  0.7502   1.762   1
  -1  16  -3   4.197   6.491   1
  -1  16  -3   4.686    1.64   1
   1 -16   4  -4.498   7.697   1
   1 -16   4   2.808   5.907   1
  -1 -16  -4 0.06616   4.019   1
  -1 -16  -4   1.297   1.676   1
   1  16   4   4.637   9.882   1
   1  16   4  -1.234    1.73   1
  -1  16  -4  0.9857   1.517   1
  -1  16  -4  -1.402   6.936   1
   1 -16   5  -1.497   6.847   1
   1 -16   5  -4.123   8.173   1
  -1 -16  -5   1.851   4.151   1
  -1 -16  -5 -0.4143   1.507   1
   1  16   5   16.56   10.41   1
   1  16   5  -1.476   1.734   1
  -1  16  -5  0.6983    1.58   1
  -1  16  -5  0.6324   6.822   1
  -1 -16  -6  -4.415   3.952   1
   1  16   6  0.2484   2.089   1
  -1  16  -6  -1.889   1.746   1
   1 -16   7  -2.959   9.233   1
   1 -16   7  -3.588   9.055   1
  -1 -16  -7   8.242   10.59   1
  -1 -16  -7  0.5968   4.184   1
   1  16   7  -10.40   9.875   1
   1  16   7 0.06525   3.183   1
  -1  16  -7   0.169   1.598   1
  -1  16  -7  -1.076   7.442   1
   1 -16   8   1.658   10.62   1
   1 -16   8   11.88   9.968   1
  -1  16  -8   6.749   9.678   1
  -1  16  -8   1.605   1.696   1
   1 -16   9   1.773   12.23   1
   1 -16   9   9.554   11.27   1
  -1  16  -9   2.154    1.86   1
  -1  16  -9   10.73   9.825   1
  -1 -17   9  147.30   19.01   1
  -1 -17   9   97.74   18.17   1
   1  17  -9  104.40   16.66   1
  -1 -17   8   99.37   15.59   1
  -1 -17   8  115.60   16.13   1
   1  17  -8   87.59   13.85   1
   1  17  -8  108.70   10.74   1
   1 -17  -7   25.45   5.997   1
   1 -17  -7   30.71   8.531   1
  -1 -17   7   31.04   10.74   1
  -1 -17   7   28.81   10.01   1
   1  17  -7   27.08   3.493   1
   1  17  -7   23.03   9.484   1
  -1  17   7   26.98   8.756   1
  -1  17   7   19.47   3.251   1
   1 -17  -6   44.08   9.741   1
  -1 -17   6   24.73   8.397   1
  -1 -17   6   49.21   11.31   1
   1  17  -6   55.73   5.888   1
   1  17  -6   35.98   10.79   1
  -1  17   6   55.83   10.94   1
   1 -17  -5  374.40   37.54   1
   1 -17  -5  351.80   34.71   1
  -1 -17   5  313.20   29.70   1
  -1 -17   5  398.70   40.80   1
   1  17  -5  352.30   36.69   1
  -1  17   5  399.80   37.84   1
  -1  17   5  386.70   38.91   1
   1 -17  -4  263.10   27.32   1
   1 -17  -4  204.60   21.57   1
  -1 -17   4  259.80   24.71   1
  -1 -17   4  288.00   30.31   1
   1  17  -4  292.90   27.83   1
   1  17  -4  243.50   27.41   1
  -1  17   4  263.10   25.04   1
  -1  17   4  248.10   26.11   1
   1 -17  -3  331.70   34.25   1
   1 -17  -3  311.40   31.17   1
  -1 -17   3  244.20   23.27   1
  -1 -17   3  338.90   34.86   1
   1  17  -3  280.70   26.69   1
   1  17  -3  260.70   29.17   1
  -1  17   3  266.60   25.39   1
  -1  17   3  249.80   26.03   1
   1 -17  -2  160.60   19.14   1
   1 -17  -2  114.40   13.53   1
  -1 -17   2  131.80   16.38   1
  -1 -17   2  129.40   12.60   1
   1  17  -2  114.60   16.80   1
   1  17  -2  137.80   13.40   1
  -1  17   2  113.00   14.32   1
  -1  17   2  122.20   11.96   1
   1 -17  -1   98.29   13.98   1
  -1 -17   1   98.88   13.68   1
  -1 -17   1   68.48   7.023   1
   1  17  -1   79.58   8.059   1
   1  17  -1  107.10   16.31   1
  -1  17   1   88.07   8.845   1
   1 -17   0  563.30   54.27   1
  -1 -17   0  667.40   62.85   1
   1  17   0  678.60   67.06   1
  -1  17   0  542.30   52.92   1
   1 -17   1  471.20   45.72   1
   1 -17   1  555.70   54.78   1
  -1 -17  -1  605.20   58.64   1
   1  17   1  580.30   54.72   1
  -1  17  -1  420.10   41.64   1
  -1  17  -1  531.50   50.14   1
   1 -17   2  459.40   44.71   1
   1 -17   2  516.90   51.19   1
  -1 -17  -2  557.20   52.54   1
  -1 -17  -2  525.40   50.86   1
   1  17   2  566.10   53.39   1
   1  17   2  591.80   59.07   1
  -1  17  -2  495.10   46.73   1
  -1  17  -2  436.80   43.19   1
   1 -17   3   36.24   7.643   1
   1 -17   3   25.54   8.341   1
  -1 -17  -3   36.36   4.176   1
  -1 -17  -3   29.70   6.185   1
   1  17   3   34.10    4.04   1
   1  17   3   52.61   12.73   1
  -1  17  -3   22.09   7.732   1
  -1  17  -3   33.19   3.833   1
   1 -17   4  144.00   17.73   1
  -1 -17  -4  135.70   14.47   1
  -1 -17  -4  109.20   10.71   1
   1  17   4  111.40   17.15   1
   1  17   4  118.90   11.64   1
  -1  17  -4  123.30   11.99   1
   1 -17   5  500.90   50.15   1
   1 -17   5  419.50   41.68   1
  -1 -17  -5  486.00   45.87   1
  -1 -17  -5  512.80   49.30   1
   1  17   5  478.40   45.22   1
   1  17   5  422.50   43.74   1
  -1  17  -5  498.90   47.09   1
  -1  17  -5  411.80   40.93   1
  -1 -17  -6  472.50   47.49   1
  -1 -17  -6  571.50   54.73   1
   1  17   6  527.20   49.88   1
   1  17   6  474.90   47.71   1
  -1  17  -6  501.00   47.30   1
  -1  17  -6  490.00   48.58   1
   1 -17   7  112.70   16.76   1
  -1 -17  -7  125.50   18.44   1
  -1 -17  -7  119.00   13.14   1
   1  17   7  134.20   18.02   1
   1  17   7  119.10   12.44   1
  -1  17  -7  113.40   11.13   1
  -1  17  -7  102.50   14.83   1
   1 -17   8   26.72   11.99   1
   1 -17   8   34.03   12.83   1
  -1  17  -8   38.24   10.58   1
  -1  17  -8   22.76    3.05   1
  -1 -18   8  -7.042   10.82   1
  -1 -18   8   -2.34   9.229   1
   1  18  -8-0.07407   1.901   1
   1  18  -8   5.943   8.911   1
   1 -18  -7  -5.599   6.177   1
   1 -18  -7 0.00822   9.257   1
  -1 -18   7  -17.27   9.847   1
  -1 -18   7   3.028   9.907   1
   1  18  -7   -2.43   8.756   1
   1  18  -7  -1.675   1.872   1
  -1  18   7  -1.533    2.83   1
  -1  18   7   2.273   8.885   1
   1 -18  -6  -11.49   9.662   1
   1 -18  -6  -3.195   5.438   1
  -1 -18   6   2.163   8.744   1
  -1 -18   6 -0.4171    8.65   1
   1  18  -6  -1.517   1.856   1
   1  18  -6   -3.95   8.906   1
  -1  18   6    2.90   2.144   1
  -1  18   6   8.185   10.65   1
   1 -18  -5   3.335   8.019   1
   1 -18  -5   0.737    5.81   1
  -1 -18   5    5.11   1.827   1
  -1 -18   5 -0.7073   8.569   1
   1  18  -5  -1.386   9.606   1
   1  18  -5   7.133   2.105   1
  -1  18   5  -5.057   7.948   1
  -1  18   5   4.019   2.174   1
   1 -18  -4   5.725   7.005   1
   1 -18  -4  -2.493   7.334   1
  -1 -18   4   16.52   2.541   1
  -1 -18   4   2.131   8.306   1
   1  18  -4   3.429   9.823   1
   1  18  -4   7.968   2.241   1
  -1  18   4   14.40   2.615   1
  -1  18   4    9.18   7.816   1
   1 -18  -3   11.50   8.132   1
  -1 -18   3   5.354   8.276   1
   1  18  -3   9.076   2.223   1
  -1  18   3   10.14   2.314   1
   1 -18  -2   7.967   6.537   1
  -1 -18   2   9.386    7.24   1
  -1 -18   2   16.23   2.603   1
   1  18  -2   12.97   2.473   1
   1  18  -2   15.09   11.54   1
  -1  18   2   6.928   7.378   1
   1 -18  -1   1.919   8.464   1
   1 -18  -1  -3.786   6.242   1
  -1 -18   1   4.448   7.334   1
  -1 -18   1   4.509   1.952   1
   1  18  -1   5.179   11.29   1
   1  18  -1   4.722   1.966   1
  -1  18   1   5.995   1.974   1
  -1  18   1 -0.0084    6.95   1
   1 -18   0  0.6735   7.919   1
   1 -18   0   8.006    6.10   1
  -1 -18   0   14.51   7.042   1
  -1 -18   0   14.24   2.456   1
   1  18   0  0.8269   10.72   1
   1  18   0    9.04   2.204   1
  -1  18   0    7.82   2.037   1
  -1  18   0 -0.9518   6.811   1
   1 -18   1   3.289   7.775   1
   1 -18   1  -4.954   5.782   1
  -1 -18  -1   3.023   6.345   1
  -1 -18  -1   4.395   1.902   1
   1  18   1   2.731   1.884   1
   1  18   1   13.61   11.24   1
  -1  18  -1   2.526    7.18   1
  -1  18  -1   3.436    1.85   1
   1 -18   2  -5.405   6.097   1
   1 -18   2 -0.9281   7.837   1
  -1 -18  -2   2.112   5.552   1
  -1 -18  -2-0.05989   1.835   1
   1  18   2   -3.18   11.14   1
  -1  18  -2   3.021   1.731   1
  -1  18  -2   8.934   7.406   1
   1 -18   3  -7.166   6.767   1
   1 -18   3 0.04017   7.956   1
  -1 -18  -3  0.3012   1.817   1
   1  18   3  -21.26   10.75   1
   1  18   3  -1.989   1.887   1
  -1  18  -3   6.721   7.338   1
  -1  18  -3  0.7511   1.589   1
   1 -18   4  0.3956   8.213   1
   1 -18   4  -5.384   6.915   1
  -1 -18  -4   7.953   4.757   1
   1  18   4  -11.36   10.93   1
   1  18   4   9.764   2.324   1
  -1  18  -4    1.30   6.995   1
  -1  18  -4   10.37   2.069   1
   1 -18   5   11.04   8.794   1
   1 -18   5   2.484   7.665   1
  -1 -18  -5  0.3601   5.175   1
  -1 -18  -5  -7.402   9.104   1
   1  18   5   4.433   9.891   1
   1  18   5   3.982   2.131   1
  -1  18  -5   4.137   1.706   1
  -1  18  -5  -3.856    7.16   1
   1 -18   6  -5.987   8.969   1
  -1 -18  -6    0.93   10.76   1
  -1 -18  -6  -8.614   5.467   1
   1  18   6  -4.415   9.808   1
   1  18   6 -0.7197   2.634   1
  -1  18  -6 -0.9395   1.691   1
  -1  18  -6  -11.20   7.603   1
   1 -18   7   1.133   10.43   1
   1 -18   7   7.855   10.46   1
  -1 -18  -7  -22.58   14.94   1
   1  18   7 -0.1247   11.94   1
   1  18   7   -2.35   4.506   1
  -1  18  -7   -6.30   8.804   1
  -1  18  -7 -0.5725   1.798   1
   1 -19  -7   6.822   11.68   1
   1 -19  -7   1.514   7.256   1
  -1 -19   7  -1.499   10.95   1
  -1 -19   7  -3.225   10.96   1
   1  19  -7   5.207   2.054   1
   1  19  -7   10.27   9.569   1
  -1  19   7   1.052   10.79   1
   1 -19  -6  140.10   15.92   1
   1 -19  -6  144.70   19.77   1
  -1 -19   6  136.70   17.79   1
  -1 -19   6   99.52   14.61   1
   1  19  -6  142.10   13.86   1
  -1  19   6  136.40   13.47   1
  -1  19   6  187.50   23.47   1
   1 -19  -5  361.50   36.10   1
  -1 -19   5  346.60   35.86   1
   1  19  -5  403.70   38.24   1
  -1  19   5  395.40   37.53   1
   1 -19  -4  314.30   32.50   1
   1 -19  -4  398.70   40.12   1
  -1 -19   4  414.50   42.04   1
   1  19  -4  360.90   37.75   1
   1  19  -4  354.40   33.60   1
  -1  19   4  324.60   33.32   1
   1 -19  -3   32.90   8.633   1
   1 -19  -3   35.78   9.361   1
  -1 -19   3   48.41   10.46   1
  -1 -19   3   30.35   3.648   1
   1  19  -3   54.14   5.763   1
   1  19  -3   25.54   10.56   1
  -1  19   3   26.13   8.074   1
  -1  19   3   43.72   4.972   1
   1 -19  -2   4.398   7.722   1
   1 -19  -2   -4.09   8.822   1
  -1 -19   2 -0.4831   1.648   1
   1  19  -2   12.82   10.64   1
  -1  19   2    1.49   2.008   1
  -1  19   2   12.79   7.704   1
   1 -19  -1   40.86    9.93   1
   1 -19  -1   36.11   8.971   1
  -1 -19   1   36.33   8.864   1
  -1  19   1   22.62   8.154   1
  -1  19   1   34.35   4.031   1
   1 -19   0  322.50   33.51   1
   1 -19   0  294.30   30.05   1
  -1 -19   0  285.00   27.11   1
  -1 -19   0  312.60   31.96   1
   1  19   0  339.60   36.63   1
   1  19   0  341.10   32.39   1
  -1  19   0  235.70   25.02   1
  -1  19   0  320.60   30.45   1
   1 -19   1  450.20   45.39   1
  -1 -19  -1  457.50   43.28   1
  -1 -19  -1  474.70   46.62   1
   1  19   1  489.80   50.04   1
   1  19   1  511.00   48.27   1
   1 -19   2   55.40   9.769   1
  -1 -19  -2   60.30   9.109   1
  -1 -19  -2   48.00   5.179   1
   1  19   2   58.49   6.201   1
   1  19   2   78.25   15.15   1
  -1  19  -2   52.75   9.948   1
   1 -19   3   6.516   7.392   1
   1 -19   3   7.837   7.997   1
  -1 -19  -3 -0.6478   5.198   1
  -1 -19  -3 -0.6679   1.734   1
   1  19   3    2.43   2.061   1
   1  19   3   2.184   10.21   1
  -1  19  -3   4.564   1.795   1
  -1  19  -3   1.452   6.913   1
   1 -19   4  107.40   15.20   1
   1 -19   4   70.74   11.93   1
  -1 -19  -4   95.93   11.50   1
  -1 -19  -4   64.20   6.632   1
   1  19   4   87.91    8.94   1
   1  19   4   63.81   14.20   1
  -1  19  -4   92.33   9.173   1
  -1  19  -4   66.59   11.64   1
   1 -19   5  366.70   37.28   1
   1 -19   5  344.10   36.35   1
  -1 -19  -5  307.70   33.06   1
   1  19   5  278.00   30.30   1
   1  19   5  318.20   30.37   1
  -1  19  -5  332.30   33.81   1
   1 -19   6  519.30   51.96   1
   1 -19   6  578.50   58.01   1
  -1 -19  -6  531.60   54.91   1
  -1 -19  -6  629.80   60.79   1
   1  19   6  592.10   56.12   1
   1  19   6  530.40   54.08   1
  -1  19  -6  583.40   55.03   1
  -1  19  -6  507.00   50.39   1
   1 -19   7  277.50   33.05   1
   1 -20  -6  -9.666   7.076   1
  -1 -20   6   15.02   9.935   1
   1  20  -6   2.182   2.009   1
  -1  20   6   6.371   2.936   1
   1 -20  -5  0.2173   11.89   1
   1 -20  -5  0.2551   6.605   1
  -1 -20   5  -1.121   9.397   1
  -1 -20   5  -4.146   8.526   1
   1  20  -5   4.341   1.936   1
   1  20  -5   1.643   8.973   1
  -1  20   5   5.323   2.677   1
  -1  20   5  -7.181   11.11   1
  -1 -20   4   28.10   10.19   1
   1  20  -4   59.06   6.429   1
   1  20  -4   27.26   10.96   1
  -1  20   4   57.54   11.38   1
  -1  20   4   57.68   6.371   1
   1 -20  -3   2.052   9.222   1
   1 -20  -3  -1.394   8.227   1
  -1 -20   3   16.10   2.556   1
  -1 -20   3   12.83   8.452   1
   1  20  -3   11.79   10.06   1
   1  20  -3   20.97   2.974   1
  -1  20   3   14.63   2.744   1
  -1  20   3   2.126   8.364   1
   1 -20  -2   4.427    8.17   1
   1 -20  -2 0.02143   7.726   1
  -1 -20   2    2.32   1.769   1
  -1 -20   2   2.578   7.664   1
   1  20  -2   -6.39   9.747   1
   1  20  -2   1.145   1.868   1
  -1  20   2   1.088   1.931   1
  -1  20   2  -6.889   7.348   1
   1 -20  -1   5.836   8.618   1
  -1 -20   1   19.78   7.841   1
  -1 -20   1   16.44   2.641   1
   1  20  -1   22.43   10.77   1
   1  20  -1   17.18   2.776   1
  -1  20   1   18.45   2.899   1
   1 -20   0  -2.259   7.163   1
  -1 -20   0   15.09   2.523   1
   1  20   0   11.89   11.59   1
  -1  20   0  -1.542   7.206   1
   1 -20   1   7.552   6.824   1
   1 -20   1  0.9383   8.385   1
  -1 -20  -1   4.246   6.594   1
  -1 -20  -1   4.787   2.054   1
   1  20   1   8.793   2.375   1
  -1  20  -1   9.759   7.695   1
  -1  20  -1   8.735   2.169   1
   1 -20   2   1.633   7.342   1
   1 -20   2  -10.35    8.70   1
  -1 -20  -2   2.646   5.646   1
  -1 -20  -2  -1.172   1.776   1
   1  20   2   2.033   1.997   1
   1  20   2  -4.439   11.53   1
  -1  20  -2  -13.03   7.738   1
  -1  20  -2  -1.618   1.824   1
   1 -20   3   17.79   9.399   1
   1 -20   3   5.462    8.30   1
  -1 -20  -3   4.523   5.961   1
  -1 -20  -3   22.68   3.078   1
   1  20   3   15.87   2.937   1
   1  20   3 -0.9346   10.55   1
  -1  20  -3   18.89   2.796   1
  -1  20  -3   4.363   8.018   1
   1 -20   4   4.384   8.434   1
   1 -20   4 -0.3293   9.208   1
  -1 -20  -4   5.846   5.644   1
  -1 -20  -4  -11.06   9.911   1
   1  20   4   21.02   10.52   1
   1  20   4   5.483   2.454   1
  -1  20  -4   5.378   2.067   1
  -1  20  -4    8.90   7.231   1
   1 -20   5   2.841   9.748   1
   1 -20   5   2.188    9.63   1
  -1 -20  -5  -21.45   13.14   1
  -1 -20  -5    5.03   6.629   1
   1  20   5   4.909   2.596   1
   1  20   5  -3.817   12.42   1
  -1  20  -5   1.803   8.392   1
  -1  20  -5   3.565   1.898   1
  -1 -20  -6   17.29   16.45   1
  -1 -20  -6  -1.427   7.473   1
   1  20   6   1.484   12.10   1
   1 -21  -6   86.95   19.59   1
   1 -21  -6   83.64   13.87   1
  -1  21   6   72.33   8.307   1
  -1  21   6  103.50   19.46   1
   1 -21  -5  308.70   36.58   1
   1 -21  -5  256.40   27.01   1
  -1 -21   5  243.90   27.73   1
   1  21  -5  242.60   23.27   1
  -1  21   5  249.00   24.04   1
  -1  21   5  287.10   33.06   1
   1 -21  -4  134.60   16.77   1
   1 -21  -4  142.20   20.63   1
  -1 -21   4  157.60   18.94   1
  -1 -21   4  130.10   17.65   1
   1  21  -4  172.80   16.69   1
   1  21  -4  129.70   17.59   1
  -1  21   4  176.60   17.21   1
  -1  21   4  140.50   19.05   1
   1 -21  -3   37.82   10.48   1
  -1 -21   3   37.33   9.641   1
  -1 -21   3   34.38   8.831   1
   1  21  -3   38.90   11.09   1
   1  21  -3   38.00   4.472   1
  -1  21   3   35.09   9.938   1
  -1  21   3   31.25   4.144   1
   1 -21  -2   10.98   8.886   1
   1 -21  -2  0.7892   9.109   1
  -1 -21   2  -6.732   7.734   1
  -1 -21   2  0.4354   1.721   1
   1  21  -2   1.131   2.008   1
   1  21  -2 0.06978   8.758   1
  -1  21   2  -10.09   8.196   1
  -1  21   2 -0.2631   2.159   1
   1 -21  -1   47.81   10.59   1
   1 -21  -1   45.99   10.71   1
  -1 -21   1   29.27    8.62   1
   1  21  -1   36.78    4.42   1
   1  21  -1   50.35   12.52   1
  -1  21   1   39.94    4.69   1
  -1  21   1   37.29   10.32   1
   1 -21   0  232.00   25.33   1
   1 -21   0  212.50   23.97   1
  -1 -21   0  214.20   23.08   1
   1  21   0  225.00   26.54   1
   1  21   0  226.80   21.78   1
  -1  21   0  179.60   20.65   1
  -1  21   0  230.00   22.05   1
   1 -21   1  218.90   23.82   1
   1 -21   1  254.00   27.84   1
  -1 -21  -1  196.00   18.85   1
  -1 -21  -1  284.50   29.15   1
   1  21   1  229.90   27.28   1
   1  21   1  292.50   27.94   1
  -1  21  -1  252.00   24.09   1
  -1  21  -1  218.80   23.92   1
   1 -21   2   70.43   13.81   1
   1 -21   2   88.06   13.00   1
  -1 -21  -2   71.34   10.71   1
   1  21   2   82.59   16.15   1
   1  21   2   66.62   7.161   1
  -1  21  -2   46.03   5.217   1
  -1  21  -2   54.58   10.17   1
   1 -21   3   -7.32   8.356   1
   1 -21   3  -7.633   8.225   1
  -1 -21  -3   1.332   6.449   1
  -1  21  -3  -10.52   7.157   1
  -1  21  -3   3.602   1.907   1
   1 -21   4  101.60   15.54   1
   1 -21   4  118.30   16.55   1
  -1 -21  -4   62.71   16.68   1
  -1 -21  -4   93.86   12.26   1
   1  21   4   85.34   8.804   1
  -1  21  -4  104.20   10.31   1
  -1  21  -4   95.06   13.92   1
  -1 -21  -5  458.60   50.39   1
  -1 -21  -5  530.20   51.77   1
   1  21   5  480.90   45.68   1
   1  21   5  425.90   44.75   1
   1 -22  -5  -4.643   7.686   1
   1 -22  -5   38.92   17.85   1
  -1  22   5   31.89   14.35   1
   1 -22  -4   18.25   15.43   1
   1 -22  -4   1.029   7.209   1
  -1  22   4  -3.262   11.11   1
  -1  22   4  -2.112   2.445   1
   1 -22  -3    2.02   12.56   1
   1 -22  -3  -6.105   8.213   1
  -1 -22   3   5.929   8.577   1
   1  22  -3  0.3183   1.995   1
  -1  22   3  -5.842   9.735   1
  -1  22   3  -1.387   2.428   1
   1 -22  -2  0.1506   8.846   1
   1 -22  -2  -10.49   10.86   1
  -1 -22   2  -1.841   9.093   1
   1  22  -2  -1.751   2.069   1
   1  22  -2    8.57   10.77   1
  -1  22   2   2.922    2.18   1
  -1  22   2   6.416   10.57   1
   1 -22  -1   11.22   9.453   1
  -1 -22   1   1.341    8.00   1
  -1 -22   1   2.679   8.603   1
   1  22  -1   16.66   10.85   1
   1  22  -1   6.496    2.38   1
  -1  22   1   8.258   2.431   1
   1 -22   0   10.91   10.11   1
  -1 -22   0   10.40   10.08   1
   1  22   0   1.038   2.275   1
   1  22   0    4.08   11.50   1
  -1  22   0   2.968   8.482   1
   1 -22   1   8.907    9.80   1
   1 -22   1   10.87   9.067   1
  -1 -22  -1 -0.1639   7.367   1
   1  22   1   13.24   2.872   1
  -1  22  -1   1.304   8.593   1
  -1  22  -1   14.00   2.793   1
   1 -22   2  -4.579   9.573   1
  -1 -22  -2    2.51   6.639   1
  -1 -22  -2  -8.731   12.35   1
   1  22   2   2.131   2.426   1
   1  22   2   15.85   11.07   1
  -1  22  -2   4.727   2.071   1
  -1  22  -2  -2.726   8.339   1
   1 -22   3   1.557   11.04   1
  -1 -22  -3  0.1634   6.683   1
  -1 -22  -3  -6.306   13.32   1
   1  22   3  0.4543   10.85   1
   1  22   3    1.74   2.525   1
  -1  22  -3   8.357    2.26   1
  -1 -22  -4  -1.045   6.253   1
  -1 -22  -4  -17.65   15.95   1
   1  22   4   6.319   2.854   1
   1  22   4  -5.104   11.88   1
  -1 -22  -5   10.61    7.30   1
  -1 -22  -5  -2.083   11.17   1
   1  22   5  -3.925   8.773   1
   1  22   5   14.73   4.198   1
   1 -23  -3   94.66   19.11   1
  -1  23   3   53.43   13.15   1
  -1  23   3   37.94   5.588   1
   1 -23  -2   19.34   13.10   1
  -1  23   2    1.76   2.609   1
  -1  23   2   14.98   10.21   1
   1 -23  -1   27.94   13.25   1
   1 -23  -1   25.16   10.97   1
  -1 -23   1   11.11   8.763   1
   1  23  -1   21.22   3.349   1
  -1  23   1   24.84   9.689   1
  -1  23   1   22.08   3.453   1
   1 -23   0  169.20   22.12   1
   1 -23   0  200.90   24.76   1
  -1 -23   0  147.90   20.33   1
  -1 -23   0  141.80   17.53   1
   1  23   0  140.10   18.77   1
   1  23   0  161.00   15.75   1
  -1  23   0  169.70   16.50   1
  -1  23   0  156.40   19.38   1
   1 -23   1  351.80   37.80   1
  -1 -23  -1  232.90   28.08   1
  -1 -23  -1  281.80   29.23   1
   1  23   1  220.60   25.96   1
   1  23   1  312.10   29.85   1
  -1  23  -1  296.60   28.33   1
  -1 -23  -2   80.80   11.86   1
  -1 -23  -2   68.37   17.03   1
   1  23   2   78.47   8.611   1
   1  23   2   62.64   13.60   1
  -1 -23  -3   9.272   7.035   1
  -1 -23  -3  -1.645   14.51   1
   1  23   3  -1.231   11.48   1
  -1 -23  -4   25.34   9.764   1
   1  23   4   63.23   7.779   1
   1  23   4   43.10   10.66   1
   1 -24  -4   3.803   4.755   1
   1 -24  -3 0.07577   6.056   1
   1 -24  -3   7.276   5.592   1
  -1  24   3   3.763   6.336   1
  -1  24   3 -0.1797   3.524   1
   1 -24  -2  0.1579   8.722   1
  -1  24   2  0.6956   2.814   1
   1  24   2 -0.4178   3.224   1
  -1 -24  -3   -5.91   4.725   1
   1  24   3  -5.422   4.749   1
   2   0  -8  447.10   42.06   1
   2   0  -8  433.50   41.14   1
  -2   0   8  424.20   40.09   1
  -2   0   8  407.00   38.32   1
   2   0  -7  107.20   10.24   1
   2   0  -7   76.98   8.152   1
  -2   0   7   93.67   9.315   1
  -2   0   7   97.39   9.441   1
   2   0  -6   16.21   4.635   1
   2   0  -6   10.03   1.417   1
  -2   0   6   7.745   1.198   1
  -2   0   6   13.51   2.098   1
   2   0  -5 1259.00  118.60   1
   2   0  -5 1292.00  121.10   1
  -2   0   5 1260.00  118.10   1
  -2   0   5 1371.00  128.60   1
   2   0  -421400.00 2005.00   1
   2   0  -422330.00 2092.00   1
  -2   0   421800.00 2043.00   1
  -2   0   420890.00 1956.00   1
   2   0  -3 5098.00  477.70   1
   2   0  -3 5846.00  547.70   1
  -2   0   3 5129.00  480.40   1
  -2   0   3 5919.00  554.70   1
   2   0  -2 3480.00  326.10   1
   2   0  -2 3547.00  332.50   1
  -2   0   2 3391.00  317.70   1
  -2   0   2 3378.00  316.60   1
   2   0  -1  143.90   13.74   1
   2   0  -1  115.30   11.12   1
  -2   0   1  108.60   10.46   1
   2   0   0 9121.00  854.50   1
   2   0   0 7708.00  722.10   1
  -2   0   0 7831.00  733.60   1
  -2   0   0 9004.00  843.60   1
   2   0   122750.00 2130.00   1
  -2   0  -122370.00 2096.00   1
  -2   0  -125210.00 2362.00   1
   2   0   2   93.56   9.447   1
  -2   0  -2   89.47   8.889   1
  -2   0  -2  120.00   11.54   1
   2   0   3  541.00   50.90   1
  -2   0  -3  685.20   64.49   1
  -2   0  -3  465.60   43.88   1
   2   0   4   81.25   8.117   1
  -2   0  -4   97.64   9.694   1
   2   0   5   36.22   5.242   1
  -2   0  -5   42.36   4.888   1
   2   0   6 2826.00  265.60   1
   2   0   6 3513.00  329.40   1
  -2   0  -6 2997.00  281.00   1
   2   0   7 1479.00  138.80   1
  -2   0  -7 1178.00  110.60   1
  -2   0  -7 1399.00  131.30   1
   2   0   8  261.00   24.98   1
  -2   0  -8  227.30   21.70   1
  -2   0  -8  249.60   23.60   1
   2   0   9   34.93   5.004   1
  -2   0  -9   41.39   4.938   1
   2   0  10   40.95   8.491   1
  -2   0 -10   31.14    3.29   1
  -2  -1   9   2.749   2.271   1
  -2  -1   9 -0.2349   3.594   1
   2   1  -9   9.034   1.851   1
   2   1  -9   2.729    3.97   1
  -2  -1   8  -1.416   2.997   1
  -2  -1   8-0.02983   2.254   1
   2   1  -8   2.696    1.17   1
   2   1  -8-0.06735   3.048   1
   2  -1  -7   1.771   1.057   1
   2  -1  -7  0.9059   1.782   1
  -2  -1   7  0.3382  0.8456   1
  -2  -1   7  -2.663    2.04   1
   2   1  -7 -0.5334  0.9458   1
   2   1  -7   3.557   3.744   1
  -2   1   7 -0.5287   1.315   1
  -2   1   7-0.03841   1.013   1
   2  -1  -6   6.137    1.16   1
   2  -1  -6 -0.7117   3.039   1
  -2  -1   6   8.525   1.398   1
  -2  -1   6   5.932   2.216   1
   2   1  -6   8.553   1.257   1
   2   1  -6 0.01247   4.529   1
  -2   1   6   7.905   1.076   1
   2  -1  -5   3.414    3.01   1
   2  -1  -5   3.865   1.181   1
  -2  -1   5   3.935   1.168   1
  -2  -1   5   4.539   2.159   1
   2   1  -5   4.496   1.046   1
   2   1  -5   1.061   4.223   1
  -2   1   5   3.525   0.873   1
  -2   1   5   2.017   1.228   1
   2  -1  -4 -0.3606   1.192   1
   2  -1  -4  -1.763   2.243   1
  -2  -1   4 -0.4151   1.024   1
  -2  -1   4  -1.117   1.971   1
   2   1  -4 -0.7251  0.9443   1
   2   1  -4 -0.9812   3.549   1
  -2   1   4  0.2901   1.187   1
  -2   1   4   -1.52  0.8321   1
   2  -1  -3 0.01777   1.316   1
   2  -1  -3  0.9651   1.459   1
  -2  -1   3 -0.8885   1.753   1
  -2  -1   3   2.416   1.007   1
   2   1  -3 0.08727   2.777   1
   2   1  -3 -0.4366  0.8963   1
  -2   1   3   2.282  0.8222   1
  -2   1   3-0.07822   1.169   1
   2  -1  -2 -0.1566   1.453   1
   2  -1  -2   1.774   1.752   1
  -2  -1   2   1.892   1.067   1
  -2  -1   2  0.4423   1.859   1
   2   1  -2  0.1495   2.101   1
   2   1  -2  0.1711   1.168   1
  -2   1   2   0.577   1.411   1
  -2   1   2   1.638   1.384   1
   2  -1  -1   29.84   3.402   1
  -2  -1   1   26.91   3.295   1
   2   1  -1   36.87   4.292   1
  -2   1   1   42.10   4.473   1
  -2   1   1   26.14   3.192   1
   2  -1   0  106.90   10.61   1
   2  -1   0   84.35   8.317   1
  -2  -1   0   92.73   9.053   1
   2   1   0   94.28   9.258   1
  -2   1   0  123.50   12.09   1
   2  -1   1  299.60   28.56   1
   2  -1   1  213.90   20.31   1
  -2  -1  -1  222.10   21.04   1
   2   1   1  244.40   23.16   1
   2  -1   2   1.451    1.75   1
   2  -1   2 -0.3681   3.256   1
  -2  -1  -2  -1.378    1.54   1
  -2  -1  -2   3.042   1.774   1
   2   1   2   2.592   1.624   1
   2   1   2 -0.3984    2.30   1
  -2   1  -2  -1.992   2.493   1
  -2   1  -2   2.332   1.707   1
   2  -1   3   2.097   3.706   1
   2  -1   3   1.355   1.747   1
  -2  -1  -3   2.509   1.692   1
  -2  -1  -3   5.154   1.619   1
   2   1   3   7.279   2.678   1
   2   1   3   2.923   1.555   1
  -2   1  -3   3.359   2.506   1
  -2   1  -3  0.1554   1.943   1
   2  -1   4   2.189   3.553   1
   2   1   4  -2.062   1.763   1
   2   1   4   0.339    3.73   1
  -2   1  -4   1.461   2.203   1
   2  -1   5   21.60   3.325   1
   2   1   5   20.46   2.834   1
   2   1   5   25.36   4.491   1
   2  -1   6   90.65   9.224   1
   2  -1   6  100.30   11.51   1
   2   1   6   98.32   10.55   1
   2  -1   7   15.04   6.355   1
   2   1   7   22.97   6.166   1
  -2   1  -7   23.20   3.636   1
   2  -1   8   1.381   2.823   1
   2  -1   8   3.805   6.806   1
  -2  -1  -8   2.524   1.123   1
   2   1   8   4.297   6.724   1
  -2   1  -8   4.692   1.358   1
  -2   1  -8    2.73   2.548   1
   2  -1   9   5.111   3.571   1
   2  -1   9   4.189   7.529   1
  -2  -1  -9   1.142   1.657   1
  -2  -1  -9   3.126   1.164   1
   2   1   9  -1.207   6.251   1
   2   1   9  -3.018   3.182   1
  -2   1  -9   3.506   1.343   1
  -2   1  -9  0.4122   2.571   1
   2  -1  10    5.81   4.291   1
   2  -1  10   1.512   7.379   1
  -2  -1 -10   5.249   1.236   1
  -2  -1 -10   7.246   1.217   1
  -2   1 -10   8.132   1.552   1
  -2   1 -10   6.897   3.121   1
   2  -1  11   4.779   4.528   1
   2  -1  11    2.93   4.539   1
  -2   1 -11   10.82   1.916   1
  -2  -2  10   17.40   3.509   1
  -2  -2  10   25.84   5.246   1
   2   2 -10   13.32   2.209   1
   2   2 -10   26.56   5.168   1
  -2  -2   9  815.30   76.88   1
   2   2  -9  730.40   68.60   1
  -2  -2   8  388.00   36.90   1
   2   2  -8  348.40   32.81   1
  -2  -2   7  281.70   26.91   1
   2   2  -7  270.30   25.48   1
  -2  -2   6   33.83   4.274   1
  -2  -2   6   21.38   2.523   1
   2   2  -6   34.32   6.841   1
   2   2  -6   26.19   2.776   1
   2  -2  -5 6281.00  588.90   1
   2  -2  -5 6474.00  606.70   1
  -2  -2   5 7164.00  671.20   1
  -2  -2   5 6738.00  631.60   1
   2   2  -5 6969.00  653.00   1
   2   2  -5 6487.00  608.70   1
  -2   2   5 7323.00  686.30   1
  -2   2   5 6552.00  614.10   1
  -2  -2   4 9057.00  848.70   1
  -2  -2   410530.00  986.60   1
   2   2  -410310.00  966.20   1
   2   2  -4 9373.00  878.60   1
  -2   2   410210.00  956.20   1
  -2   2   4 9590.00  898.50   1
   2  -2  -3 1732.00  162.40   1
   2  -2  -3 1926.00  180.50   1
  -2  -2   3 1831.00  171.70   1
  -2  -2   3 1946.00  182.50   1
   2   2  -3 2153.00  202.30   1
   2   2  -3 1799.00  168.70   1
  -2   2   3 2054.00  192.50   1
  -2   2   3 2030.00  190.30   1
   2  -2  -2  210.30   19.88   1
   2  -2  -2  216.50   20.60   1
  -2  -2   2  260.50   24.56   1
  -2  -2   2  223.50   21.33   1
   2   2  -2  250.90   23.66   1
   2   2  -2  187.10   18.12   1
  -2   2   2  222.00   20.99   1
  -2   2   2  176.60   16.73   1
   2  -2  -1 4974.00  466.20   1
   2  -2  -1 5708.00  534.80   1
  -2  -2   1 5548.00  519.90   1
  -2  -2   1 5164.00  483.80   1
   2   2  -1 5111.00  479.00   1
   2   2  -1 5239.00  490.80   1
  -2   2   1 4912.00  460.40   1
  -2   2   1 5086.00  476.60   1
   2  -2   013350.00 1251.00   1
   2  -2   012270.00 1149.00   1
  -2  -2   010550.00  988.40   1
  -2  -2   012000.00 1124.00   1
   2   2   012780.00 1197.00   1
   2   2   011200.00 1049.00   1
  -2   2   014050.00 1316.00   1
  -2   2   010120.00  948.30   1
  -2  -2  -1  303.20   28.58   1
   2   2   1  310.50   29.31   1
  -2   2  -1  358.50   34.05   1
   2  -2   2  937.60   88.04   1
   2  -2   2  947.20   89.44   1
  -2  -2  -2  911.50   85.56   1
  -2  -2  -2  711.90   66.87   1
   2   2   2  871.10   81.82   1
  -2   2  -2  762.80   71.89   1
   2  -2   3  815.20   77.08   1
  -2  -2  -3  755.70   70.98   1
  -2  -2  -3 1032.00   96.85   1
   2   2   3  885.80   83.21   1
   2   2   3  855.90   80.46   1
  -2   2  -3  653.80   61.59   1
   2  -2   4   94.60   9.395   1
  -2  -2  -4   94.97   9.288   1
   2   2   4   79.02   7.826   1
   2   2   4   98.54   10.20   1
  -2   2  -4   78.60   8.506   1
   2  -2   5  854.30   81.09   1
   2  -2   5  932.20   87.65   1
  -2  -2  -5 1004.00   94.23   1
  -2  -2  -5 1020.00   95.88   1
   2   2   5 1205.00  113.50   1
   2   2   5  989.20   92.91   1
  -2   2  -5  874.60   82.42   1
   2  -2   6  750.00   71.68   1
   2  -2   6  723.70   68.19   1
  -2  -2  -6  710.00   66.94   1
  -2  -2  -6  862.40   81.00   1
   2   2   6  657.90   62.32   1
   2   2   6  727.20   68.43   1
  -2   2  -6  792.50   74.44   1
  -2   2  -6  700.00   66.08   1
   2  -2   7 1818.00  170.80   1
   2  -2   7 1785.00  168.80   1
  -2  -2  -7 1564.00  146.60   1
  -2  -2  -7 1904.00  178.60   1
   2   2   7 1667.00  157.00   1
   2   2   7 1825.00  171.20   1
  -2   2  -7 1692.00  158.70   1
  -2   2  -7 1628.00  153.00   1
   2  -2   8  119.30   14.87   1
   2  -2   8  113.70   11.69   1
  -2  -2  -8   90.26   8.654   1
  -2  -2  -8  110.30   10.61   1
   2   2   8  112.00   13.22   1
   2   2   8  104.70   10.67   1
  -2   2  -8  100.40   9.713   1
  -2   2  -8  100.00   10.43   1
   2  -2   9   5.501   7.586   1
   2  -2   9   10.62   3.785   1
  -2   2  -9   11.58   1.777   1
  -2   2  -9   5.143   3.075   1
   2  -2  10   88.82   13.49   1
   2  -2  10   97.13   10.89   1
  -2   2 -10   76.45   8.384   1
  -2   2 -10   86.58   8.457   1
   2  -2  11  302.80   29.80   1
   2  -2  11  361.30   37.52   1
  -2   2 -11  360.30   34.06   1
  -2   2 -11  322.30   31.07   1
  -2  -3  11  -2.241   3.683   1
   2   3 -11 -0.7097   1.938   1
  -2  -3  10   12.83    4.23   1
  -2  -3  10   18.25   7.499   1
   2   3 -10   22.03   7.162   1
  -2  -3   9   7.522    4.87   1
  -2  -3   9   11.31   3.725   1
   2   3  -9   7.599   4.632   1
   2   3  -9   15.24    2.06   1
  -2  -3   8   7.354   3.063   1
  -2  -3   8  -0.158   3.589   1
   2   3  -8 -0.1381   4.467   1
   2   3  -8   6.504   1.397   1
  -2  -3   7   5.395   1.394   1
  -2  -3   7  -0.487   2.796   1
   2   3  -7   8.573   5.657   1
   2   3  -7   5.213    1.28   1
  -2  -3   6   3.642   1.269   1
   2   3  -6   6.657    5.71   1
   2  -3  -5   22.84   2.911   1
  -2  -3   5   14.52   3.484   1
   2   3  -5   30.20   3.241   1
   2   3  -5   20.18   6.265   1
   2  -3  -4   1.174   1.193   1
   2  -3  -4   1.503   2.356   1
  -2  -3   4  0.4436   2.839   1
   2   3  -4   1.311   1.126   1
  -2   3   4   1.676  0.7789   1
  -2   3   4 0.09694   1.357   1
   2  -3  -3 -0.2294   1.075   1
   2  -3  -3   3.815   2.612   1
  -2  -3   3 0.07344   2.374   1
  -2  -3   3  0.7635   1.163   1
   2   3  -3   1.038   4.311   1
   2   3  -3 -0.6444   1.041   1
  -2   3   3  0.3758   1.301   1
  -2   3   3  0.5126   1.355   1
   2  -3  -2 -0.2235    2.79   1
   2  -3  -2 -0.6711   1.477   1
  -2  -3   2   1.139   1.238   1
  -2  -3   2  -1.235    2.22   1
   2   3  -2   1.773   1.075   1
   2   3  -2  -1.953    3.71   1
  -2   3   2   1.315   1.549   1
  -2   3   2 -0.5669   2.073   1
   2  -3  -1   41.51   4.425   1
  -2  -3   1   54.74   5.942   1
   2   3  -1   50.78   6.013   1
  -2   3   1   38.18    4.26   1
   2  -3   0   48.25   5.103   1
  -2   3   0   39.83   4.554   1
   2  -3   1 2947.00  276.60   1
  -2  -3  -1 2404.00  225.40   1
   2   3   1 2640.00  247.60   1
   2  -3   2   27.77    4.69   1
  -2  -3  -2   21.02   2.624   1
   2   3   2   32.85   3.909   1
   2  -3   3   7.124    2.33   1
  -2  -3  -3   7.577   1.411   1
  -2  -3  -3   5.891   1.649   1
   2   3   3   3.999   1.903   1
   2   3   3    6.89   2.142   1
  -2   3  -3   0.675   3.611   1
   2  -3   4  -1.492   2.251   1
   2  -3   4   1.318   4.309   1
  -2  -3  -4   2.092   1.794   1
  -2  -3  -4   4.775   1.276   1
   2   3   4   3.745   2.643   1
   2   3   4   1.371   1.893   1
  -2   3  -4   1.462   3.783   1
  -2   3  -4   -1.80    2.48   1
   2  -3   5   9.274   5.155   1
   2  -3   5   4.789   2.513   1
  -2  -3  -5   2.916   1.975   1
  -2  -3  -5   12.11   1.688   1
   2   3   5   8.317   3.197   1
   2   3   5   5.801   2.107   1
  -2   3  -5   5.378   3.732   1
   2  -3   6   76.31   10.65   1
   2   3   6   61.75   6.546   1
   2   3   6   53.22    6.46   1
  -2   3  -6   84.09   9.123   1
   2  -3   7   24.96   7.736   1
  -2  -3  -7   44.72   4.458   1
   2   3   7   26.89   5.371   1
   2   3   7   31.91   4.387   1
  -2   3  -7   37.95   5.131   1
   2  -3   8   12.65   7.706   1
   2  -3   8  0.6106   3.631   1
  -2  -3  -8   8.291   1.286   1
  -2  -3  -8   5.805   1.246   1
   2   3   8  -1.727   5.456   1
   2   3   8   2.701   2.778   1
  -2   3  -8   3.672   3.657   1
  -2   3  -8   8.358   1.648   1
   2  -3   9    4.30   4.069   1
   2  -3   9  -7.935   7.909   1
  -2   3  -9  0.8739   1.299   1
  -2   3  -9   -0.63   3.719   1
   2  -3  10  -6.774   7.924   1
   2  -3  10  0.5687   4.209   1
  -2   3 -10   4.811   3.951   1
  -2   3 -10   1.735   1.307   1
   2  -3  11  -10.50   6.296   1
   2  -3  11   19.90   12.37   1
  -2   3 -11  -3.583   4.064   1
  -2   3 -11  0.9245   1.775   1
  -2  -4  12   52.72   7.662   1
   2   4 -12   61.30   7.171   1
  -2  -4  11   20.10   7.594   1
  -2  -4  11   14.78   5.154   1
   2   4 -11   17.37   2.567   1
   2   4 -11   6.589   6.598   1
  -2  -4   9  601.30   57.53   1
  -2  -4   9  700.10   66.39   1
   2   4  -9  554.80   53.28   1
   2   4  -9  759.90   71.41   1
  -2  -4   8  391.00   37.42   1
   2   4  -8  349.20   34.43   1
   2   4  -8  441.40   41.57   1
  -2  -4   7  759.90   71.88   1
  -2  -4   7  777.50   73.03   1
   2   4  -7  857.40   82.09   1
   2   4  -7  838.90   78.77   1
  -2  -4   6  253.30   23.97   1
  -2  -4   6  255.50   24.80   1
   2   4  -6  270.30   27.55   1
   2   4  -6  274.40   25.91   1
   2  -4  -5  162.40   15.53   1
   2  -4  -5  168.00   15.90   1
  -2  -4   5  156.50   14.99   1
  -2  -4   5  147.40   14.95   1
   2  -4  -4 5692.00  533.50   1
   2  -4  -4 7283.00  682.40   1
  -2  -4   4 6331.00  593.30   1
   2   4  -4 6131.00  575.30   1
  -2   4   4 6782.00  635.40   1
  -2   4   4 6025.00  564.70   1
   2  -4  -3 3471.00  325.50   1
   2  -4  -3 3959.00  370.90   1
  -2  -4   3 3610.00  338.70   1
   2   4  -3 3802.00  356.30   1
  -2   4   3 3624.00  339.60   1
  -2   4   3 3877.00  363.40   1
   2  -4  -2 4256.00  398.90   1
   2  -4  -2 4292.00  402.40   1
  -2  -4   2 4370.00  409.90   1
   2   4  -2 4583.00  429.50   1
  -2   4   2 4853.00  454.70   1
  -2   4   2 4306.00  403.70   1
   2  -4  -1   95.03   9.964   1
   2  -4  -1  104.20   10.20   1
  -2  -4   1   87.93   8.962   1
  -2  -4   1  109.20   10.49   1
   2   4  -1  110.10   10.54   1
   2   4  -1   88.69   9.805   1
  -2   4   1  127.80   12.94   1
  -2   4   1   89.13   8.816   1
   2  -4   0 1925.00  180.90   1
  -2  -4   0 2085.00  195.50   1
  -2  -4   0 2258.00  211.80   1
   2   4   0 1985.00  186.40   1
   2   4   0 2015.00  188.90   1
  -2   4   0 2446.00  229.40   1
   2  -4   147670.00 4467.00   1
  -2  -4  -150760.00 4755.00   1
  -2  -4  -153870.00 5047.00   1
   2   4   149650.00 4651.00   1
   2   4   144430.00 4162.00   1
  -2   4  -153560.00 5016.00   1
  -2  -4  -2 1766.00  165.60   1
  -2  -4  -2 1973.00  185.00   1
   2   4   2 1998.00  187.50   1
   2   4   2 1986.00  186.10   1
  -2   4  -2 2631.00  247.30   1
   2  -4   3  648.90   61.84   1
  -2  -4  -3  588.00   55.22   1
  -2  -4  -3  774.90   72.79   1
   2   4   3  611.20   57.47   1
   2   4   3  778.50   73.29   1
  -2   4  -3  776.80   73.21   1
   2  -4   4  169.20   16.47   1
   2  -4   4  163.30   17.23   1
  -2  -4  -4  158.70   15.04   1
  -2  -4  -4  150.60   14.46   1
   2   4   4  174.20   16.79   1
   2   4   4  161.80   15.68   1
  -2   4  -4  155.50   14.86   1
  -2   4  -4  215.70   21.57   1
   2  -4   5 1128.00  107.20   1
   2  -4   5 1101.00  103.60   1
  -2  -4  -5 1002.00   94.11   1
  -2  -4  -5 1066.00  100.00   1
   2   4   5 1050.00   98.78   1
   2   4   5 1140.00  107.10   1
  -2   4  -5 1092.00  102.50   1
  -2   4  -5 1325.00  125.00   1
   2  -4   6 3409.00  319.80   1
   2  -4   6 3640.00  342.50   1
  -2  -4  -6 4045.00  379.40   1
  -2  -4  -6 3371.00  315.90   1
   2   4   6 3597.00  337.40   1
   2   4   6 4541.00  426.00   1
  -2   4  -6 3336.00  312.80   1
  -2   4  -6 3817.00  358.30   1
   2  -4   7  606.90   59.12   1
   2  -4   7  517.80   49.10   1
  -2  -4  -7  601.80   56.51   1
  -2  -4  -7  575.70   54.43   1
   2   4   7  530.40   50.39   1
   2   4   7  573.00   54.16   1
  -2   4  -7  521.70   49.69   1
  -2   4  -7  607.90   57.20   1
   2  -4   8  156.20   18.37   1
   2  -4   8  179.50   17.88   1
  -2  -4  -8  175.30   16.55   1
  -2  -4  -8  142.90   13.50   1
   2   4   8  200.20   19.96   1
   2   4   8  158.90   15.95   1
  -2   4  -8  164.80   15.75   1
  -2   4  -8  163.70   16.50   1
   2  -4   9    9.07   8.241   1
  -2   4  -9   18.23   2.409   1
   2  -4  10  173.50   18.00   1
   2  -4  10  143.00   18.29   1
  -2   4 -10  168.90   17.28   1
   2  -4  11  366.70   40.56   1
   2  -4  11  295.70   29.53   1
  -2   4 -11  295.30   28.15   1
  -2   4 -11  302.40   29.56   1
  -2  -5  12  -8.107   7.129   1
  -2  -5  12  -1.414    7.95   1
   2   5 -12 -0.3038   2.714   1
   2   5 -12  0.2298   7.162   1
  -2  -5  11  -3.627   10.17   1
  -2  -5  11  -3.817   5.789   1
   2   5 -11-0.07271   1.737   1
   2   5 -11  -1.193   7.952   1
   2   5 -10  0.8822   6.149   1
   2   5 -10 -0.8934    1.42   1
  -2  -5   9   1.461   5.683   1
  -2  -5   9   19.68   4.687   1
   2   5  -9   19.46   6.192   1
  -2  -5   8   48.87    5.00   1
   2   5  -8   38.94   4.142   1
  -2  -5   7   9.303   3.619   1
  -2  -5   7   18.00   2.357   1
   2   5  -7   10.40   7.241   1
   2   5  -7   12.37   1.846   1
  -2  -5   6   5.507   3.916   1
  -2  -5   6   14.60   2.038   1
   2   5  -6   15.74   2.097   1
   2   5  -6   13.62   6.973   1
  -2  -5   5   16.64   4.755   1
  -2  -5   5   37.71   4.086   1
   2   5  -5   17.45   6.889   1
   2   5  -5   28.45    3.13   1
  -2   5   5   32.25   3.109   1
  -2   5   5   29.35   2.851   1
   2  -5  -4   64.98   7.478   1
   2  -5  -4   61.49   6.086   1
  -2  -5   4   57.21   7.445   1
   2   5  -4   84.00   10.93   1
   2  -5  -3   2.544   3.209   1
   2  -5  -3   3.655   1.481   1
  -2  -5   3   2.571   3.833   1
  -2  -5   3   12.66   1.939   1
   2   5  -3   8.551   5.165   1
   2   5  -3   7.796   1.676   1
  -2   5   3   10.66   1.498   1
  -2   5   3    4.87   2.393   1
   2  -5  -2  0.4109    1.61   1
   2  -5  -2   2.039    3.13   1
  -2  -5   2   2.123    1.39   1
   2   5  -2  0.2814   4.801   1
  -2   5   2   1.518   1.866   1
  -2   5   2  -1.834   2.864   1
   2  -5  -1   66.28   7.664   1
  -2  -5   1   72.56   7.796   1
   2  -5   0   26.72   4.953   1
  -2  -5   0   28.24   3.805   1
  -2  -5  -1  426.00   40.09   1
   2   5   1  414.70   39.03   1
  -2   5  -1  342.20   33.11   1
   2  -5   2   28.33   3.904   1
   2  -5   2   29.08   5.661   1
  -2  -5  -2   35.44   4.118   1
  -2  -5  -2   43.89   4.443   1
   2   5   2   46.44   4.743   1
  -2   5  -2   50.17    7.15   1
   2  -5   3  109.00   12.56   1
  -2  -5  -3  106.50   10.36   1
   2   5   3   99.55   10.20   1
   2  -5   4   33.76   7.147   1
   2  -5   4   20.93   3.655   1
  -2  -5  -4   27.40   3.236   1
   2   5   4   31.29   4.215   1
  -2   5  -4   40.56   6.576   1
   2  -5   5  -4.517   3.188   1
   2  -5   5   8.569   6.186   1
  -2  -5  -5 -0.7143   1.962   1
  -2  -5  -5   1.557  0.9784   1
   2   5   5  -1.226   2.296   1
   2   5   5    1.49   2.689   1
   2  -5   6   9.857   3.413   1
   2  -5   6   11.43   6.852   1
  -2  -5  -6   8.372   2.586   1
   2   5   6   23.28   4.326   1
   2   5   6   9.824   3.183   1
  -2   5  -6   21.80   5.267   1
   2  -5   7  118.50   15.07   1
   2   5   7  103.90   10.85   1
   2   5   7   95.55   10.68   1
   2  -5   8   10.36   8.322   1
   2  -5   8   5.687   4.099   1
  -2   5  -8   13.36   2.265   1
  -2   5  -8   4.676   4.328   1
   2  -5   9   2.408   4.479   1
   2  -5   9   4.019   7.944   1
  -2   5  -9   1.218   1.324   1
  -2   5  -9   2.903   4.037   1
   2  -5  10   11.64   9.419   1
   2  -5  10   2.242   5.356   1
  -2   5 -10   3.044   4.559   1
  -2   5 -10  0.9345   1.455   1
   2  -5  11  -8.455   11.36   1
   2  -5  11  -3.493   6.919   1
  -2   5 -11   0.691   1.818   1
  -2   5 -11 -0.2834   5.252   1
  -2  -6  12   84.93   15.38   1
  -2  -6  12  115.90   15.14   1
   2   6 -12   94.21   14.12   1
  -2  -6  11   26.74   11.78   1
   2   6 -11   7.771   2.037   1
   2   6 -11   18.66   9.106   1
  -2  -6  10  328.20   32.24   1
  -2  -6  10  357.60   36.22   1
   2   6 -10  288.30   29.29   1
  -2  -6   9 2046.00  192.60   1
   2   6  -9 2284.00  214.20   1
  -2  -6   8 1083.00  102.40   1
  -2  -6   8 1197.00  112.40   1
   2   6  -8 1099.00  104.90   1
   2   6  -8 1290.00  121.10   1
  -2  -6   7  369.90   35.89   1
  -2  -6   7  384.80   36.31   1
   2   6  -7  397.30   37.46   1
   2   6  -7  394.50   39.74   1
  -2  -6   6   3.691   4.348   1
  -2  -6   6   1.433   1.324   1
   2   6  -6 -0.4648   6.565   1
   2   6  -6   1.698   1.268   1
   2  -6  -5  696.00   65.32   1
   2  -6  -5  566.70   53.54   1
  -2  -6   5  689.60   64.86   1
  -2  -6   5  608.70   58.17   1
   2   6  -5  637.50   59.93   1
   2   6  -5  684.80   66.25   1
  -2   6   5  658.20   61.74   1
  -2   6   5  639.70   60.04   1
   2  -6  -4  863.80   81.70   1
   2  -6  -4  792.20   74.37   1
  -2  -6   4  918.60   86.30   1
  -2  -6   4  870.90   82.62   1
   2   6  -4  861.30   80.90   1
   2   6  -4  802.80   76.93   1
  -2   6   4  900.30   84.47   1
  -2   6   4  805.20   75.69   1
   2  -6  -3  787.70   74.03   1
   2  -6  -3  748.10   70.98   1
  -2  -6   3  678.50   63.80   1
  -2  -6   3  719.70   68.40   1
   2   6  -3  668.10   64.10   1
   2   6  -3  681.30   64.04   1
   2  -6  -2   55.17    7.29   1
   2  -6  -2   53.90   5.687   1
  -2  -6   2   73.42    7.26   1
  -2  -6   2   60.47   7.396   1
   2   6  -2   64.97   8.805   1
   2   6  -2   71.63   7.077   1
  -2   6   2   73.82   7.204   1
  -2   6   2   86.26   9.474   1
   2  -6  -1  315.30   30.64   1
  -2  -6   1  356.50   33.65   1
   2   6  -1  327.20   32.10   1
  -2   6   1  365.60   34.47   1
   2  -6   0  603.40   56.91   1
  -2  -6   0  462.40   43.55   1
   2   6   0  621.60   59.52   1
  -2   6   0  547.50   52.20   1
   2  -6   1 6207.00  582.40   1
   2  -6   1 7531.00  705.70   1
  -2  -6  -1 7374.00  690.90   1
  -2  -6  -1 6955.00  651.80   1
   2   6   1 7368.00  690.90   1
   2   6   1 7183.00  673.00   1
  -2   6  -1 6852.00  642.00   1
  -2   6  -1 7460.00  699.60   1
   2  -6   227930.00 2617.00   1
   2  -6   223700.00 2221.00   1
  -2  -6  -226000.00 2437.00   1
   2   6   224000.00 2247.00   1
  -2   6  -221020.00 1969.00   1
  -2   6  -226450.00 2478.00   1
   2  -6   3 6464.00  605.90   1
   2  -6   3 5834.00  547.80   1
   2   6   3 6499.00  609.00   1
  -2   6  -3 6919.00  649.10   1
  -2   6  -3 5771.00  540.80   1
   2  -6   4   5.457   3.137   1
   2  -6   4    3.18   6.879   1
  -2  -6  -4   3.949   1.784   1
  -2  -6  -4  0.7652   1.147   1
   2   6   4   1.407   1.685   1
   2   6   4   7.326   4.022   1
  -2   6  -4   3.982   1.562   1
  -2   6  -4   3.911   4.773   1
  -2  -6  -5 1086.00  101.90   1
  -2  -6  -5 1222.00  114.80   1
   2   6   5 1105.00  103.80   1
   2   6   5 1231.00  116.20   1
  -2   6  -5 1457.00  137.70   1
  -2   6  -5 1019.00   95.74   1
   2  -6   6 2828.00  265.60   1
   2  -6   6 3083.00  290.80   1
  -2  -6  -6 2716.00  254.70   1
  -2  -6  -6 3030.00  284.00   1
   2   6   6 3021.00  283.30   1
   2   6   6 3425.00  321.70   1
  -2   6  -6 3581.00  336.60   1
  -2   6  -6 2945.00  276.10   1
   2  -6   7 3190.00  300.90   1
   2  -6   7 3226.00  303.00   1
  -2  -6  -7 3608.00  338.50   1
  -2  -6  -7 3092.00  289.90   1
   2   6   7 3369.00  316.50   1
   2   6   7 3261.00  306.20   1
  -2   6  -7 3604.00  338.80   1
   2  -6   8   3.105   4.458   1
   2  -6   8   2.106   8.119   1
  -2   6  -8   4.738   1.512   1
  -2   6  -8   4.585   4.949   1
   2  -6   9  250.90   27.41   1
   2  -6   9  223.20   22.33   1
  -2   6  -9  219.80   22.00   1
  -2   6  -9  246.80   23.43   1
   2  -6  10  276.10   27.54   1
   2  -6  10  217.80   25.13   1
  -2   6 -10  266.80   26.49   1
  -2   6 -10  280.00   26.58   1
   2  -6  11  240.60   25.37   1
   2  -6  11  199.40   25.10   1
  -2   6 -11  228.30   23.59   1
  -2   6 -11  198.20   19.06   1
  -2  -7  12  -9.894   14.33   1
  -2  -7  12  0.2385   7.935   1
   2   7 -12   10.53   10.60   1
   2   7 -12  0.1208   2.501   1
  -2  -7  11   2.877    5.87   1
  -2  -7  11   9.422   12.13   1
   2   7 -11   11.02   2.282   1
   2   7 -11   13.86   8.663   1
  -2  -7  10   3.322   8.563   1
  -2  -7  10   15.37   5.406   1
   2   7 -10   24.44   3.116   1
   2   7 -10   19.57   7.025   1
  -2  -7   9   8.193   7.001   1
  -2  -7   9   37.29   6.665   1
   2   7  -9   38.69   8.228   1
  -2  -7   8   2.336    1.54   1
  -2  -7   8  -2.018   4.501   1
   2   7  -8  -10.36   7.049   1
  -2  -7   7   14.58   2.303   1
  -2  -7   7   2.309   4.792   1
   2   7  -7   5.924    8.76   1
   2   7  -7   8.478   1.729   1
  -2  -7   6  0.8976   4.877   1
  -2  -7   6  0.5872   1.566   1
   2   7  -6  -2.672   7.668   1
   2   7  -6 -0.2918   1.338   1
   2  -7  -5   0.638   2.968   1
   2  -7  -5   0.591   1.562   1
  -2  -7   5-0.07141   4.833   1
  -2  -7   5  0.3517   1.373   1
   2   7  -5   4.124   7.204   1
   2   7  -5 -0.6783   1.225   1
  -2   7   5  0.3534   0.802   1
  -2   7   5-0.08611   1.803   1
   2  -7  -4  138.60   14.56   1
  -2  -7   4  146.80   15.74   1
   2   7  -4  132.80   15.68   1
   2  -7  -3   1.844   2.101   1
   2  -7  -3  0.8614   5.001   1
  -2  -7   3  0.6856   4.587   1
  -2  -7   3  0.6019   1.452   1
   2   7  -3  0.7063   1.363   1
   2   7  -3   2.003   5.981   1
  -2   7   3  -3.142   3.603   1
  -2   7   3 -0.2195   1.314   1
   2  -7  -2   77.97   9.754   1
  -2  -7   2   72.56   8.848   1
   2   7  -2   67.72    9.48   1
  -2  -7   1   49.25   6.556   1
   2   7  -1   50.21   8.202   1
  -2   7   1   67.28   8.124   1
   2  -7   0   36.46   6.961   1
  -2  -7   0   57.11   5.785   1
   2   7   0   52.10   5.283   1
  -2   7   0   61.36   6.204   1
  -2   7   0   33.16   5.601   1
   2  -7   1  112.80   13.50   1
  -2  -7  -1   90.32   9.363   1
   2   7   1  102.30   11.95   1
  -2   7  -1  112.10   12.24   1
   2  -7   2  222.80   23.25   1
   2   7   2  244.70   24.58   1
  -2   7  -2  215.50   21.64   1
   2  -7   3   7.505   6.666   1
   2  -7   3    2.93   3.086   1
  -2  -7  -3   15.14   2.054   1
   2   7   3   14.67   5.424   1
  -2   7  -3   17.07   2.475   1
  -2   7  -3   9.455   4.802   1
   2  -7   4 -0.5164   3.077   1
   2  -7   4  -4.736   6.517   1
  -2  -7  -4  0.7033   1.808   1
   2   7   4 -0.7808   1.616   1
   2   7   4   -5.60   5.194   1
  -2   7  -4   1.568   1.423   1
  -2   7  -4  -5.007   4.554   1
   2  -7   5    3.36   6.563   1
   2  -7   5   6.816   3.767   1
  -2  -7  -5   2.724   1.925   1
   2   7   5   7.522   1.969   1
  -2   7  -5   5.892   5.309   1
  -2   7  -5   9.501   1.768   1
   2  -7   6  -6.653    7.66   1
  -2  -7  -6   11.89   1.645   1
  -2  -7  -6   1.853   2.508   1
   2   7   6   12.43   2.937   1
   2   7   6   12.26   5.306   1
  -2   7  -6   11.55   5.531   1
  -2  -7  -7  115.90   11.04   1
   2   7   7   95.52   10.47   1
  -2   7  -7   95.80   11.80   1
  -2   7  -7  123.20   11.93   1
   2  -7   8   -4.91   8.354   1
   2  -7   8  0.7146   4.563   1
  -2   7  -8   3.405   1.459   1
  -2   7  -8  -1.083   5.088   1
   2  -7   9   11.26   5.618   1
   2  -7   9   14.93   8.804   1
  -2   7  -9   13.42   5.141   1
  -2   7  -9   16.07   2.286   1
   2  -7  10   8.867   9.833   1
   2  -7  10  -1.174   5.852   1
  -2   7 -10  0.2263   1.575   1
  -2   7 -10 -0.3479    4.98   1
   2  -7  11  -6.752    7.85   1
   2  -7  11   12.04   12.27   1
  -2   7 -11   6.885   6.409   1
  -2  -8  12   46.61   19.02   1
  -2  -8  12   53.97   11.36   1
   2   8 -12   48.72   5.708   1
  -2  -8  11   46.69   13.83   1
  -2  -8  11   62.33   9.476   1
   2   8 -11   62.89   6.653   1
   2   8 -11   64.01   11.67   1
  -2  -8  10  649.70   62.42   1
  -2  -8  10  626.30   61.38   1
   2   8 -10  512.70   50.40   1
   2   8 -10  682.60   64.27   1
  -2  -8   9  477.90   46.85   1
  -2  -8   9  550.50   53.14   1
   2   8  -9  617.80   58.18   1
   2   8  -9  494.70   48.66   1
  -2  -8   8  178.80   18.75   1
  -2  -8   8  136.40   13.14   1
   2   8  -8  152.50   18.09   1
   2   8  -8  163.00   15.62   1
  -2  -8   7  377.40   35.66   1
   2   8  -7  397.10   40.42   1
   2  -8  -6   61.40   6.061   1
   2  -8  -6   65.69   6.308   1
  -2  -8   6   64.03    8.67   1
   2   8  -6   71.05   7.061   1
  -2   8   6   64.65   6.124   1
  -2   8   6   74.48   7.096   1
   2  -8  -5  219.40   20.81   1
   2  -8  -5  183.90   18.28   1
  -2  -8   5  153.80   14.75   1
  -2  -8   5  210.10   21.66   1
   2   8  -5  199.70   22.19   1
   2   8  -5  162.50   15.54   1
  -2   8   5  186.30   17.84   1
  -2   8   5  164.50   15.55   1
   2  -8  -4  607.40   57.22   1
   2  -8  -4  584.30   55.91   1
  -2  -8   4  630.40   59.35   1
  -2  -8   4  612.80   58.85   1
   2   8  -4  618.00   58.15   1
   2   8  -4  597.30   58.25   1
  -2   8   4  634.30   59.59   1
  -2   8   4  749.00   70.79   1
   2  -8  -3   9.314   2.714   1
   2  -8  -3   14.16   5.724   1
  -2  -8   3   14.63   5.388   1
  -2  -8   3   21.39   2.697   1
   2   8  -3   17.93   2.411   1
   2   8  -3   7.295   6.567   1
  -2   8   3   24.62   5.026   1
  -2   8   3   25.71   2.972   1
   2  -8  -2  615.30   59.29   1
   2  -8  -2  560.80   52.94   1
  -2  -8   2  620.50   58.41   1
  -2  -8   2  619.40   59.23   1
   2   8  -2  537.10   52.12   1
   2   8  -2  640.20   60.23   1
  -2   8   2  603.30   57.43   1
   2  -8  -1   4.177   2.327   1
   2  -8  -1   8.519   5.923   1
  -2  -8   1   7.583   1.725   1
  -2  -8   1   4.019   4.255   1
   2   8  -1   7.708   1.746   1
   2   8  -1   6.862   6.198   1
  -2   8   1   5.624   4.085   1
  -2   8   1   7.098   1.797   1
   2  -8   0 2995.00  281.90   1
   2  -8   0 2740.00  257.10   1
  -2  -8   0 2634.00  247.40   1
  -2  -8   0 2751.00  257.90   1
   2   8   0 2772.00  261.10   1
   2   8   0 2896.00  271.50   1
  -2   8   0 2972.00  278.60   1
  -2   8   0 2632.00  247.40   1
   2  -8   116520.00 1548.00   1
   2  -8   118220.00 1708.00   1
  -2  -8  -115630.00 1464.00   1
  -2  -8  -116150.00 1513.00   1
   2   8   116500.00 1545.00   1
   2   8   116300.00 1528.00   1
  -2   8  -115900.00 1490.00   1
  -2   8  -115210.00 1425.00   1
   2  -8   2 2756.00  259.80   1
   2  -8   2 2830.00  265.60   1
  -2  -8  -2 2699.00  253.20   1
  -2  -8  -2 2254.00  211.40   1
   2   8   2 2259.00  211.80   1
   2   8   2 2695.00  253.70   1
  -2   8  -2 2076.00  194.80   1
  -2   8  -2 2386.00  224.50   1
   2  -8   3 1306.00  122.90   1
   2  -8   3 1262.00  120.10   1
  -2  -8  -3 1061.00   99.58   1
  -2  -8  -3 1264.00  118.80   1
   2   8   3 1073.00  100.70   1
   2   8   3 1276.00  120.80   1
  -2   8  -3 1005.00   94.39   1
  -2   8  -3 1031.00   97.66   1
   2  -8   4  135.20   13.81   1
   2  -8   4  136.60   16.00   1
  -2  -8  -4  139.40   13.31   1
   2   8   4  135.00   14.85   1
  -2   8  -4  146.70   15.70   1
  -2   8  -4  141.70   13.64   1
   2  -8   5 1572.00  149.40   1
   2  -8   5 1823.00  171.50   1
  -2  -8  -5 1494.00  140.10   1
   2   8   5 1604.00  151.50   1
   2   8   5 1373.00  128.80   1
  -2   8  -5 1846.00  174.20   1
   2  -8   6 2737.00  257.30   1
   2  -8   6 2597.00  245.50   1
  -2  -8  -6 3004.00  281.80   1
   2   8   6 2769.00  259.70   1
   2   8   6 2434.00  229.40   1
  -2   8  -6 3261.00  306.80   1
  -2   8  -6 2724.00  255.40   1
   2  -8   7   3.154   5.258   1
   2  -8   7   1.864   8.214   1
  -2  -8  -7   7.153   3.216   1
  -2  -8  -7   6.597   1.295   1
   2   8   7   4.906   6.165   1
   2   8   7   7.112   4.025   1
  -2   8  -7   4.424   6.077   1
  -2   8  -7   5.504   1.558   1
   2  -8   8    2.96   8.622   1
   2  -8   8   10.14   5.231   1
  -2   8  -8   13.89   2.091   1
  -2   8  -8   21.11   6.583   1
   2  -8   9   58.05   11.52   1
   2  -8   9   64.85   8.959   1
  -2   8  -9   71.82   7.172   1
  -2   8  -9   69.21   9.602   1
   2  -8  10  158.40   17.06   1
  -2   8 -10  158.00   17.02   1
  -2   8 -10  177.80   17.06   1
   2  -8  11  192.10   21.92   1
   2  -8  11  188.20   25.71   1
  -2   8 -11  174.30   16.90   1
  -2   8 -11  165.70   18.47   1
  -2  -9  12  -1.808   8.445   1
  -2  -9  12   13.20   17.97   1
   2   9 -12   3.628    2.92   1
   2   9 -12   16.43   12.69   1
  -2  -9  11   5.023   12.68   1
   2   9 -11   6.523   8.778   1
   2   9 -11  0.3719   1.938   1
  -2  -9  10   22.87   6.837   1
  -2  -9  10   9.442   9.273   1
   2   9 -10   32.27   3.802   1
  -2  -9   9   8.244   7.429   1
  -2  -9   9   5.507   5.766   1
   2   9  -9   1.261   1.543   1
   2   9  -9  -2.161   6.951   1
  -2  -9   8   7.545   6.025   1
  -2  -9   8   15.22    2.32   1
   2   9  -8   9.564   1.931   1
   2   9  -8   1.716   7.837   1
  -2  -9   7  -1.573   1.648   1
  -2  -9   7   2.753   5.306   1
   2   9  -7   -9.34   8.824   1
   2   9  -7   1.959   1.486   1
   2  -9  -6   2.364   2.362   1
   2  -9  -6   2.019   1.683   1
  -2  -9   6   4.819    5.50   1
  -2  -9   6   2.759   1.695   1
   2   9  -6   4.812   8.696   1
   2   9  -6   1.038   1.378   1
  -2   9   6 -0.2668  0.7738   1
  -2   9   6   1.094   1.621   1
   2  -9  -5   35.66   5.895   1
  -2  -9   5   24.69   6.725   1
   2   9  -5   28.94   9.146   1
   2   9  -5   50.92   5.263   1
  -2   9   5   37.61   4.813   1
   2  -9  -4   41.12   6.832   1
  -2  -9   4   32.65   6.741   1
   2   9  -4   30.32   8.732   1
  -2   9   4   45.74   6.392   1
   2  -9  -3   6.107   5.649   1
   2  -9  -3 -0.3715   2.476   1
  -2  -9   3   21.01   5.796   1
  -2  -9   3    9.96   1.938   1
   2   9  -3   10.25   1.912   1
   2   9  -3   12.26   7.286   1
  -2   9   3   12.33   1.927   1
  -2   9   3   3.128   3.919   1
   2  -9  -2   12.41    6.22   1
  -2  -9   2   25.35   3.018   1
  -2  -9   2   9.157   5.063   1
   2   9  -2   17.74   7.225   1
   2   9  -2   20.39   2.651   1
  -2   9   2   9.698   4.151   1
  -2   9   2   27.77   3.232   1
   2  -9  -1  101.30   12.61   1
  -2  -9   1   69.76   8.691   1
   2   9  -1   85.56   11.43   1
  -2   9   1   79.95   9.354   1
   2  -9   0   23.01   7.717   1
  -2  -9   0   24.22   4.648   1
   2   9   0   33.07   7.542   1
  -2   9   0   25.36   5.375   1
   2  -9   1   1.501   2.744   1
   2  -9   1  -3.106   6.999   1
  -2  -9  -1   2.893   1.428   1
  -2  -9  -1   3.198   2.997   1
   2   9   1   3.811   5.538   1
   2   9   1   2.814   1.423   1
  -2   9  -1   5.271   4.357   1
  -2   9  -1   4.143   1.906   1
   2  -9   2  -2.426   2.853   1
   2  -9   2  -7.279   6.563   1
  -2  -9  -2  -1.029   1.337   1
  -2  -9  -2  -1.025   2.438   1
   2   9   2   2.806   5.569   1
   2   9   2  -1.256   1.241   1
  -2   9  -2  0.1915   1.642   1
  -2   9  -2   1.187   4.368   1
   2  -9   3   3.456   3.289   1
   2  -9   3   5.829   7.382   1
  -2  -9  -3   8.451   2.719   1
  -2  -9  -3   14.65   2.105   1
   2   9   3   4.956   5.573   1
   2   9   3   12.11   1.831   1
  -2   9  -3   13.01   2.097   1
  -2   9  -3   9.666   5.192   1
   2  -9   4  -2.344    3.56   1
  -2  -9  -4   1.191    1.23   1
  -2  -9  -4  -2.003   2.222   1
   2   9   4   2.376   1.524   1
   2   9   4   11.12   5.911   1
  -2   9  -4   2.484   4.927   1
   2  -9   5    4.76    3.99   1
   2  -9   5    9.45    7.90   1
  -2  -9  -5   16.23   2.137   1
  -2  -9  -5   7.162   2.366   1
   2   9   5  -4.693    6.05   1
  -2   9  -5   16.71   5.917   1
   2  -9   6  -15.37   8.285   1
   2  -9   6   1.215   4.971   1
  -2  -9  -6 -0.6103   1.148   1
  -2  -9  -6 -0.7726   2.515   1
   2   9   6  -1.357    2.37   1
   2   9   6   2.912   6.244   1
  -2   9  -6  -2.637   5.813   1
  -2   9  -6   2.139   1.436   1
   2  -9   7   13.85   8.668   1
   2  -9   7   5.748   5.657   1
  -2  -9  -7   20.49   2.361   1
  -2  -9  -7   11.18   3.219   1
   2   9   7   18.99   3.865   1
   2   9   7   11.73   6.709   1
  -2   9  -7   18.71   2.489   1
  -2   9  -7   15.17    6.66   1
   2  -9   8  -4.416   8.589   1
   2  -9   8   3.884   6.073   1
  -2   9  -8   1.998   6.404   1
  -2   9  -8 -0.3082    1.34   1
   2  -9   9   6.079   5.617   1
  -2   9  -9   8.679   1.836   1
  -2   9  -9   1.268   5.985   1
   2  -9  10   3.738   6.328   1
   2  -9  10   16.39   10.90   1
  -2   9 -10   0.897   5.693   1
  -2   9 -10   0.529   1.603   1
   2  -9  11  0.5012   8.474   1
   2  -9  11   -5.85   13.67   1
  -2   9 -11   1.343   1.934   1
  -2   9 -11  -5.331   7.264   1
  -2 -10  12   31.61   9.778   1
  -2 -10  12   14.00   16.64   1
   2  10 -12   36.08    4.93   1
   2  10 -12   45.54   14.06   1
  -2 -10  11   4.514   14.61   1
  -2 -10  11  -3.036    6.95   1
   2  10 -11   1.748   2.106   1
   2  10 -11   4.527   9.823   1
  -2 -10  10  186.30   20.46   1
   2  10 -10  176.90   17.02   1
  -2 -10   9  275.10   27.96   1
   2  10  -9  273.90   26.03   1
  -2 -10   8  198.40   18.93   1
  -2 -10   8  223.10   23.45   1
   2  10  -8  193.50   22.08   1
   2  10  -8  209.90   20.02   1
  -2 -10   7  329.50   31.20   1
  -2 -10   7  302.00   30.48   1
   2  10  -7  302.20   28.64   1
   2  10  -7  325.70   34.34   1
   2 -10  -6   7.242   3.393   1
   2 -10  -6   16.62   2.772   1
  -2 -10   6   12.42   2.289   1
  -2 -10   6   20.72   6.402   1
   2  10  -6   34.05   10.66   1
   2  10  -6   16.98   2.394   1
  -2  10   6   12.30   2.769   1
  -2  10   6   15.12   1.823   1
   2 -10  -5  712.10   67.83   1
  -2 -10   5  661.30   62.26   1
  -2 -10   5  694.40   66.71   1
   2  10  -5  620.00   58.36   1
   2  10  -5  743.30   72.54   1
  -2  10   5  675.30   63.43   1
   2 -10  -4 2094.00  196.60   1
   2 -10  -4 1935.00  182.40   1
  -2 -10   4 2298.00  215.60   1
   2  10  -4 2110.00  199.80   1
  -2  10   4 2813.00  264.50   1
  -2  10   4 2119.00  198.70   1
   2 -10  -3  761.70   72.99   1
   2 -10  -3  824.40   77.75   1
  -2 -10   3  820.30   78.39   1
   2  10  -3  738.30   69.44   1
  -2  10   3  665.50   62.58   1
  -2  10   3  835.40   79.24   1
   2 -10  -2  314.50   30.06   1
   2 -10  -2  347.30   34.70   1
  -2 -10   2  395.40   38.57   1
  -2 -10   2  400.10   37.80   1
   2  10  -2  329.50   33.41   1
   2  10  -2  414.60   39.12   1
   2 -10  -1   15.67   3.193   1
   2 -10  -1   19.13    7.05   1
  -2 -10   1   11.47   4.605   1
  -2 -10   1   6.869   1.714   1
   2  10  -1   7.769    1.73   1
   2  10  -1   11.84   7.134   1
  -2  10   1   11.39   2.059   1
  -2  10   1    6.26   4.163   1
   2 -10   0 2097.00  196.90   1
   2 -10   0 2293.00  216.50   1
  -2 -10   0 1951.00  183.60   1
  -2 -10   0 2000.00  187.60   1
   2  10   0 2059.00  193.10   1
   2  10   0 1975.00  186.70   1
  -2  10   0 2014.00  189.00   1
  -2  10   0 1818.00  171.20   1
   2 -10   1 1435.00  136.50   1
   2 -10   1 1469.00  138.20   1
  -2 -10  -1 1200.00  113.10   1
  -2 -10  -1 1202.00  112.90   1
   2  10   1 1248.00  117.10   1
   2  10   1 1317.00  125.00   1
  -2  10  -1 1224.00  114.90   1
  -2  10  -1 1155.00  109.20   1
   2 -10   2 1650.00  156.60   1
   2  10   2 1504.00  142.50   1
   2  10   2 1498.00  140.50   1
  -2  10  -2 1376.00  129.20   1
   2 -10   3  167.70   16.74   1
  -2 -10  -3  142.30   13.64   1
  -2 -10  -3  154.10   15.26   1
   2  10   3  132.90   15.15   1
   2  10   3  148.60   14.21   1
  -2  10  -3  131.00   14.25   1
   2 -10   4   97.05   10.64   1
   2 -10   4  106.60   14.21   1
  -2 -10  -4   83.00    8.13   1
  -2 -10  -4   84.96   8.827   1
   2  10   4   86.69   8.489   1
   2  10   4   92.29   12.14   1
  -2  10  -4   80.94   10.29   1
  -2  10  -4   94.54   9.295   1
   2 -10   5  147.90   15.42   1
   2 -10   5  132.30   16.48   1
  -2 -10  -5  126.70   12.50   1
  -2 -10  -5  116.80   11.24   1
   2  10   5  132.50   15.64   1
   2  10   5  129.70   12.59   1
  -2  10  -5  114.00   11.08   1
  -2  10  -5  129.80   14.78   1
   2 -10   6  131.90   16.86   1
  -2 -10  -6  151.10   14.72   1
  -2 -10  -6  198.60   18.85   1
   2  10   6  149.50   17.56   1
  -2  10  -6  191.50   18.28   1
  -2  10  -6  154.90   17.21   1
   2 -10   7  668.20   65.59   1
   2 -10   7  768.60   73.54   1
  -2 -10  -7  690.80   64.89   1
  -2 -10  -7  737.90   69.57   1
   2  10   7  711.80   67.14   1
   2  10   7  718.50   69.15   1
  -2  10  -7  677.30   63.76   1
  -2  10  -7  865.80   83.15   1
   2 -10   8   43.32   8.169   1
  -2  10  -8   42.26   9.016   1
  -2  10  -8   44.15   4.759   1
   2 -10   9   9.754   6.154   1
   2 -10   9   12.52   9.931   1
  -2  10  -9   15.40   6.828   1
  -2  10  -9   15.08   2.258   1
   2 -10  10   84.06   11.52   1
   2 -10  10  110.90   17.21   1
  -2  10 -10   98.87   9.772   1
  -2  10 -10  107.30   13.26   1
   2 -10  11   75.91   12.63   1
  -2  10 -11   84.08   12.58   1
  -2  10 -11   86.86   8.823   1
  -2 -11  11   7.594   14.81   1
  -2 -11  11   10.83   7.259   1
   2  11 -11   4.444   2.078   1
   2  11 -10   2.515   1.808   1
  -2 -11   9  -7.102   7.763   1
  -2 -11   9  -5.665    6.16   1
   2  11  -9   13.46   7.989   1
   2  11  -9   3.573   1.693   1
  -2 -11   8   1.108   1.741   1
  -2 -11   8  -3.209   6.329   1
   2  11  -8  0.7659   1.586   1
   2  11  -8  -6.129   8.735   1
  -2 -11   7   1.247   1.699   1
  -2 -11   7   5.196   5.933   1
   2  11  -7  -1.565   1.483   1
   2  11  -7 -0.4815   9.278   1
   2 -11  -6  -1.718   3.759   1
   2 -11  -6   4.406   2.617   1
  -2 -11   6   3.402   1.862   1
  -2 -11   6   4.196   5.852   1
   2  11  -6   2.834    9.99   1
   2  11  -6   3.238   1.612   1
  -2  11   6   4.125   1.259   1
  -2  11   6   5.083   2.879   1
   2  11  -5  107.10   10.47   1
   2  11  -5   64.33   12.92   1
  -2  11   5   83.95   9.596   1
  -2  11   5   99.37    9.61   1
  -2 -11   4   32.13   3.758   1
  -2 -11   4   10.25   6.317   1
   2  11  -4   15.60   9.336   1
   2  11  -4   25.10   3.075   1
  -2  11   4   17.52   5.197   1
  -2  11   4   24.94   2.851   1
   2 -11  -3   4.043   5.702   1
   2 -11  -3    6.06   3.027   1
  -2 -11   3   4.351   6.018   1
  -2 -11   3   12.80   2.122   1
   2  11  -3    7.00   7.472   1
   2  11  -3   11.28   2.113   1
  -2  11   3   11.47   4.631   1
  -2  11   3   11.28   1.897   1
   2 -11  -2  0.4216    2.87   1
   2 -11  -2  -8.657   6.304   1
  -2 -11   2  0.4312   5.169   1
  -2 -11   2  -1.222   1.471   1
   2  11  -2   8.838   7.171   1
   2  11  -2  0.9505   1.401   1
  -2  11   2 -0.3779   3.919   1
  -2  11   2  0.9351   1.454   1
   2 -11  -1   3.031   6.613   1
   2 -11  -1 -0.5748   2.842   1
  -2 -11   1   12.10   5.091   1
   2  11  -1   8.278   1.804   1
  -2  11   1   3.747   4.465   1
  -2  11   1   12.82   2.137   1
   2 -11   0   20.39   7.651   1
  -2 -11   0   34.46   3.808   1
   2  11   0   28.01   3.241   1
   2  11   0   9.889   6.991   1
  -2  11   0   37.19   4.134   1
   2 -11   1 -0.6956   6.886   1
  -2 -11  -1   7.324   1.658   1
  -2 -11  -1  -3.492   3.345   1
   2  11   1   6.009   1.586   1
   2  11   1  -1.266   6.824   1
  -2  11  -1   9.402   1.983   1
   2 -11   2  0.6398   3.113   1
  -2 -11  -2    2.66    1.44   1
  -2 -11  -2   3.451   2.908   1
   2  11   2  -5.774   6.646   1
   2  11   2   1.225   1.332   1
  -2  11  -2   5.765   4.532   1
   2 -11   3  -2.608   3.744   1
   2 -11   3   1.978   7.167   1
  -2 -11  -3   2.633   2.938   1
  -2 -11  -3   1.167   1.479   1
   2  11   3   1.236   1.282   1
   2  11   3  -1.066   6.941   1
  -2  11  -3   2.505   5.132   1
  -2  11  -3    1.65   1.613   1
   2 -11   4   2.342   4.503   1
   2 -11   4   4.562   7.591   1
  -2 -11  -4   4.655   2.972   1
  -2 -11  -4   9.319   1.876   1
   2  11   4   10.47   8.075   1
   2  11   4   9.328   1.797   1
  -2  11  -4   5.327   5.137   1
  -2  11  -4   10.93   1.962   1
   2 -11   5   21.77    9.09   1
   2 -11   5   7.492   5.165   1
  -2 -11  -5   9.983   1.886   1
  -2 -11  -5   9.844   2.889   1
   2  11   5   15.67   8.431   1
   2  11   5   13.87   2.541   1
  -2  11  -5   11.74   2.038   1
  -2  11  -5   13.46   6.393   1
   2 -11   6   2.427   7.894   1
   2 -11   6   -3.49   5.574   1
  -2 -11  -6   3.574   1.617   1
  -2 -11  -6 0.04585   2.605   1
   2  11   6  -3.609   8.605   1
   2  11   6  -1.519   2.063   1
  -2  11  -6  -3.987   6.234   1
  -2  11  -6   4.842   1.571   1
   2 -11   7   1.156   6.414   1
  -2 -11  -7 -0.4917   3.349   1
   2  11   7 -0.1905   3.386   1
  -2  11  -7  -1.813   6.521   1
   2 -11   8  -5.808   8.764   1
   2 -11   8  -1.747   6.906   1
  -2  11  -8   2.668   7.123   1
  -2  11  -8  -1.158   1.406   1
   2 -11   9   6.266   9.263   1
   2 -11   9   8.599    7.29   1
  -2  11  -9   3.168   1.604   1
  -2  11  -9   3.596   7.507   1
   2 -11  10  -7.887    7.12   1
  -2  11 -10   1.121   6.922   1
  -2  11 -10  0.9348   1.643   1
   2 -11  11  -4.216   9.209   1
   2 -11  11   4.963   12.34   1
  -2  11 -11   1.064    1.81   1
  -2  11 -11  -9.225    7.70   1
  -2 -12  11 -0.1774   15.52   1
  -2 -12  11  -4.754   7.098   1
   2  12 -11  -12.99   10.66   1
   2  12 -11   4.658   2.039   1
  -2 -12  10   27.71   8.456   1
  -2 -12   9  132.80   16.33   1
  -2 -12   9  157.40   17.72   1
   2  12  -9  120.10   15.59   1
   2  12  -9  161.50   15.57   1
  -2 -12   8  142.50   16.35   1
  -2 -12   8  113.30   11.06   1
   2  12  -8  153.50   14.81   1
   2  12  -8  153.90   19.12   1
   2 -12  -7  117.80   11.50   1
   2 -12  -7  106.50   10.55   1
  -2 -12   7  100.70   13.03   1
  -2 -12   7  117.90   11.49   1
   2  12  -7  118.40   16.87   1
  -2  12   7  106.00   10.26   1
  -2  12   7  101.00   9.602   1
   2 -12  -6  223.30   21.61   1
  -2 -12   6  302.80   28.74   1
  -2 -12   6  258.00   26.83   1
   2  12  -6  241.90   27.56   1
  -2  12   6  271.10   26.22   1
   2 -12  -5  559.50   53.10   1
   2 -12  -5  524.20   50.78   1
  -2 -12   5  473.40   44.69   1
  -2 -12   5  489.40   48.05   1
   2  12  -5  556.30   55.89   1
   2  12  -5  462.20   43.63   1
  -2  12   5  452.60   42.62   1
  -2  12   5  634.40   60.61   1
   2 -12  -4 2509.00  235.60   1
   2 -12  -4 2368.00  223.30   1
  -2 -12   4 2810.00  263.50   1
  -2 -12   4 2765.00  260.60   1
   2  12  -4 2800.00  265.00   1
   2  12  -4 2595.00  243.40   1
  -2  12   4 2495.00  234.00   1
  -2  12   4 3011.00  283.10   1
   2 -12  -3 1235.00  117.30   1
   2 -12  -3 1433.00  134.90   1
  -2 -12   3 1424.00  134.90   1
  -2 -12   3 1289.00  121.10   1
   2  12  -3 1282.00  120.40   1
   2  12  -3 1346.00  128.70   1
  -2  12   3 1352.00  127.80   1
  -2  12   3 1201.00  112.70   1
   2 -12  -2  160.10   17.78   1
  -2 -12   2  201.50   21.06   1
  -2 -12   2  245.10   23.34   1
   2  12  -2  209.50   23.46   1
   2  12  -2  228.00   21.68   1
  -2  12   2  184.80   19.01   1
  -2  12   2  219.90   20.93   1
   2 -12  -1   48.43    9.16   1
  -2 -12   1   22.20   2.837   1
   2  12  -1   18.39   8.533   1
  -2  12   1   24.70   3.039   1
   2 -12   0  586.10   57.36   1
   2 -12   0  504.20   48.03   1
  -2 -12   0  486.90   46.80   1
  -2 -12   0  571.30   53.83   1
   2  12   0  588.90   55.46   1
   2  12   0  524.60   51.66   1
  -2  12   0  598.60   56.40   1
  -2  12   0  484.20   46.71   1
   2 -12   1 1617.00  153.60   1
   2 -12   1 1482.00  139.60   1
  -2 -12  -1 1435.00  135.30   1
   2  12   1 1503.00  141.10   1
  -2  12  -1 1237.00  117.10   1
  -2  12  -1 1423.00  133.60   1
   2 -12   2  603.60   59.21   1
   2 -12   2  624.60   59.42   1
  -2 -12  -2  487.10   45.94   1
  -2 -12  -2  541.10   51.48   1
   2  12   2  550.00   54.02   1
   2  12   2  517.20   48.71   1
  -2  12  -2  471.10   45.64   1
  -2  12  -2  460.00   43.43   1
   2 -12   3   17.48   7.911   1
   2 -12   3   20.83    4.90   1
  -2 -12  -3   2.532   1.657   1
  -2 -12  -3   7.464    3.40   1
   2  12   3   4.746   1.502   1
   2  12   3   18.37   8.444   1
  -2  12  -3   2.041   1.537   1
  -2  12  -3   15.34   5.685   1
   2 -12   4  100.00   14.16   1
   2 -12   4   82.83   9.856   1
  -2 -12  -4  118.10   11.46   1
  -2 -12  -4  108.10   11.21   1
   2  12   4  104.00   10.12   1
   2  12   4  101.10   14.36   1
  -2  12  -4  115.50   11.24   1
  -2  12  -4  102.10   12.41   1
   2 -12   5  238.30   26.02   1
   2 -12   5  259.00   25.94   1
  -2 -12  -5  246.40   23.38   1
  -2 -12  -5  240.80   23.30   1
   2  12   5  234.00   25.86   1
   2  12   5  287.20   27.32   1
  -2  12  -5  259.00   26.51   1
  -2  12  -5  236.10   22.48   1
   2 -12   6 1427.00  135.10   1
  -2 -12  -6 1352.00  127.10   1
  -2 -12  -6 1384.00  129.90   1
   2  12   6 1494.00  142.40   1
   2  12   6 1311.00  123.20   1
  -2  12  -6 1478.00  140.30   1
   2 -12   7  172.50   20.45   1
   2 -12   7  229.20   23.96   1
  -2 -12  -7  214.70   20.95   1
  -2 -12  -7  172.10   16.39   1
   2  12   7  223.90   24.88   1
  -2  12  -7  225.00   24.09   1
  -2  12  -7  162.30   15.59   1
   2 -12   8   97.50   12.99   1
   2 -12   8   97.73   14.85   1
  -2  12  -8  102.40   13.87   1
  -2  12  -8   86.05   8.517   1
   2 -12   9   1.797   10.41   1
   2 -12   9   9.709    7.70   1
  -2  12  -9   8.693   7.562   1
   2 -12  10  111.20   15.08   1
   2 -12  10  118.00   19.07   1
  -2  12 -10  131.50   12.86   1
  -2  12 -10  136.00   16.82   1
   2 -12  11  253.40   28.32   1
  -2  12 -11  244.00   23.36   1
  -2 -13  11  -2.084   7.976   1
  -2 -13  11   2.352   14.96   1
   2  13 -11  -8.656   10.73   1
   2  13 -11-0.02356   2.089   1
  -2 -13  10  -7.196   7.042   1
  -2 -13  10  -23.77   11.30   1
   2  13 -10  -1.591   1.926   1
   2  13 -10  -6.747   9.478   1
  -2 -13   9-0.08554   6.364   1
   2  13  -9  0.8131   1.697   1
  -2 -13   8  -4.696   6.538   1
  -2 -13   8   4.534    1.76   1
   2  13  -8   6.016   1.862   1
   2  13  -8  -2.235    8.60   1
   2 -13  -7 -0.9626   2.995   1
   2 -13  -7   3.183   3.376   1
  -2 -13   7  -1.073    1.73   1
  -2 -13   7   1.934    6.69   1
   2  13  -7  -4.804   10.13   1
   2  13  -7  0.2141   1.568   1
  -2  13   7   1.764   2.992   1
  -2  13   7 -0.3808    1.13   1
   2 -13  -6   10.72   5.272   1
   2 -13  -6   9.076   3.724   1
  -2 -13   6   17.51   2.725   1
  -2  13   6   18.66   2.437   1
  -2  13   6   15.21   4.696   1
   2 -13  -5   46.16   8.446   1
  -2 -13   5   33.76   8.433   1
   2  13  -5   69.52   7.069   1
   2  13  -5   36.77   13.15   1
  -2  13   5   63.22   6.373   1
  -2  13   5   60.13   8.913   1
   2 -13  -4   8.568   3.945   1
   2 -13  -4   10.36   6.467   1
  -2 -13   4   29.72   3.634   1
  -2 -13   4   9.419    6.73   1
   2  13  -4   18.37   2.643   1
   2  13  -4   26.52   11.74   1
  -2  13   4   20.06   2.583   1
  -2  13   4    9.46   5.684   1
   2 -13  -3   4.984   3.896   1
   2 -13  -3   1.797   6.496   1
  -2 -13   3   14.01   6.613   1
  -2 -13   3   22.53   3.052   1
   2  13  -3   17.50   2.577   1
   2  13  -3   6.293   9.761   1
  -2  13   3   18.72   2.527   1
  -2  13   3   8.597   5.368   1
   2 -13  -2  -3.061   6.167   1
  -2 -13   2  -5.353   5.485   1
  -2 -13   2   -1.83   1.791   1
   2  13  -2  -1.174   1.555   1
   2  13  -2  0.4829   8.887   1
  -2  13   2  0.9799   1.443   1
  -2 -13   1   10.36   5.168   1
  -2 -13   1   30.86   3.716   1
   2  13  -1   27.50   3.313   1
   2  13  -1   7.571   8.703   1
  -2  13   1   18.39   5.685   1
   2 -13   0   55.95   9.924   1
  -2 -13   0   56.87   7.852   1
   2  13   0   77.49   12.85   1
  -2  13   0   63.68   8.782   1
   2 -13   1 -0.8172   7.124   1
   2 -13   1  -4.914   3.848   1
  -2 -13  -1  -1.588    4.37   1
  -2  13  -1  -1.851   5.214   1
  -2  13  -1 0.05739   1.613   1
   2 -13   2  -3.181   4.191   1
   2 -13   2   9.987    7.96   1
  -2 -13  -2   6.442    1.94   1
   2  13   2   3.459   9.177   1
   2  13   2   5.199    1.72   1
  -2  13  -2   5.971   1.752   1
  -2  13  -2 -0.5369   5.102   1
   2 -13   3   4.638   7.758   1
   2 -13   3   3.256   4.362   1
  -2 -13  -3    3.44   3.413   1
   2  13   3   1.938    1.46   1
  -2  13  -3  0.2684   1.565   1
  -2  13  -3  -0.881   5.294   1
   2 -13   4   3.197   5.174   1
   2 -13   4   9.071   8.538   1
  -2 -13  -4   13.45   3.825   1
   2  13   4   8.602   10.17   1
   2  13   4   21.23   2.796   1
  -2  13  -4   3.372   6.351   1
   2 -13   5   5.951   5.436   1
  -2 -13  -5   0.631   1.709   1
  -2 -13  -5   4.627   3.254   1
   2  13   5  -12.51   10.02   1
   2  13   5   3.761   1.926   1
  -2  13  -5 -0.9409   6.196   1
   2 -13   6  -12.79   8.407   1
   2 -13   6    2.92   6.298   1
  -2 -13  -6   5.804   3.211   1
  -2 -13  -6   9.586   2.003   1
   2  13   6   6.307   2.508   1
   2  13   6  -6.187   10.54   1
  -2  13  -6   5.314   7.048   1
  -2  13  -6   6.736   1.739   1
   2 -13   7   5.563   8.662   1
   2 -13   7    5.01   7.387   1
  -2 -13  -7 -0.1964   1.451   1
  -2 -13  -7  -1.392   3.363   1
   2  13   7   1.863   2.933   1
   2  13   7   14.45   10.24   1
  -2  13  -7  -2.697   7.115   1
  -2  13  -7    0.16   1.421   1
   2 -13   8  -17.54   8.064   1
   2 -13   8    3.97   9.218   1
  -2  13  -8   17.83   8.431   1
  -2  13  -8   1.871   1.582   1
   2 -13   9   2.061   10.06   1
   2 -13   9  -15.01   8.753   1
  -2  13  -9   6.822   8.408   1
  -2  13  -9  0.4844   1.656   1
   2 -13  10  -2.053   9.534   1
   2 -13  10 -0.3421   11.06   1
  -2  13 -10  -7.576   8.435   1
  -2  13 -10  0.2121   2.074   1
   2 -13  11   10.28   5.055   1
  -2  13 -11   21.28   4.977   1
  -2  13 -11   2.591   4.954   1
  -2 -14  11   17.84   10.36   1
  -2 -14  11   22.99    8.38   1
   2  14 -11   32.08   4.477   1
   2  14 -11   24.08   6.876   1
  -2 -14  10  124.80   16.07   1
  -2 -14  10  108.40   18.51   1
   2  14 -10  127.30   17.41   1
   2  14 -10  151.90   14.82   1
  -2 -14   9  144.00   17.21   1
  -2 -14   9  128.20   17.14   1
   2  14  -9  152.80   14.84   1
   2  14  -9  110.50   15.22   1
  -2 -14   8  220.30   23.68   1
   2  14  -8  224.00   21.39   1
  -2 -14   7  370.10   35.01   1
  -2 -14   7  338.20   34.40   1
   2  14  -7  367.60   38.56   1
   2  14  -7  379.30   35.90   1
  -2  14   7  362.20   34.13   1
   2 -14  -6   11.08   4.329   1
   2 -14  -6   16.00   5.978   1
   2  14  -6   28.59   3.497   1
  -2  14   6   23.54   5.854   1
  -2  14   6   27.39   3.188   1
   2 -14  -5 2003.00  188.60   1
   2 -14  -5 2190.00  206.70   1
  -2 -14   5 1970.00  184.90   1
   2  14  -5 1865.00  175.00   1
   2  14  -5 2069.00  196.90   1
  -2  14   5 2578.00  242.90   1
  -2  14   5 1917.00  179.80   1
   2 -14  -4 2066.00  195.30   1
   2 -14  -4 2139.00  201.20   1
  -2 -14   4 2315.00  218.50   1
   2  14  -4 2331.00  218.70   1
  -2  14   4 2501.00  235.70   1
  -2  14   4 2262.00  212.20   1
   2 -14  -3  827.10   78.46   1
  -2 -14   3  803.40   75.58   1
  -2 -14   3  841.50   80.63   1
   2  14  -3  849.80   79.92   1
   2  14  -3  887.60   86.55   1
  -2  14   3  761.00   71.59   1
  -2  14   3  816.80   78.02   1
   2 -14  -2  372.20   37.35   1
   2 -14  -2  376.70   36.38   1
  -2 -14   2  380.80   36.05   1
  -2 -14   2  416.00   40.87   1
   2  14  -2  396.10   41.24   1
   2  14  -2  385.40   36.45   1
  -2  14   2  350.30   33.15   1
  -2  14   2  371.30   36.47   1
   2 -14  -1  0.7681   4.239   1
  -2 -14   1   1.225    5.21   1
  -2 -14   1   2.035   1.949   1
   2  14  -1  -1.564   10.50   1
   2  14  -1   4.142   1.782   1
  -2  14   1   2.088   5.741   1
  -2  14   1   3.468    1.59   1
   2 -14   0 1057.00  101.40   1
   2 -14   0 1006.00   95.19   1
  -2 -14   0  963.90   91.58   1
  -2 -14   0 1071.00  100.60   1
   2  14   0 1049.00   98.54   1
   2  14   0  972.50   94.09   1
  -2  14   0 1035.00   97.29   1
  -2  14   0  841.50   80.31   1
   2 -14   1  817.50   79.06   1
   2 -14   1  842.20   79.86   1
  -2 -14  -1  871.20   81.94   1
  -2 -14  -1  811.30   77.08   1
   2  14   1  910.00   85.55   1
   2  14   1  866.50   84.18   1
  -2  14  -1  822.80   77.42   1
  -2  14  -1  744.20   71.28   1
   2 -14   2  141.10   14.87   1
   2 -14   2  109.00   14.53   1
  -2 -14  -2  120.10   12.81   1
  -2 -14  -2  102.30   10.07   1
   2  14   2  117.60   11.46   1
   2  14   2  122.60   17.21   1
  -2  14  -2   91.29   9.015   1
  -2  14  -2  110.90   13.22   1
   2 -14   3   78.79   12.34   1
  -2 -14  -3   85.29    9.57   1
  -2 -14  -3   73.03    7.38   1
   2  14   3   70.93   7.142   1
   2  14   3   89.79   14.72   1
  -2  14  -3   69.88   7.066   1
   2 -14   4   19.15   5.993   1
  -2 -14  -4   25.76   3.259   1
   2  14   4   20.81   11.48   1
  -2  14  -4   10.12   6.056   1
  -2  14  -4   24.82   3.189   1
   2 -14   5  349.90   34.70   1
   2 -14   5  301.10   31.80   1
  -2 -14  -5  325.80   31.45   1
   2  14   5  330.10   31.34   1
  -2  14  -5  329.50   33.35   1
  -2  14  -5  306.60   29.09   1
   2 -14   6  546.40   54.37   1
   2 -14   6  608.80   58.91   1
  -2 -14  -6  576.40   54.71   1
  -2 -14  -6  599.50   56.45   1
   2  14   6  583.30   58.39   1
   2  14   6  636.50   60.10   1
  -2  14  -6  608.10   59.27   1
  -2  14  -6  544.00   51.28   1
   2 -14   7  751.20   72.55   1
   2 -14   7  654.10   64.55   1
  -2 -14  -7  742.80   70.20   1
  -2 -14  -7  666.90   62.73   1
   2  14   7  661.70   62.50   1
   2  14   7  655.10   64.32   1
  -2  14  -7  675.00   63.56   1
  -2  14  -7  743.70   72.10   1
   2 -14   8   77.78   13.65   1
   2 -14   8  131.40   16.64   1
  -2 -14  -8   78.97   11.19   1
  -2 -14  -8   92.98   10.22   1
   2  14   8   79.64   9.864   1
   2  14   8   79.03   8.852   1
  -2  14  -8  110.40   15.26   1
  -2  14  -8   91.16   9.012   1
   2 -14   9   2.179   10.60   1
  -2  14  -9   4.218   1.757   1
   2 -14  10   92.97   15.97   1
   2 -14  10  106.40   15.37   1
  -2  14 -10  117.50   11.60   1
  -2  14 -10  117.70   15.75   1
  -2 -15  11  0.5578   4.912   1
  -2 -15  10   3.784   8.944   1
  -2 -15  10   2.759   13.42   1
   2  15 -10   3.296   2.384   1
   2  15 -10  -2.048   9.775   1
  -2 -15   9   4.524    7.27   1
  -2 -15   9   13.83   11.48   1
   2  15  -9   1.793   1.834   1
   2  15  -9 -0.8287   10.19   1
  -2 -15   8   4.512   7.316   1
  -2 -15   8  -9.819   8.131   1
   2  15  -8   1.154   1.668   1
   2  15  -8-0.06208   9.694   1
   2 -15  -7   3.175   3.829   1
   2 -15  -7   3.017   4.385   1
  -2 -15   7   4.251    7.40   1
   2  15  -7 -0.2401   1.717   1
  -2  15   7  -1.076   4.119   1
  -2  15   7   1.247   1.439   1
   2 -15  -6  -5.841   5.073   1
   2 -15  -6   11.10   5.704   1
  -2 -15   6   3.317    2.05   1
   2  15  -6   1.131   11.56   1
   2  15  -6   2.669   1.764   1
  -2  15   6    1.89   5.771   1
  -2  15   6  0.3179   1.703   1
  -2 -15   5   80.95   11.97   1
   2  15  -5   79.49   16.08   1
   2  15  -5  120.20   11.76   1
  -2  15   5  120.00   11.72   1
   2 -15  -4   9.533   5.265   1
  -2 -15   4   14.22   6.988   1
   2  15  -4   35.11   12.43   1
   2  15  -4   30.86   3.672   1
  -2  15   4   20.20   7.083   1
   2 -15  -3    8.07   5.213   1
   2 -15  -3   11.17   7.512   1
   2  15  -3   22.63   12.09   1
  -2  15   3   14.68    6.53   1
  -2  15   3   30.33   3.587   1
   2 -15  -2  -2.133    6.88   1
   2 -15  -2   4.453    4.53   1
  -2 -15   2   14.48   6.248   1
   2  15  -2   4.997   1.868   1
  -2  15   2   4.729   6.273   1
  -2  15   2   3.192    1.70   1
   2 -15  -1   4.426   4.619   1
   2 -15  -1   4.131   7.173   1
  -2 -15   1   4.621   5.303   1
  -2 -15   1   4.928   1.995   1
   2  15  -1  -4.042   10.89   1
   2  15  -1   6.161   1.949   1
  -2  15   1   6.301   1.775   1
  -2  15   1   6.517   6.355   1
   2 -15   0   15.07    8.10   1
  -2 -15   0   13.45   5.411   1
  -2 -15   0   30.64   3.744   1
   2  15   0   18.64   11.33   1
   2  15   0   23.86   3.139   1
  -2  15   0   6.613   6.017   1
  -2  15   0   24.83   3.107   1
   2 -15   1   28.64   8.748   1
  -2 -15  -1   35.41   4.193   1
  -2 -15  -1   18.18   4.993   1
   2  15   1   28.41   3.509   1
   2  15   1   7.725   10.87   1
  -2  15  -1   14.28   6.575   1
  -2  15  -1   28.12   3.387   1
   2 -15   2   23.51   8.634   1
  -2 -15  -2   12.01    4.34   1
  -2 -15  -2   30.07   3.677   1
   2  15   2   25.08   3.223   1
   2  15   2   4.967   11.72   1
  -2  15  -2   18.47   6.486   1
  -2  15  -2   28.68   3.434   1
   2 -15   3  -10.95   7.829   1
   2 -15   3    6.04   5.215   1
  -2 -15  -3   2.578   3.821   1
  -2 -15  -3   2.017   1.723   1
   2  15   3  -8.973   11.11   1
   2  15   3 -0.3705   1.626   1
  -2  15  -3  -5.748   6.032   1
  -2  15  -3 -0.8944   1.529   1
   2 -15   4 -0.3267   7.543   1
   2 -15   4  0.9845   5.831   1
  -2 -15  -4   2.615   1.836   1
  -2 -15  -4   2.951   4.031   1
   2  15   4  -1.575   10.88   1
   2  15   4    1.88   1.693   1
  -2  15  -4   4.135   1.662   1
  -2  15  -4  0.2778   6.653   1
   2 -15   5  -2.461   6.172   1
   2 -15   5  -5.993   8.467   1
  -2 -15  -5   2.928   3.892   1
  -2 -15  -5   3.767   1.864   1
   2  15   5  0.6138   11.64   1
  -2  15  -5   1.277    1.47   1
  -2  15  -5  -3.134   6.954   1
   2 -15   6   17.99   9.385   1
   2 -15   6   5.247   8.196   1
  -2 -15  -6   15.69   4.107   1
   2  15   6   30.49   4.258   1
  -2  15  -6   10.06   7.905   1
   2 -15   7   7.772   8.271   1
   2 -15   7   1.766    8.81   1
  -2 -15  -7 -0.9993   4.067   1
  -2 -15  -7 -0.2611   1.584   1
   2  15   7   1.996    3.27   1
   2  15   7   13.21   11.27   1
  -2  15  -7  0.1381   1.562   1
  -2  15  -7  0.5619   8.207   1
   2 -15   8   -2.27   8.891   1
   2 -15   8   7.504   8.874   1
  -2 -15  -8  -3.646   9.592   1
  -2 -15  -8  -0.992   5.165   1
   2  15   8 -0.1781   4.033   1
   2  15   8   7.406   6.555   1
  -2  15  -8   3.949   1.678   1
  -2  15  -8  -8.274   8.936   1
   2 -15   9  -3.756   11.88   1
   2 -15   9   4.881   10.16   1
  -2  15  -9  0.5502   1.703   1
  -2  15  -9   16.16   9.309   1
  -2 -16  10   10.72   8.801   1
   2  16 -10   13.02   2.937   1
  -2 -16   9  181.50   23.39   1
  -2 -16   9  171.90   20.69   1
   2  16  -9  197.60   23.10   1
   2  16  -9  219.70   21.10   1
  -2 -16   8  183.60   20.63   1
  -2 -16   8  145.30   18.35   1
   2  16  -8  194.20   18.68   1
   2  16  -8  162.00   20.43   1
   2 -16  -7  202.70   20.46   1
   2 -16  -7  224.40   22.46   1
  -2 -16   7  236.50   25.31   1
  -2 -16   7  179.50   17.23   1
   2  16  -7  230.50   26.62   1
   2  16  -7  250.30   23.87   1
  -2  16   7  223.80   22.40   1
  -2  16   7  215.20   20.51   1
   2 -16  -6   3.232   5.682   1
   2 -16  -6   8.364   5.891   1
  -2 -16   6    8.31   2.146   1
  -2 -16   6   11.32   7.495   1
   2  16  -6   8.359   2.108   1
   2  16  -6   10.09   11.27   1
  -2  16   6   7.946   6.147   1
  -2  16   6   10.97   2.231   1
   2 -16  -5  155.00   16.88   1
   2 -16  -5  149.80   18.01   1
  -2 -16   5  146.20   14.16   1
  -2 -16   5  138.20   16.56   1
   2  16  -5  139.60   13.54   1
   2  16  -5  171.20   22.77   1
  -2  16   5  182.00   20.44   1
   2 -16  -4 1616.00  153.70   1
   2 -16  -4 1550.00  146.40   1
  -2 -16   4 1512.00  143.50   1
  -2 -16   4 1692.00  158.80   1
   2  16  -4 1744.00  166.70   1
   2  16  -4 1567.00  147.10   1
  -2  16   4 1511.00  141.90   1
  -2  16   4 1786.00  169.10   1
   2 -16  -3 1822.00  171.90   1
   2 -16  -3 1713.00  162.70   1
  -2 -16   3 1694.00  158.90   1
  -2 -16   3 1685.00  159.60   1
   2  16  -3 1654.00  158.20   1
   2  16  -3 1742.00  163.50   1
  -2  16   3 1609.00  151.00   1
  -2  16   3 1748.00  165.50   1
   2 -16  -2  371.90   37.59   1
   2 -16  -2  347.60   34.06   1
  -2 -16   2  420.10   41.34   1
  -2 -16   2  492.90   46.55   1
   2  16  -2  475.90   44.96   1
   2  16  -2  489.90   50.31   1
  -2  16   2  360.50   35.86   1
  -2  16   2  431.40   40.76   1
   2 -16  -1   16.77   5.658   1
   2 -16  -1    6.47   7.703   1
  -2 -16   1   4.888   1.979   1
  -2 -16   1   1.737   5.768   1
   2  16  -1   4.041   1.909   1
   2  16  -1   5.079   11.20   1
  -2  16   1   3.211   1.731   1
  -2  16   1   12.84   6.868   1
   2 -16   0  589.70   57.87   1
  -2 -16   0  615.80   59.17   1
  -2  16   0  630.20   59.37   1
   2 -16   1 1113.00  105.50   1
  -2 -16  -1 1070.00  101.40   1
  -2 -16  -1 1251.00  117.50   1
   2  16   1 1291.00  121.20   1
   2  16   1 1293.00  124.50   1
  -2  16  -1 1004.00   95.61   1
   2 -16   2  733.20   70.03   1
   2 -16   2  715.00   69.68   1
  -2 -16  -2  691.60   65.93   1
  -2 -16  -2  691.00   65.07   1
   2  16   2  780.40   76.69   1
   2  16   2  762.70   71.78   1
  -2  16  -2  613.40   59.24   1
  -2  16  -2  679.50   63.99   1
   2 -16   3   86.79   11.04   1
   2 -16   3  100.80   14.11   1
  -2 -16  -3  100.60   11.20   1
  -2 -16  -3  101.50   10.02   1
   2  16   3   95.80   9.487   1
   2  16   3   99.57   16.10   1
  -2  16  -3   91.80   9.066   1
  -2  16  -3   89.67   11.81   1
   2 -16   4   63.40   9.759   1
   2 -16   4   81.97   12.60   1
  -2 -16  -4   68.93   8.519   1
  -2 -16  -4   80.08   8.071   1
   2  16   4   61.49   15.31   1
   2  16   4   61.19   6.342   1
  -2  16  -4   44.78   8.924   1
  -2  16  -4   73.37   7.363   1
   2 -16   5  276.30   28.60   1
   2 -16   5  257.00   27.88   1
  -2 -16  -5  262.40   25.84   1
  -2 -16  -5  254.60   24.23   1
   2  16   5  249.60   29.35   1
   2  16   5  246.50   23.57   1
  -2  16  -5  236.60   22.56   1
  -2  16  -5  251.40   26.30   1
   2 -16   6  711.60   69.91   1
   2 -16   6  754.80   72.77   1
  -2 -16  -6  708.50   67.28   1
  -2 -16  -6  824.10   77.51   1
   2  16   6  736.60   72.85   1
   2  16   6  869.30   82.01   1
  -2  16  -6  738.70   71.51   1
   2 -16   7  375.70   39.37   1
   2 -16   7  462.40   46.21   1
  -2 -16  -7  430.80   41.49   1
  -2 -16  -7  369.80   38.51   1
   2  16   7  400.70   41.61   1
   2  16   7  386.60   37.04   1
  -2  16  -7  354.60   33.60   1
  -2  16  -7  430.20   43.46   1
   2 -16   8  267.50   29.48   1
   2 -16   8  319.90   33.91   1
  -2 -16  -8  243.10   29.19   1
   2  16   8  222.40   22.27   1
  -2  16  -8  236.60   22.59   1
   2 -16   9  -1.726   10.38   1
  -2  16  -9   1.859    1.90   1
  -2 -17   9   14.28   12.36   1
  -2 -17   9   21.65   8.871   1
   2  17  -9    8.95   2.633   1
   2  17  -9   5.053   10.35   1
  -2 -17   8-0.00768   9.986   1
  -2 -17   8   6.769   7.618   1
   2  17  -8   1.124    9.68   1
   2  17  -8   3.461   1.898   1
   2 -17  -7   9.064   5.615   1
   2 -17  -7  -11.91   5.981   1
  -2 -17   7 0.01461   1.673   1
  -2 -17   7   3.149   7.779   1
   2  17  -7   1.946   1.964   1
   2  17  -7  -1.623   9.953   1
  -2  17   7  -3.553   5.863   1
  -2  17   7   1.099   2.142   1
   2 -17  -6   8.386   6.591   1
   2 -17  -6   2.468   5.876   1
  -2 -17   6-0.01001   1.581   1
  -2 -17   6   1.479   7.103   1
   2  17  -6   2.687   1.822   1
   2  17  -6  -14.83   10.58   1
  -2  17   6  -4.474   6.818   1
   2 -17  -5   5.189   8.071   1
   2 -17  -5  -1.394   6.904   1
  -2 -17   5   4.432   1.936   1
   2  17  -5   3.329   11.81   1
  -2  17   5   6.004   8.179   1
  -2  17   5   1.007   1.869   1
   2 -17  -4   49.72   10.94   1
  -2 -17   4   51.02   9.793   1
   2  17  -4   89.91   8.981   1
   2  17  -4   53.84   14.83   1
  -2  17   4   72.61   11.71   1
   2 -17  -3   11.31   8.198   1
   2 -17  -3   3.763   6.367   1
  -2 -17   3   5.644   6.476   1
  -2 -17   3   22.57   3.222   1
   2  17  -3   17.15   2.647   1
   2  17  -3   16.92   12.73   1
  -2  17   3   11.95   7.428   1
  -2  17   3   15.04    2.62   1
   2 -17  -2   37.49   9.473   1
  -2 -17   2   17.18   6.695   1
   2  17  -2   22.23   13.15   1
   2  17  -2   37.74   4.373   1
  -2  17   2   42.02   4.658   1
   2 -17  -1 -0.9716   5.941   1
  -2 -17   1   3.858   2.047   1
  -2 -17   1   8.784   6.303   1
   2  17  -1   1.608   1.832   1
   2  17  -1  -6.041   12.56   1
  -2  17   1  0.6589   7.189   1
  -2  17   1  0.6197   1.707   1
   2 -17   0  -3.032   5.357   1
  -2 -17   0   2.432   5.248   1
  -2 -17   0   1.899   2.063   1
   2  17   0   6.648   11.77   1
   2  17   0   2.547   1.907   1
  -2  17   0   1.824   6.591   1
  -2  17   0  -3.616   1.713   1
   2 -17   1   25.90   9.344   1
   2  17   1   37.20   13.70   1
  -2  17  -1   32.31    7.83   1
   2 -17   2   43.97   10.18   1
  -2 -17  -2   31.83   6.048   1
  -2 -17  -2   50.81   5.743   1
   2  17   2   46.49   5.117   1
  -2  17  -2   55.51    5.79   1
  -2  17  -2   27.06   7.563   1
   2 -17   3   1.402   6.055   1
   2 -17   3  -3.103   8.141   1
  -2 -17  -3   9.288    4.62   1
  -2 -17  -3   4.164   2.221   1
   2  17   3   4.419   1.928   1
   2  17   3   5.911   11.92   1
  -2  17  -3    2.99   6.438   1
  -2  17  -3   4.862   1.783   1
   2 -17   4 -0.6753    7.19   1
  -2 -17  -4   4.785   2.007   1
  -2 -17  -4   5.509    4.46   1
   2  17   4   1.952   1.893   1
   2  17   4   12.88   13.14   1
  -2  17  -4   3.801   6.761   1
   2 -17   5   9.501   7.503   1
   2 -17   5-0.01723   7.708   1
  -2 -17  -5  -7.166   4.763   1
  -2 -17  -5 -0.2604   1.791   1
   2  17   5  -2.256   2.193   1
   2  17   5   1.158   12.57   1
  -2  17  -5  0.2393   1.558   1
  -2  17  -5 0.06406   7.136   1
   2 -17   6   2.841   8.662   1
   2 -17   6  -9.299    7.91   1
  -2 -17  -6-0.01883    1.80   1
  -2 -17  -6 -0.6967    4.41   1
   2  17   6  0.6597   3.015   1
   2  17   6   2.202   11.97   1
  -2  17  -6  0.6167   1.672   1
   2 -17   7  -6.759   10.00   1
   2 -17   7   15.62   10.24   1
  -2 -17  -7   2.757   13.99   1
   2  17   7   6.897   4.478   1
   2  17   7   14.14   12.94   1
  -2  17  -7   6.974   1.952   1
  -2  17  -7   5.961   8.626   1
   2 -17   8  -20.83   11.06   1
   2 -17   8   -4.85   10.85   1
  -2  17  -8   2.747   1.807   1
  -2 -18   8  124.40   16.20   1
  -2 -18   8   97.46   16.68   1
   2  18  -8  119.10   11.77   1
   2  18  -8  122.50   17.44   1
   2 -18  -7   47.23   9.065   1
  -2 -18   7   64.38   11.92   1
   2  18  -7   47.56   5.343   1
   2  18  -7   54.52   14.32   1
  -2  18   7   47.65   5.634   1
   2 -18  -6   5.177   6.775   1
   2 -18  -6  -6.486    7.78   1
  -2 -18   6  -12.12    7.08   1
  -2 -18   6   1.314   1.675   1
   2  18  -6   6.966   11.47   1
   2  18  -6   1.769   1.882   1
  -2  18   6   7.252   8.295   1
  -2  18   6 -0.7289   2.245   1
   2 -18  -5  189.60   20.94   1
   2 -18  -5  157.50   19.25   1
  -2 -18   5  181.60   17.45   1
  -2 -18   5  142.10   16.84   1
   2  18  -5  188.40   18.11   1
   2  18  -5  179.30   23.39   1
  -2  18   5  176.20   17.00   1
  -2  18   5  221.10   24.58   1
   2 -18  -4  299.30   31.68   1
   2 -18  -4  254.60   26.84   1
  -2 -18   4  242.90   25.55   1
  -2 -18   4  250.20   23.86   1
   2  18  -4  279.80   31.90   1
   2  18  -4  259.50   24.74   1
  -2  18   4  247.20   23.60   1
  -2  18   4  254.20   27.15   1
   2 -18  -3  193.30   21.02   1
  -2 -18   3  165.40   18.50   1
  -2 -18   3  174.70   16.85   1
   2  18  -3  152.00   21.66   1
   2  18  -3  176.20   16.98   1
  -2  18   3  168.50   19.07   1
  -2  18   3  156.70   15.19   1
   2 -18  -2   56.84   11.03   1
   2 -18  -2   55.75   9.478   1
  -2 -18   2   38.95   4.487   1
  -2 -18   2   54.91   9.357   1
   2  18  -2   60.22   15.25   1
   2  18  -2   47.35    5.17   1
  -2  18   2   51.27   9.937   1
  -2  18   2   35.54    4.10   1
   2 -18  -1   9.299   6.279   1
   2 -18  -1   24.28   8.944   1
  -2 -18   1   10.84   2.457   1
  -2 -18   1   15.68   6.561   1
   2  18  -1   17.21   13.55   1
   2  18  -1   7.401   2.158   1
  -2  18   1   10.31   2.118   1
  -2  18   1   3.814   7.086   1
   2 -18   0  214.10   22.21   1
   2 -18   0  206.10   23.10   1
  -2 -18   0  217.00   20.79   1
  -2 -18   0  215.00   22.36   1
   2  18   0  237.90   29.13   1
   2  18   0  208.40   19.98   1
  -2  18   0  177.80   19.42   1
  -2  18   0  202.00   19.34   1
   2 -18   1  785.50   75.16   1
   2 -18   1  872.70   84.47   1
  -2 -18  -1 1051.00   98.78   1
  -2 -18  -1  915.50   87.21   1
   2  18   1  951.00   93.22   1
   2  18   1  954.70   89.79   1
  -2  18  -1  760.30   73.16   1
  -2  18  -1  876.80   82.47   1
   2 -18   2  368.50   37.90   1
  -2 -18  -2  356.10   34.90   1
  -2 -18  -2  372.60   35.32   1
   2  18   2  393.10   42.39   1
   2  18   2  379.30   35.94   1
  -2  18  -2  321.30   30.49   1
   2 -18   3  116.00   14.26   1
   2 -18   3  112.50   15.82   1
  -2 -18  -3  110.50   10.93   1
  -2 -18  -3  125.10   13.77   1
   2  18   3  111.30   11.07   1
   2  18   3  142.00   20.31   1
  -2  18  -3  104.30   13.51   1
  -2  18  -3   94.87   9.465   1
   2 -18   4  -2.107   8.387   1
   2 -18   4  -7.847    7.19   1
  -2 -18  -4   3.657   2.021   1
   2  18   4   5.351   12.01   1
   2  18   4   2.596   1.992   1
  -2  18  -4   5.917    1.81   1
  -2  18  -4   11.05   6.848   1
   2 -18   5  237.30   25.55   1
   2 -18   5  221.30   24.81   1
  -2 -18  -5  245.10   24.72   1
   2  18   5  219.50   21.17   1
  -2  18  -5  204.60   19.58   1
  -2  18  -5  250.70   27.01   1
   2 -18   6  540.80   54.77   1
  -2 -18  -6  491.90   46.47   1
  -2 -18  -6  593.10   56.96   1
   2  18   6  524.20   54.05   1
   2  18   6  625.30   59.30   1
  -2  18  -6  556.00   52.46   1
   2 -18   7  522.30   53.46   1
   2 -18   7  640.70   63.65   1
  -2 -18  -7  582.10   56.27   1
  -2 -18  -7  525.60   55.47   1
   2  18   7  463.20   48.52   1
   2  18   7  614.80   58.78   1
  -2  18  -7  567.40   56.53   1
  -2  18  -7  514.70   48.63   1
   2 -19  -7   4.414   9.022   1
   2 -19  -7   2.918   7.871   1
  -2 -19   7  -3.066   8.882   1
  -2 -19   7   17.64   11.46   1
   2  19  -7   1.274   2.044   1
   2  19  -7  -3.813   10.82   1
  -2  19   7 -0.7022   2.815   1
  -2  19   7   -5.98   8.084   1
   2 -19  -6    3.12   6.911   1
   2 -19  -6   12.24   9.543   1
  -2 -19   6   3.027   1.709   1
  -2 -19   6  -4.705    7.72   1
   2  19  -6 -0.7272   9.788   1
   2  19  -6   5.005   2.107   1
  -2  19   6   18.83   9.457   1
  -2  19   6   3.049    2.50   1
   2 -19  -5  -2.164   8.334   1
  -2 -19   5   8.105   7.365   1
   2  19  -5 -0.5748   1.867   1
  -2  19   5  -2.308   2.095   1
  -2 -19   4   70.87   11.22   1
   2  19  -4  114.20   11.29   1
   2  19  -4   68.57   15.79   1
  -2  19   4  107.90   10.79   1
  -2  19   4  100.90   14.50   1
   2 -19  -3   2.711   8.422   1
   2 -19  -3   3.972   7.515   1
  -2 -19   3   8.516   7.103   1
  -2 -19   3   11.16   2.362   1
   2  19  -3  0.2663   11.95   1
   2  19  -3   7.421   2.104   1
  -2  19   3   3.047   7.067   1
  -2  19   3   5.606   2.013   1
   2 -19  -2  -1.419    7.67   1
   2 -19  -2   12.82   9.141   1
  -2 -19   2  0.9095   6.634   1
  -2 -19   2   12.94   2.407   1
   2  19  -2   9.083   2.343   1
   2  19  -2  -1.396   11.99   1
  -2  19   2   7.843    2.12   1
  -2  19   2   3.749   7.624   1
   2 -19  -1   5.526   8.106   1
   2 -19  -1  -5.967   6.738   1
  -2 -19   1  -3.984   6.038   1
   2  19  -1   2.229    2.06   1
  -2  19   1  -3.863   6.905   1
  -2  19   1  0.1866   1.736   1
   2 -19   0   2.693   7.415   1
   2 -19   0   2.588   7.726   1
  -2 -19   0 -0.5563   1.983   1
  -2 -19   0  -2.514   5.516   1
   2  19   0   16.03   12.90   1
   2  19   0   1.238   1.984   1
  -2  19   0 -0.9175   1.699   1
  -2  19   0 -0.9454   7.056   1
   2 -19   1  -6.627   6.606   1
  -2 -19  -1   2.193   5.275   1
  -2 -19  -1   1.228    2.03   1
   2  19   1   2.601   13.28   1
   2  19   1  -1.146   2.026   1
  -2  19  -1   -6.85   7.349   1
   2 -19   2  -1.429   8.659   1
   2 -19   2  0.5732   7.068   1
  -2 -19  -2   15.88   5.888   1
  -2 -19  -2   11.77   2.597   1
   2  19   2  -5.954   13.35   1
   2  19   2   9.088   2.331   1
  -2  19  -2    7.97   6.727   1
  -2  19  -2   10.75   2.142   1
   2 -19   3   16.41   9.083   1
   2 -19   3  -1.191   7.276   1
  -2 -19  -3  0.2355   1.972   1
  -2 -19  -3   6.602   5.101   1
   2  19   3  -8.606   12.33   1
   2  19   3  -1.093   1.856   1
  -2  19  -3  -2.301   6.821   1
  -2  19  -3   2.883   1.721   1
   2 -19   4  -4.905   8.911   1
  -2 -19  -4   2.766   2.129   1
   2  19   4    3.17   2.233   1
   2  19   4  -4.292   12.71   1
  -2  19  -4   4.022   1.741   1
   2 -19   5  -3.633   8.824   1
   2 -19   5   9.115   8.566   1
  -2 -19  -5 -0.4099   5.522   1
  -2 -19  -5   1.929   1.913   1
   2  19   5   0.272   2.522   1
   2  19   5  -4.821   13.49   1
  -2  19  -5  0.3419   1.731   1
  -2  19  -5-0.02793   7.644   1
  -2 -19  -6   5.385   14.14   1
   2  19   6   2.581   4.041   1
   2  19   6  -13.92   13.29   1
  -2  19  -6   2.213   1.907   1
   2 -20  -6  -1.544   11.84   1
  -2 -20   6  -9.356   8.554   1
   2  20  -6  0.7585    2.01   1
  -2  20   6 -0.7425    2.83   1
  -2  20   6  -9.954    9.95   1
   2 -20  -5   45.87   11.14   1
   2 -20  -5   69.59   14.21   1
  -2 -20   5   45.52    9.98   1
   2  20  -5   48.54   5.388   1
   2  20  -5   48.43   13.67   1
  -2  20   5   44.39   5.297   1
  -2  20   5   78.12   15.40   1
   2 -20  -4   96.88   15.04   1
   2 -20  -4   84.74   14.26   1
  -2 -20   4   67.89   6.971   1
   2  20  -4   90.68   16.33   1
  -2  20   4   92.14   14.56   1
  -2  20   4   86.64    8.91   1
   2 -20  -3   34.41   10.13   1
   2 -20  -3   31.06   10.25   1
  -2 -20   3   21.78   8.015   1
   2  20  -3   17.78   2.825   1
   2  20  -3   34.19   13.93   1
  -2  20   3   18.90   2.938   1
  -2  20   3   27.07   9.377   1
   2 -20  -2   30.92   9.605   1
  -2 -20   2   26.13   3.455   1
  -2 -20   2   30.03   8.068   1
   2  20  -2   35.82   4.254   1
   2  20  -2   32.28   13.59   1
  -2  20   2   24.78   3.379   1
   2 -20  -1   10.32   8.163   1
  -2 -20   1  0.4381   6.037   1
  -2 -20   1   1.163   1.908   1
   2  20  -1   8.567   13.56   1
   2  20  -1  0.4261    1.93   1
  -2  20   1   2.184   2.053   1
  -2  20   1  -1.615   7.828   1
   2 -20   0  104.40   13.59   1
   2 -20   0   96.11   13.92   1
  -2 -20   0   90.23   11.68   1
  -2 -20   0   68.04   7.084   1
   2  20   0   97.41   9.801   1
   2  20   0  125.00   20.43   1
  -2  20   0   80.09   11.80   1
  -2  20   0   98.84   9.807   1
   2 -20   1  371.50   38.17   1
   2 -20   1  383.60   38.53   1
  -2 -20  -1  472.30   44.65   1
   2  20   1  481.70   50.83   1
  -2  20  -1  345.30   35.16   1
  -2  20  -1  404.20   38.26   1
   2 -20   2  424.10   42.36   1
   2 -20   2  444.80   44.99   1
  -2 -20  -2  457.70   43.32   1
  -2 -20  -2  430.60   42.07   1
   2  20   2  430.40   40.79   1
  -2  20  -2  395.80   39.83   1
  -2  20  -2  416.60   39.41   1
   2 -20   3  106.70   15.73   1
   2 -20   3  109.40   14.59   1
  -2 -20  -3   97.14   12.09   1
   2  20   3   92.66    9.42   1
   2  20   3   80.41   17.10   1
  -2  20  -3   82.54    8.32   1
  -2  20  -3   90.18   13.13   1
   2 -20   4   4.296   8.488   1
   2 -20   4 -0.9832   8.843   1
  -2 -20  -4   2.614   5.487   1
  -2 -20  -4 -0.3995   1.968   1
   2  20   4  -13.31   12.90   1
   2  20   4    1.19   2.345   1
  -2  20  -4   4.358   1.788   1
  -2  20  -4 -0.2429   7.664   1
   2 -20   5  186.60   22.71   1
  -2 -20  -5  171.80   18.96   1
  -2 -20  -5  139.50   13.74   1
   2  20   5  192.60   26.72   1
   2  20   5  169.40   16.75   1
  -2  20  -5  189.20   18.19   1
  -2 -20  -6  227.20   31.91   1
  -2 -20  -6  292.60   30.64   1
   2  20   6  215.20   27.88   1
   2  20   6  278.90   27.56   1
   2 -21  -6   12.35   9.337   1
   2 -21  -6   13.43   11.81   1
  -2  21   6  0.6295   3.461   1
  -2  21   6   6.672   11.19   1
   2 -21  -5   4.428    9.37   1
   2 -21  -5   23.17   14.20   1
  -2  21   5   20.22   12.35   1
  -2  21   5   8.761    2.84   1
   2 -21  -4   6.335   9.307   1
  -2 -21   4   3.711   7.387   1
  -2 -21   4   13.06   2.351   1
   2  21  -4   14.25   2.641   1
   2  21  -4   10.05   11.58   1
  -2  21   4   8.544   2.614   1
   2 -21  -3  -2.962   10.45   1
   2 -21  -3  -6.711   9.554   1
  -2 -21   3   1.531   1.764   1
  -2 -21   3   12.68   7.649   1
   2  21  -3  -18.77   11.19   1
   2  21  -3   4.777   2.171   1
  -2  21   3  0.7924   8.637   1
   2 -21  -2  -4.934   9.217   1
   2 -21  -2   8.366   9.369   1
  -2 -21   2    1.51   1.878   1
   2  21  -2  -17.54   12.03   1
  -2  21   2  -7.872    7.92   1
  -2  21   2  -3.016   1.965   1
   2 -21  -1   1.434   9.479   1
   2 -21  -1  -4.307   8.707   1
  -2 -21   1   4.857   6.491   1
   2  21  -1   1.491   2.302   1
   2  21  -1  -12.88   13.03   1
  -2  21   1   1.765   2.063   1
  -2  21   1  -5.126    7.37   1
   2 -21   0    5.09   9.244   1
   2 -21   0   10.38   8.752   1
  -2 -21   0  0.5086   2.001   1
  -2 -21   0  -3.733   6.257   1
   2  21   0   2.947   2.361   1
   2  21   0    6.49   13.97   1
  -2  21   0  -8.452   8.117   1
  -2  21   0   1.747    1.97   1
   2 -21   1   4.621   8.937   1
  -2 -21  -1   29.42   3.904   1
  -2 -21  -1   12.18   6.268   1
   2  21   1   18.81   3.323   1
   2  21   1   5.303   13.37   1
  -2  21  -1   19.23   2.942   1
   2 -21   2   7.463   9.362   1
   2 -21   2  -6.642   8.002   1
  -2 -21  -2 -0.8779   5.647   1
  -2 -21  -2   9.071   2.493   1
   2  21   2   7.702   13.35   1
   2  21   2   2.514   2.354   1
  -2  21  -2   5.753   2.049   1
  -2  21  -2    3.49   7.249   1
   2 -21   3   12.44   9.179   1
   2 -21   3    3.18   9.642   1
  -2 -21  -3   1.451   6.161   1
  -2 -21  -3   5.069   2.094   1
   2  21   3   5.756   2.432   1
   2  21   3   2.697   13.80   1
  -2  21  -3   10.96   8.657   1
  -2  21  -3   4.663    1.90   1
   2 -21   4   3.469    9.67   1
  -2 -21  -4    5.85   2.371   1
  -2 -21  -4  -1.565   5.971   1
   2  21   4   13.53   15.05   1
  -2  21  -4   6.749   2.073   1
  -2 -21  -5   1.146   18.01   1
   2  21   5  -21.43   13.60   1
   2  21   5  -1.664   3.519   1
   2 -22  -5   23.19    9.58   1
   2 -22  -5   46.03   15.44   1
  -2  22   5   33.39   12.87   1
  -2  22   5   28.68   5.214   1
   2 -22  -4  193.10   26.24   1
   2 -22  -4   92.61   14.79   1
  -2  22   4  137.60   20.00   1
  -2  22   4  103.50   10.55   1
   2 -22  -3  112.70   18.90   1
   2 -22  -3  112.10   18.25   1
  -2 -22   3   94.78   13.55   1
   2  22  -3  103.90   10.44   1
  -2  22   3  121.10   17.85   1
  -2  22   3  102.20   10.40   1
   2 -22  -2   31.41   13.02   1
   2 -22  -2   3.568   10.15   1
  -2 -22   2   21.40   8.316   1
  -2 -22   2   6.927   2.048   1
   2  22  -2   10.59   12.52   1
   2  22  -2   20.17   3.263   1
  -2  22   2   18.09   3.203   1
  -2  22   2   26.65   11.01   1
   2 -22  -1  -1.819   9.442   1
   2 -22  -1   15.60   11.03   1
  -2 -22   1    4.34   1.954   1
  -2 -22   1   15.55   7.185   1
   2  22  -1   9.418   2.601   1
   2  22  -1   2.806   12.86   1
  -2  22   1   11.19   2.511   1
  -2  22   1   20.87   9.985   1
   2 -22   0  128.10   17.80   1
   2 -22   0  105.10   15.61   1
  -2 -22   0   82.76   11.79   1
   2  22   0   76.90   8.137   1
   2  22   0  122.20   19.97   1
  -2  22   0   91.71   9.237   1
  -2  22   0  110.20   15.58   1
   2 -22   1  428.30   43.44   1
   2 -22   1  394.40   40.83   1
  -2 -22  -1  292.50   27.93   1
   2  22   1  359.60   34.31   1
   2  22   1  422.90   45.96   1
  -2  22  -1  411.80   39.04   1
  -2  22  -1  373.60   38.49   1
   2 -22   2  177.90   22.43   1
  -2 -22  -2  215.60   22.96   1
   2  22   2  234.90   22.67   1
  -2  22  -2  163.30   20.43   1
  -2  22  -2  225.70   21.69   1
  -2 -22  -3   9.827   2.532   1
  -2 -22  -3   33.25   8.391   1
   2  22   3   18.14   3.297   1
   2  22   3   15.17   14.17   1
  -2 -22  -4   15.78   15.15   1
  -2 -22  -4   14.36   6.622   1
   2  22   4   4.616   13.80   1
   2  22   4   10.30   3.448   1
  -2 -22  -5   67.50   10.73   1
   2 -23  -4   4.908   8.729   1
  -2  23   4   2.073   3.135   1
  -2  23   4   5.537   9.225   1
   2 -23  -3  -1.488   9.704   1
   2 -23  -3   7.907   13.91   1
  -2  23   3  -0.575   2.874   1
  -2  23   3  -5.046   11.73   1
   2 -23  -2  -1.358   13.58   1
   2 -23  -2  0.2549   10.44   1
  -2  23   2   11.48   9.694   1
  -2  23   2   6.136    2.83   1
   2 -23  -1  -3.714   10.61   1
   2 -23  -1   24.89   12.83   1
   2  23  -1  -1.535   2.532   1
  -2  23   1   4.252    9.38   1
  -2  23   1  -2.213   2.306   1
   2 -23   0   12.56   10.65   1
  -2 -23   0   -1.13   6.992   1
   2  23   0   1.254   2.481   1
  -2  23   0   1.413   2.083   1
  -2 -23  -1   5.867    6.88   1
  -2 -23  -1   2.287   2.015   1
   2  23   1   2.995   2.798   1
   2  23   1  -11.17   13.79   1
  -2 -23  -2   3.918   7.117   1
  -2 -23  -2  -1.059   2.088   1
   2  23   2  -14.44   13.57   1
   2  23   2  -1.313   3.018   1
  -2 -23  -3   11.57   7.126   1
  -2 -23  -3   -5.60   8.651   1
   2  23   3   8.831   3.321   1
   2  23   3  -11.39   11.16   1
  -2 -23  -4  -1.007   5.309   1
  -2 -23  -4   3.648   5.335   1
   2  23   4    3.84   4.666   1
   2  23   4  -13.42   9.633   1
   3   0  -9  0.6055   2.066   1
   3   0  -9  0.6793    3.22   1
  -3   0   9   1.478    2.26   1
  -3   0   9  -4.825    3.62   1
   3   0  -8  -2.186   1.572   1
   3   0  -8   1.471   4.166   1
  -3   0   8  0.7672    1.95   1
  -3   0   8 -0.0964  0.8606   1
   3   0  -7   1.483   4.437   1
   3   0  -7  -0.949   1.431   1
  -3   0   7   1.272  0.9835   1
  -3   0   7  0.9373   1.756   1
   3   0  -6   1.874   4.018   1
   3   0  -6  -1.473   1.421   1
  -3   0   6  -1.212  0.9485   1
  -3   0   6    1.48    1.74   1
   3   0  -5  0.2324   1.455   1
   3   0  -5  -2.868   3.869   1
  -3   0   5  0.6997   1.121   1
  -3   0   5   2.521   1.701   1
   3   0  -4   1.586   2.288   1
   3   0  -4  0.3615   1.601   1
  -3   0   4  0.3224   1.054   1
  -3   0   4  0.9332   1.728   1
   3   0  -3   2.119   2.076   1
   3   0  -3   1.205   1.539   1
  -3   0   3  -1.571   1.561   1
  -3   0   3  0.4184   1.001   1
   3   0  -2  -1.271   1.726   1
   3   0  -2  -1.846   1.699   1
  -3   0   2   1.242   1.602   1
  -3   0   2  0.2476   1.314   1
   3   0  -1   1.101   1.856   1
   3   0  -1  -3.072   1.776   1
  -3   0   1  0.2225   1.677   1
  -3   0   1  0.8301   1.691   1
   3   0   0  -1.241   1.815   1
   3   0   0 -0.9349   2.445   1
  -3   0   0  -2.237   1.866   1
  -3   0   0  0.3941   1.887   1
   3   0   1   1.115   2.639   1
  -3   0  -1  -1.824   2.029   1
   3   0   2  0.7893   1.842   1
   3   0   2   1.062   2.788   1
  -3   0  -2  0.5219   1.857   1
  -3   0  -2  -1.691   1.976   1
   3   0   3   2.456   1.933   1
  -3   0  -3   1.248   2.109   1
  -3   0  -4   1.033   2.477   1
   3   0   5  -1.828   2.105   1
   3   0   5  -1.189   3.954   1
  -3   0  -5 -0.3219   1.922   1
  -3   0  -5   3.429   2.977   1
   3   0   6-0.02818   2.216   1
   3   0   6  -3.829   4.129   1
  -3   0  -6  0.3352   1.996   1
  -3   0  -6  0.4454   3.622   1
   3   0   7   1.094   5.498   1
   3   0   7 -0.6734    2.49   1
  -3   0  -7  -3.257   4.289   1
  -3   0  -7  0.9177   2.236   1
   3   0   8  -5.531   7.555   1
   3   0   8  -2.394   3.074   1
  -3   0  -8 -0.2365   2.428   1
  -3   0  -8  0.1428    1.24   1
  -3   0  -9  0.9392   1.153   1
   3   0  10   -3.29   5.221   1
   3   0  10   4.694   9.813   1
  -3   0 -10  -1.026   1.306   1
  -3   0 -10-0.00115   2.733   1
   3   0  11   -2.29   6.435   1
  -3   0 -11   1.566   2.295   1
  -3  -1  10  -2.484   3.609   1
  -3  -1  10   2.996   2.452   1
   3   1 -10   2.166   1.789   1
   3   1 -10   3.659   3.797   1
  -3  -1   9  249.70   24.42   1
  -3  -1   9  285.30   27.16   1
   3   1  -9  259.40   24.60   1
   3   1  -9  226.90   22.37   1
   3  -1  -8  468.10   44.27   1
   3  -1  -8  530.70   49.94   1
  -3  -1   8  559.50   52.56   1
  -3  -1   8  612.10   57.70   1
   3   1  -8  613.50   58.94   1
   3   1  -8  702.10   66.02   1
  -3   1   8  553.60   52.06   1
  -3   1   8  529.70   49.93   1
   3  -1  -7  305.50   28.86   1
   3  -1  -7  310.20   30.09   1
  -3  -1   7  315.80   29.96   1
   3   1  -7  349.00   32.94   1
  -3   1   7  307.60   28.94   1
  -3   1   7  348.00   32.84   1
   3  -1  -6   33.00   3.557   1
   3  -1  -6   41.52   5.919   1
  -3  -1   6   48.56   5.267   1
   3   1  -6   44.43   4.566   1
  -3   1   6   50.83   5.206   1
   3  -1  -5  707.20   66.75   1
   3  -1  -5  599.90   56.39   1
  -3  -1   5  661.30   62.11   1
  -3  -1   5  722.50   67.98   1
   3   1  -5  844.40   80.10   1
   3   1  -5  736.60   69.20   1
  -3   1   5  745.90   70.07   1
  -3   1   5  685.10   64.30   1
   3  -1  -412260.00 1149.00   1
   3  -1  -410690.00 1002.00   1
  -3  -1   411700.00 1096.00   1
  -3  -1   412670.00 1187.00   1
   3   1  -412640.00 1184.00   1
   3   1  -411040.00 1035.00   1
  -3   1   411680.00 1094.00   1
   3  -1  -3 7692.00  720.70   1
   3  -1  -3 6956.00  651.90   1
  -3  -1   3 7617.00  713.70   1
  -3  -1   3 7258.00  680.10   1
   3   1  -3 6970.00  653.20   1
   3   1  -3 8374.00  784.60   1
  -3   1   3 8205.00  768.80   1
  -3   1   3 7860.00  736.50   1
   3  -1  -2 2121.00  198.90   1
   3  -1  -2 1923.00  180.40   1
  -3  -1   2 1969.00  184.60   1
  -3  -1   2 2192.00  205.50   1
   3   1  -2 2383.00  223.40   1
   3   1  -2 2388.00  224.00   1
  -3   1   2 2159.00  202.50   1
  -3   1   2 2249.00  210.80   1
   3  -1  -1 2317.00  217.40   1
   3  -1  -1 2650.00  248.40   1
  -3  -1   1 2526.00  236.80   1
  -3  -1   1 2530.00  237.20   1
   3   1  -1 2303.00  215.90   1
   3   1  -1 2567.00  240.70   1
  -3   1   1 2148.00  201.50   1
  -3   1   1 2861.00  268.20   1
   3  -1   0 1335.00  125.40   1
   3  -1   0 1609.00  150.90   1
  -3  -1   0 1612.00  151.20   1
  -3  -1   0 1600.00  150.00   1
   3   1   0 1391.00  130.60   1
   3   1   0 1570.00  147.30   1
  -3   1   0 1552.00  145.60   1
  -3   1   0 1352.00  126.90   1
   3  -1   1  404.90   38.44   1
  -3  -1  -1  422.80   39.89   1
   3   1   1  412.80   39.02   1
  -3   1  -1  387.80   36.61   1
   3  -1   2 1246.00  117.00   1
  -3  -1  -2 1147.00  107.70   1
   3   1   2 1128.00  106.10   1
  -3   1  -2 1120.00  105.30   1
   3  -1   3   96.40   10.94   1
   3  -1   3   99.27   9.893   1
   3   1   3   98.06   9.664   1
  -3   1  -3  125.30   12.37   1
   3  -1   4   7.962   2.696   1
   3  -1   4   28.02   5.503   1
  -3  -1  -4   7.944   2.767   1
   3   1   4   9.143   2.369   1
  -3   1  -4   10.47   3.012   1
   3  -1   5   13.77   4.282   1
   3  -1   5   16.68   3.118   1
  -3  -1  -5   29.99   4.382   1
  -3  -1  -5   11.12   2.268   1
   3   1   5   15.21   2.855   1
   3   1   5   25.37   5.331   1
  -3   1  -5   21.77   3.869   1
  -3   1  -5   13.75   3.169   1
   3  -1   6 1540.00  145.30   1
   3  -1   6 1949.00  183.00   1
  -3  -1  -6 1811.00  169.90   1
  -3  -1  -6 1739.00  163.60   1
   3   1   6 1959.00  183.90   1
   3   1   6 1773.00  167.00   1
  -3   1  -6 1547.00  145.60   1
  -3   1  -6 1917.00  179.90   1
   3  -1   7 1875.00  177.00   1
   3  -1   7 2317.00  217.50   1
  -3  -1  -7 1937.00  182.20   1
  -3  -1  -7 2223.00  208.60   1
   3   1   7 1749.00  165.00   1
   3   1   7 2145.00  201.40   1
  -3   1  -7 2052.00  192.60   1
  -3   1  -7 2141.00  200.70   1
   3  -1   8  963.70   90.83   1
   3  -1   8  877.20   84.46   1
  -3  -1  -8  989.70   92.90   1
  -3  -1  -8 1065.00  100.10   1
   3   1   8  888.60   85.07   1
   3   1   8  884.70   83.46   1
  -3   1  -8  860.50   81.06   1
  -3   1  -8  997.60   93.66   1
   3  -1   9   41.88    5.92   1
   3  -1   9   43.57   11.07   1
  -3  -1  -9   44.73   4.564   1
  -3  -1  -9   45.33   5.187   1
   3   1   9   45.10   6.633   1
   3   1   9   60.91   11.69   1
  -3   1  -9   49.17   5.005   1
  -3   1  -9   49.59    5.93   1
   3  -1  10   3.678   4.899   1
   3  -1  10 -0.7606   10.60   1
  -3  -1 -10    3.52   1.352   1
  -3  -1 -10   2.183   1.895   1
   3   1  10   6.176    5.80   1
  -3   1 -10  0.3685   3.396   1
  -3   1 -10   4.278   1.485   1
   3  -1  11   62.95   10.14   1
   3  -1  11   85.71   15.66   1
  -3   1 -11   56.23   6.959   1
  -3   1 -11   79.00   7.955   1
  -3  -2  10   -1.14   2.915   1
   3   2 -10 -0.2881   2.131   1
  -3  -2   9  0.1397   4.643   1
   3   2  -9   1.716   4.703   1
  -3  -2   8   3.622   1.374   1
   3   2  -8   10.08    6.53   1
   3  -2  -7   8.189   3.329   1
   3  -2  -7   12.18   2.325   1
  -3  -2   7   18.27   2.318   1
   3   2  -7   12.70   6.104   1
  -3   2   7   18.02   1.865   1
   3  -2  -6  -1.594   3.081   1
   3  -2  -6 -0.6021    1.88   1
  -3  -2   6  0.4386   1.043   1
   3   2  -6  -6.117   4.727   1
  -3   2   6  0.8065    1.70   1
  -3   2   6   0.501  0.7854   1
   3  -2  -5  0.9246   2.188   1
   3  -2  -5   1.538   1.887   1
  -3  -2   5   -1.38   1.113   1
  -3  -2   5    1.25   2.267   1
   3   2  -5-0.00404   1.132   1
   3   2  -5  -3.417   4.654   1
  -3   2   5  -1.266    1.87   1
  -3   2   5   1.232  0.8717   1
  -3  -2   4   7.609   2.524   1
   3   2  -4   16.42   2.116   1
  -3   2   4   12.74    1.70   1
   3  -2  -3   7.126   1.742   1
   3  -2  -3   9.589   2.573   1
  -3  -2   3   5.831   2.169   1
  -3   2   3   6.133   1.809   1
   3  -2  -2   3.328   2.461   1
   3  -2  -2 0.01585   1.499   1
  -3  -2   2   2.539   1.851   1
   3   2  -2   4.288   1.543   1
  -3   2   2   4.425   1.826   1
  -3   2   2   2.228   1.686   1
   3  -2  -1   16.20   2.444   1
   3  -2  -1   14.75   3.207   1
  -3  -2   1   15.07   2.545   1
   3   2  -1   21.74   2.822   1
  -3   2   1   10.42   2.171   1
  -3   2   1   18.47   2.965   1
   3  -2   0   8.261   3.238   1
  -3  -2   0   10.04   2.144   1
   3   2   0   8.928   2.064   1
  -3   2   0   6.375   2.035   1
   3  -2   1  351.30   33.73   1
   3   2   1  364.90   34.50   1
  -3   2  -1  342.00   32.53   1
   3  -2   2   62.42   6.471   1
  -3  -2  -2   66.16   6.708   1
   3  -2   3    7.46   5.058   1
   3  -2   3   8.273   2.631   1
  -3  -2  -3   9.803   2.072   1
   3   2   3   7.433   2.197   1
   3   2   3   5.952   3.217   1
  -3   2  -3   12.40   3.636   1
  -3   2  -3   6.425   2.682   1
   3  -2   4   7.194   2.779   1
   3  -2   4   6.172   4.089   1
  -3  -2  -4   19.50   2.707   1
   3   2   4   10.78   2.412   1
  -3   2  -4   8.477    3.29   1
  -3   2  -4   4.057    2.96   1
   3  -2   5    7.66   4.318   1
   3  -2   5   1.198   2.689   1
  -3  -2  -5 -0.9394   1.729   1
  -3  -2  -5  -1.946   2.566   1
   3   2   5   1.751   2.233   1
   3   2   5  0.5095   3.873   1
  -3   2  -5  0.7981    2.93   1
  -3   2  -5   3.178   3.123   1
   3  -2   6   6.557   2.734   1
   3  -2   6   13.73   5.729   1
  -3  -2  -6   18.52   2.815   1
  -3  -2  -6   6.075   3.949   1
   3   2   6   10.77   4.889   1
   3   2   6   9.017   2.812   1
  -3   2  -6   16.58   3.716   1
  -3   2  -6    1.41   3.907   1
   3  -2   7  -2.168   3.231   1
   3  -2   7    5.04   6.811   1
  -3  -2  -7   4.882   2.089   1
  -3  -2  -7   2.485   4.403   1
   3   2   7   1.255   4.812   1
   3   2   7  0.6841   3.053   1
  -3   2  -7   3.571   3.158   1
  -3   2  -7   5.438    1.49   1
   3  -2   8   7.104   3.748   1
   3  -2   8   6.793    7.92   1
  -3  -2  -8   14.53    1.92   1
  -3  -2  -8   9.165   2.303   1
   3   2   8   2.696   7.133   1
   3   2   8   4.524   3.866   1
  -3   2  -8   15.00   2.103   1
  -3   2  -8   14.17   3.487   1
   3  -2   9 0.05398   9.469   1
   3  -2   9  -3.524   3.681   1
  -3  -2  -9    3.14   1.695   1
  -3  -2  -9   5.243   1.266   1
   3   2   9  0.6605   5.097   1
  -3   2  -9   5.345   1.492   1
  -3   2  -9   3.812   2.959   1
   3  -2  10    8.71   10.27   1
  -3  -2 -10   4.262   1.302   1
  -3  -2 -10    1.82   1.417   1
   3   2  10   6.692   7.883   1
   3   2  10  -3.397   4.483   1
  -3   2 -10   5.855   1.468   1
   3  -2  11   7.266   7.254   1
   3  -2  11   8.978   13.85   1
  -3   2 -11  -2.409   4.318   1
  -3   2 -11   4.083   2.028   1
  -3  -3  11   69.96   10.63   1
  -3  -3  11   60.94    7.36   1
   3   3 -11   85.52   11.30   1
  -3  -3  10    3.32   3.593   1
  -3  -3  10  0.2235   7.118   1
   3   3 -10   1.721   1.939   1
   3   3 -10    2.02   5.777   1
  -3  -3   9  205.30   20.09   1
   3   3  -9  161.00   17.46   1
   3   3  -9  175.00   16.71   1
  -3  -3   8 1397.00  131.10   1
  -3  -3   8 1563.00  147.00   1
   3   3  -8 1429.00  135.70   1
   3   3  -8 1409.00  132.20   1
  -3  -3   7 1030.00   96.72   1
  -3  -3   7 1098.00  103.40   1
   3   3  -7 1003.00   94.15   1
   3   3  -7 1069.00  101.90   1
   3  -3  -6   59.86   6.511   1
   3  -3  -6   68.22   7.451   1
  -3  -3   6   49.29   4.971   1
  -3  -3   6   60.08   6.677   1
   3   3  -6   51.24   5.129   1
   3   3  -6   51.89   8.204   1
  -3   3   6   55.56   5.706   1
  -3   3   6   52.41    5.05   1
   3  -3  -5  893.30   83.94   1
   3  -3  -5  841.80   79.21   1
  -3  -3   5  861.10   81.16   1
  -3  -3   5  780.50   73.31   1
   3   3  -5  853.10   81.24   1
   3   3  -5  766.00   71.94   1
  -3   3   5  788.70   73.99   1
  -3   3   5  807.10   75.82   1
   3  -3  -4 2458.00  230.50   1
   3  -3  -4 2534.00  237.70   1
  -3  -3   4 2697.00  252.80   1
   3   3  -4 2720.00  255.90   1
  -3   3   4 2357.00  221.10   1
  -3   3   4 2715.00  254.50   1
   3  -3  -3 8540.00  800.30   1
   3  -3  -3 8538.00  799.90   1
  -3  -3   3 8153.00  763.90   1
   3   3  -3 8426.00  789.90   1
  -3   3   3 8154.00  763.90   1
  -3   3   3 7598.00  712.00   1
   3  -3  -2 3982.00  373.50   1
   3  -3  -2 3766.00  352.90   1
  -3  -3   2 4123.00  386.50   1
  -3  -3   2 3734.00  350.00   1
   3   3  -2 3488.00  327.10   1
   3   3  -2 3834.00  359.30   1
  -3   3   2 3688.00  345.60   1
  -3   3   2 3603.00  337.70   1
   3  -3  -1  417.40   39.36   1
   3  -3  -1  528.70   50.17   1
  -3  -3   1  438.00   41.41   1
   3   3  -1  529.20   49.80   1
  -3   3   1  452.10   42.77   1
  -3   3   1  408.20   38.55   1
   3  -3   0   15.56   4.278   1
  -3  -3   0   16.05   2.603   1
   3   3   0   9.788   2.049   1
   3  -3   1   85.40   8.488   1
  -3  -3  -1   82.88   8.236   1
   3   3   1   68.24   6.912   1
  -3   3  -1   70.07   7.539   1
   3  -3   2 3466.00  325.60   1
   3  -3   2 2597.00  243.50   1
  -3  -3  -2 3005.00  281.70   1
  -3  -3  -2 2886.00  270.60   1
   3   3   2 2918.00  273.70   1
   3   3   2 2878.00  270.00   1
  -3   3  -2 2569.00  241.00   1
  -3   3  -2 2899.00  271.90   1
   3  -3   3 3467.00  325.00   1
   3  -3   3 3299.00  309.90   1
  -3  -3  -3 3187.00  298.80   1
   3   3   3 3540.00  331.90   1
  -3   3  -3 3819.00  358.20   1
  -3   3  -3 3038.00  285.00   1
   3  -3   4   62.32   7.907   1
  -3  -3  -4   48.20   4.955   1
   3   3   4   73.45   7.583   1
  -3   3  -4   53.87   6.468   1
   3  -3   5   19.94   5.212   1
   3  -3   5   22.55   3.699   1
  -3  -3  -5   21.41   3.523   1
  -3  -3  -5   13.45   2.077   1
   3   3   5   16.49   3.002   1
  -3   3  -5   16.59   3.742   1
  -3   3  -5   24.89   4.353   1
   3  -3   6  983.60   93.62   1
   3  -3   6 1042.00   98.12   1
  -3  -3  -6 1202.00  112.80   1
  -3  -3  -6 1221.00  115.00   1
   3   3   6 1453.00  137.10   1
   3   3   6 1214.00  114.20   1
  -3   3  -6 1143.00  107.20   1
  -3   3  -6 1098.00  103.40   1
   3  -3   7 1473.00  139.90   1
   3  -3   7 1554.00  146.10   1
  -3  -3  -7 1427.00  133.90   1
  -3  -3  -7 1460.00  137.50   1
   3   3   7 1292.00  122.00   1
   3   3   7 1674.00  157.40   1
  -3   3  -7 1449.00  136.00   1
  -3   3  -7 1462.00  137.60   1
   3  -3   8 1170.00  112.10   1
  -3  -3  -8 1226.00  115.00   1
  -3  -3  -8 1153.00  108.20   1
   3   3   8 1311.00  123.60   1
  -3   3  -8 1241.00  116.50   1
   3  -3   9   11.79   9.833   1
   3  -3   9   -3.61   4.067   1
   3   3   9   2.698   7.931   1
  -3   3  -9  -1.113   3.307   1
   3  -3  10   75.39    9.27   1
  -3   3 -10   82.07   9.225   1
  -3   3 -10   72.67   7.234   1
   3  -3  11  165.90   18.40   1
  -3   3 -11  165.40   16.05   1
  -3   3 -11  163.40   17.04   1
  -3  -4  12   2.506   5.097   1
  -3  -4  12   9.818   7.548   1
   3   4 -12  -9.768   6.545   1
  -3  -4  11   3.889   4.594   1
  -3  -4  11    6.24   10.22   1
   3   4 -11  -4.346   7.067   1
   3   4 -11  0.6993   2.479   1
  -3  -4  10   10.84    6.97   1
  -3  -4   9   24.48   4.676   1
  -3  -4   9   30.27   3.411   1
   3   4  -9   26.72   3.129   1
   3   4  -9   20.13   7.262   1
  -3  -4   8   5.833   1.724   1
  -3  -4   8   5.703   3.405   1
   3   4  -8   7.117   1.579   1
   3   4  -8  -4.204   7.852   1
  -3  -4   7  0.6144   1.463   1
  -3  -4   7   1.839   2.813   1
   3   4  -7  0.2156   6.946   1
   3   4  -7  0.2136   1.073   1
   3  -4  -6   6.441    2.08   1
   3  -4  -6   4.482   2.317   1
  -3  -4   6   9.685   3.075   1
  -3  -4   6   14.57   2.015   1
   3   4  -6   12.89   6.295   1
   3   4  -6   11.25   1.711   1
  -3   4   6   11.06    1.30   1
   3  -4  -5  0.4886   1.507   1
   3  -4  -5  0.6202   2.667   1
  -3  -4   5  -1.187    2.84   1
  -3  -4   5-0.06085   1.257   1
  -3   4   5  0.2888  0.8873   1
  -3   4   5  0.3548   1.948   1
   3  -4  -4   22.45   4.302   1
  -3  -4   4   21.06   3.749   1
   3   4  -4   19.10   5.947   1
  -3   4   4   29.29   3.299   1
   3  -4  -3 -0.1527   1.674   1
   3  -4  -3   -2.08   3.755   1
  -3  -4   3   2.109   2.722   1
  -3  -4   3  0.6523   1.434   1
   3   4  -3 -0.7592   1.163   1
   3   4  -3  -1.167    4.58   1
  -3   4   3 -0.1041   2.004   1
  -3   4   3 0.07613   2.045   1
   3  -4  -2   -6.15   3.884   1
   3  -4  -2  -1.256    1.76   1
  -3  -4   2 -0.5037   1.225   1
   3   4  -2   1.586   3.258   1
  -3   4   2   2.012   2.504   1
  -3   4   2  -1.315   2.019   1
   3  -4  -1   2.622   3.931   1
  -3  -4   1   8.305   1.546   1
   3   4  -1   6.021   3.006   1
  -3   4   1    1.52   2.253   1
   3  -4   0   2.029   1.934   1
  -3  -4   0   2.655   1.212   1
   3   4   0   3.594   2.447   1
  -3   4   0   4.097   2.953   1
   3  -4   1  849.60   80.56   1
   3   4   1  736.10   69.45   1
  -3   4  -1  916.30   86.44   1
   3  -4   2   11.22   2.677   1
   3  -4   2   26.76   5.461   1
  -3  -4  -2   23.62   2.712   1
   3   4   2   20.10   3.472   1
  -3   4  -2   11.90   2.966   1
  -3   4  -2   24.11   4.771   1
   3  -4   3   45.06   6.947   1
   3   4   3   57.37   6.389   1
  -3   4  -3   62.63   7.592   1
   3  -4   4   2.522    2.69   1
   3  -4   4 -0.6515    4.42   1
  -3  -4  -4   3.615   1.253   1
   3   4   4  -1.161   2.586   1
  -3   4  -4  0.7695   2.796   1
  -3   4  -4   3.348    3.42   1
   3  -4   5   9.041   5.391   1
   3  -4   5   9.055   2.927   1
  -3  -4  -5   2.933   2.519   1
  -3  -4  -5   13.83   1.907   1
   3   4   5   9.536   2.875   1
  -3   4  -5   11.78   3.576   1
  -3   4  -5   4.083   3.044   1
   3  -4   6   5.147   6.813   1
   3  -4   6   11.61   3.162   1
  -3  -4  -6   5.173   3.595   1
   3   4   6   15.86   3.972   1
  -3   4  -6   21.12   4.216   1
   3  -4   7  -8.774   7.825   1
  -3  -4  -7  0.5934   4.352   1
  -3  -4  -7  0.9376   1.376   1
   3   4   7  -6.038   3.726   1
  -3   4  -7  0.2596   1.357   1
   3  -4   8   56.97   7.392   1
   3   4   8   51.82    6.81   1
   3   4   8   61.82   9.099   1
  -3   4  -8   89.95   10.07   1
   3  -4   9 -0.3837   9.832   1
   3  -4   9   11.97   5.162   1
  -3  -4  -9   21.36   2.362   1
  -3  -4  -9   19.59   2.444   1
   3   4   9   18.06   7.499   1
   3   4   9   14.28   5.751   1
  -3   4  -9   27.38   3.163   1
  -3   4  -9   14.93   4.517   1
   3  -4  10   3.513    5.03   1
   3  -4  10   4.119   10.38   1
  -3   4 -10   7.641   4.502   1
  -3   4 -10   3.391   1.554   1
   3  -4  11  0.8917   6.303   1
   3  -4  11   7.668   12.30   1
  -3   4 -11   6.692   2.158   1
  -3   4 -11  -5.119   4.966   1
  -3  -5  12   59.30   10.05   1
  -3  -5  12   53.87   14.32   1
   3   5 -12   71.88   13.48   1
   3   5 -12   56.95   7.143   1
  -3  -5  11  -5.778   5.662   1
  -3  -5  11  0.7184   10.87   1
   3   5 -11   2.271   2.093   1
   3   5 -11  -7.121    7.27   1
   3   5 -10  426.00   40.23   1
  -3  -5   9 1190.00  111.70   1
  -3  -5   9 1329.00  125.30   1
   3   5  -9 1143.00  107.40   1
   3   5  -9 1118.00  106.90   1
  -3  -5   8  755.50   71.02   1
  -3  -5   8  705.80   66.92   1
   3   5  -8  742.60   69.81   1
   3   5  -8  772.00   75.04   1
  -3  -5   7  297.30   28.14   1
  -3  -5   7  312.00   30.07   1
   3   5  -7  329.30   33.89   1
   3   5  -7  307.50   29.05   1
   3  -5  -6  465.40   43.82   1
   3  -5  -6  458.30   43.49   1
  -3  -5   6  451.10   42.50   1
  -3  -5   6  418.10   39.89   1
   3   5  -6  467.30   44.00   1
   3   5  -6  438.30   43.24   1
  -3   5   6  501.90   47.10   1
  -3   5   6  502.10   47.12   1
   3  -5  -5   11.61   1.948   1
   3  -5  -5   6.615   2.913   1
   3   5  -5   12.67   5.998   1
   3   5  -5   9.854   1.616   1
  -3   5   5   8.333   1.573   1
  -3   5   5   6.845   2.166   1
   3  -5  -4 7573.00  709.60   1
   3  -5  -4 6547.00  613.80   1
  -3  -5   4 7554.00  707.80   1
  -3  -5   4 6896.00  646.40   1
   3   5  -4 7365.00  690.00   1
   3   5  -4 6844.00  642.30   1
  -3   5   4 6764.00  633.80   1
  -3   5   4 6620.00  620.40   1
   3  -5  -3  465.60   44.43   1
   3  -5  -3  494.00   46.54   1
  -3  -5   3  440.60   41.88   1
  -3  -5   3  416.20   39.24   1
   3   5  -3  428.00   40.31   1
   3   5  -3  549.40   52.94   1
  -3   5   3  501.90   47.41   1
  -3   5   3  459.50   43.44   1
   3  -5  -2  381.70   36.66   1
  -3  -5   2  382.80   36.47   1
  -3  -5   2  451.30   42.53   1
   3   5  -2  400.50   38.74   1
   3   5  -2  424.80   40.01   1
  -3   5   2  312.00   29.67   1
   3  -5  -1   8.524   2.152   1
  -3  -5   1   16.21   2.205   1
  -3  -5   1    9.45   2.995   1
   3   5  -1   5.454   3.583   1
   3   5  -1   13.04   1.932   1
  -3   5   1   4.149   3.139   1
   3  -5   0 1909.00  179.10   1
   3  -5   0 1888.00  177.70   1
  -3  -5   0 2015.00  189.20   1
  -3  -5   0 1827.00  171.30   1
   3   5   0 1778.00  167.10   1
   3   5   0 1845.00  173.00   1
  -3   5   0 2014.00  189.00   1
  -3   5   0 2072.00  194.70   1
   3  -5   122320.00 2091.00   1
   3  -5   120500.00 1921.00   1
  -3  -5  -121160.00 1983.00   1
  -3  -5  -121710.00 2033.00   1
   3   5   120050.00 1878.00   1
   3   5   123300.00 2184.00   1
  -3   5  -124130.00 2261.00   1
  -3   5  -118990.00 1779.00   1
   3  -5   215180.00 1422.00   1
   3  -5   218090.00 1694.00   1
  -3  -5  -216680.00 1563.00   1
  -3  -5  -216510.00 1547.00   1
   3   5   216980.00 1592.00   1
  -3   5  -219780.00 1853.00   1
  -3   5  -216040.00 1503.00   1
   3  -5   3 2422.00  227.30   1
   3  -5   3 1798.00  169.50   1
  -3  -5  -3 1933.00  181.30   1
  -3  -5  -3 2165.00  203.10   1
  -3   5  -3 2097.00  197.00   1
  -3   5  -3 2314.00  217.60   1
   3  -5   4  0.9548   2.671   1
   3  -5   4   2.126   4.762   1
  -3  -5  -4   3.412   2.165   1
  -3  -5  -4   12.88    1.77   1
   3   5   4   8.049   3.032   1
   3   5   4   9.855   2.777   1
  -3   5  -4   8.177   3.203   1
  -3   5  -4   14.81   4.287   1
   3  -5   5  567.90   53.75   1
   3  -5   5  604.10   58.26   1
  -3  -5  -5  578.30   54.36   1
  -3  -5  -5  658.90   62.10   1
   3   5   5  604.60   57.21   1
   3   5   5  600.70   56.77   1
  -3   5  -5  556.60   52.39   1
  -3   5  -5  626.90   59.61   1
   3  -5   6 1762.00  167.00   1
  -3  -5  -6 1828.00  171.70   1
  -3  -5  -6 1770.00  166.00   1
   3   5   6 1730.00  162.60   1
  -3   5  -6 1769.00  166.00   1
   3  -5   7 1221.00  115.00   1
  -3  -5  -7 1401.00  131.50   1
   3   5   7 1355.00  127.60   1
  -3   5  -7 1468.00  137.80   1
  -3   5  -7 1234.00  116.30   1
   3  -5   8   4.216   4.281   1
   3  -5   8   13.35   9.539   1
  -3  -5  -8   7.445   5.279   1
   3   5   8   8.038   5.517   1
  -3   5  -8   1.091   4.082   1
  -3   5  -8   4.187   1.515   1
   3  -5   9  145.30   19.15   1
   3  -5   9  136.40   14.68   1
  -3  -5  -9  157.60   14.96   1
  -3  -5  -9  166.80   15.76   1
   3   5   9  132.80   14.71   1
   3   5   9  141.40   15.29   1
  -3   5  -9  143.70   15.01   1
  -3   5  -9  176.00   16.84   1
   3  -5  10  142.80   19.79   1
   3  -5  10  123.30   14.06   1
  -3   5 -10  111.40   10.88   1
  -3   5 -10  114.40   12.73   1
   3  -5  11  243.10   25.54   1
   3  -5  11  223.70   28.59   1
  -3   5 -11  263.00   25.15   1
  -3   5 -11  257.50   25.92   1
  -3  -6  12  -10.23   17.02   1
   3   6 -12   3.112   3.359   1
   3   6 -12  0.9622   11.37   1
  -3  -6  11  -13.59   11.14   1
   3   6 -11  0.4066   1.874   1
   3   6 -11  -1.605   7.628   1
  -3  -6  10   3.649   8.569   1
   3   6 -10   5.478   1.717   1
   3   6 -10   7.907   6.609   1
  -3  -6   9   51.35   7.182   1
   3   6  -9   33.75   9.621   1
  -3  -6   8   6.074   3.814   1
   3   6  -8   5.893    1.63   1
  -3  -6   7   15.18   3.985   1
   3   6  -7   21.84   2.672   1
   3   6  -7   5.985   8.745   1
   3  -6  -6   2.284   3.482   1
   3  -6  -6   3.271   1.469   1
  -3  -6   6  0.3656   3.261   1
  -3  -6   6   6.793   1.738   1
   3   6  -6   4.172   1.426   1
   3   6  -6  -1.237   7.713   1
  -3   6   6   5.402  0.9194   1
  -3   6   6   8.736   1.134   1
   3  -6  -5   1.082   1.446   1
   3  -6  -5  -1.838   3.609   1
  -3  -6   5   5.583   1.449   1
  -3  -6   5  -2.462   3.049   1
   3   6  -5   3.873   1.374   1
   3   6  -5   -3.27   6.091   1
  -3   6   5    2.93   1.407   1
  -3   6   5   6.457   1.187   1
   3  -6  -4   3.946   2.098   1
   3  -6  -4 -0.2572   3.415   1
  -3  -6   4   3.322   1.387   1
  -3  -6   4   7.103   3.219   1
   3   6  -4 -0.5132   5.683   1
   3   6  -4   2.385   1.297   1
  -3   6   4   2.101   2.274   1
  -3   6   4   3.978   2.379   1
   3  -6  -3  -2.418   3.879   1
  -3  -6   3  -1.661   2.991   1
  -3  -6   3  -3.097   1.403   1
   3   6  -3  -1.153   1.307   1
   3   6  -3    1.55   5.441   1
   3  -6  -2   3.068   2.122   1
  -3  -6   2    2.51   1.603   1
  -3  -6   2   2.668   2.843   1
   3   6  -2   4.861   5.595   1
   3   6  -2   3.722   1.447   1
  -3   6   2   1.014   3.333   1
   3  -6  -1 0.04863   4.142   1
   3  -6  -1   4.701   2.318   1
  -3  -6   1   7.366   3.039   1
   3   6  -1  -1.444   4.907   1
  -3   6   1  0.1307   3.747   1
  -3   6   1 -0.5821   2.437   1
   3  -6   0  129.60   13.77   1
  -3  -6   0  167.00   16.38   1
   3   6   0  135.40   14.21   1
   3  -6   1  137.90   14.65   1
  -3  -6  -1  165.60   16.12   1
   3   6   1  127.80   13.16   1
   3  -6   2  250.10   25.01   1
  -3  -6  -2  259.00   24.72   1
   3   6   2  237.10   23.07   1
   3  -6   3   26.50   6.249   1
  -3  -6  -3   39.74   4.131   1
  -3  -6  -3   25.73   3.412   1
   3   6   3   40.59   4.529   1
   3   6   3   29.21   4.465   1
  -3   6  -3   34.68   6.068   1
  -3  -6  -4   25.00   3.383   1
   3   6   4   23.66    4.18   1
   3   6   4   31.94   3.837   1
  -3   6  -4   44.09   6.733   1
   3  -6   5   -2.75   6.316   1
  -3  -6  -5  -1.198   2.811   1
  -3  -6  -5   2.106   1.253   1
   3   6   5   2.371   3.505   1
   3   6   5    0.89   2.969   1
   3  -6   6   2.548   3.459   1
  -3  -6  -6   3.924   1.351   1
  -3  -6  -6  0.9479   3.037   1
   3   6   6   5.775   3.518   1
   3   6   6   4.797   3.973   1
  -3   6  -6   4.034   4.276   1
   3  -6   7   -0.63   3.778   1
   3  -6   7   14.62   8.749   1
  -3  -6  -7   2.257   1.371   1
   3   6   7   6.267   5.265   1
  -3   6  -7  0.7069   4.121   1
  -3   6  -7 0.03921    1.39   1
   3  -6   8  0.0647   4.084   1
   3  -6   8  -2.218   9.429   1
  -3  -6  -8   2.811   5.186   1
   3   6   8   2.596    7.24   1
   3   6   8   4.532   5.225   1
  -3   6  -8   7.793   1.761   1
  -3   6  -8   6.014    4.30   1
   3  -6   9  -3.207   5.016   1
   3  -6   9 -0.1375   9.894   1
  -3   6  -9 -0.5468   1.302   1
  -3   6  -9  -1.014   4.435   1
   3  -6  10   -4.81   10.43   1
  -3   6 -10   3.867   1.697   1
   3  -6  11  -3.243    8.03   1
  -3   6 -11   4.135   6.388   1
  -3   6 -11 -0.7485   2.063   1
  -3  -7  12   54.05   20.73   1
  -3  -7  12   65.44   11.41   1
   3   7 -12   53.24   6.379   1
   3   7 -12   80.59   15.63   1
  -3  -7  11   2.427   5.677   1
  -3  -7  11  -7.551   11.57   1
   3   7 -11  -1.999   1.901   1
   3   7 -11   -9.88   7.538   1
  -3  -7  10  240.70   26.20   1
  -3  -7  10  293.90   29.11   1
   3   7 -10  229.20   24.55   1
   3   7 -10  285.50   27.10   1
  -3  -7   9  679.80   63.98   1
  -3  -7   9  692.80   66.06   1
   3   7  -9  695.60   68.06   1
   3   7  -9  663.10   62.42   1
  -3  -7   8  637.40   60.00   1
   3   7  -8  662.70   65.38   1
   3   7  -8  616.40   58.07   1
  -3  -7   7  249.30   24.50   1
   3   7  -7  271.30   25.72   1
   3  -7  -6  589.30   55.39   1
   3  -7  -6  590.10   56.05   1
  -3  -7   6  610.20   57.44   1
  -3  -7   6  570.80   54.37   1
   3   7  -6  610.20   57.42   1
   3   7  -6  587.20   57.70   1
  -3   7   6  591.10   55.47   1
  -3   7   6  714.70   67.09   1
   3  -7  -5  150.10   14.36   1
   3  -7  -5  130.10   13.86   1
  -3  -7   5  135.30   13.89   1
  -3  -7   5  126.90   12.23   1
   3   7  -5  141.50   13.57   1
   3   7  -5  129.40   15.60   1
  -3   7   5  134.90   12.97   1
  -3   7   5  133.10   12.65   1
   3  -7  -4  238.40   23.68   1
  -3  -7   4  233.80   22.20   1
  -3  -7   4  228.90   22.43   1
   3   7  -4  239.00   22.67   1
   3   7  -4  223.60   23.35   1
  -3   7   4  226.90   21.45   1
   3  -7  -3 2192.00  205.60   1
  -3  -7   3 2159.00  202.50   1
  -3  -7   3 2178.00  204.70   1
   3   7  -3 2353.00  222.00   1
   3   7  -3 2269.00  212.70   1
  -3   7   3 2239.00  210.20   1
   3  -7  -2 1883.00  176.70   1
   3  -7  -2 1574.00  148.30   1
  -3  -7   2 1851.00  174.00   1
  -3  -7   2 1836.00  172.20   1
   3   7  -2 1982.00  187.00   1
   3   7  -2 1940.00  182.00   1
  -3   7   2 2138.00  201.00   1
  -3   7   2 1728.00  162.30   1
   3  -7  -1  277.20   27.29   1
   3  -7  -1  367.40   34.89   1
  -3  -7   1  335.20   32.11   1
  -3  -7   1  337.90   31.93   1
   3   7  -1  392.80   38.58   1
   3   7  -1  338.60   31.97   1
  -3   7   1  305.10   29.18   1
  -3   7   1  435.50   41.87   1
   3  -7   0 1626.00  153.30   1
   3  -7   0 2190.00  205.50   1
  -3  -7   0 1689.00  158.50   1
  -3  -7   0 1979.00  185.90   1
   3   7   0 1605.00  150.60   1
   3   7   0 1965.00  185.20   1
  -3   7   0 1969.00  184.90   1
   3  -7   111160.00 1046.00   1
   3  -7   113800.00 1293.00   1
  -3  -7  -113090.00 1226.00   1
  -3  -7  -113680.00 1282.00   1
   3   7   113380.00 1255.00   1
   3   7   112500.00 1171.00   1
  -3   7  -117640.00 1653.00   1
  -3   7  -111380.00 1066.00   1
   3  -7   2 9912.00  929.60   1
   3  -7   212420.00 1164.00   1
  -3  -7  -210850.00 1016.00   1
  -3  -7  -210450.00  979.00   1
   3   7   210770.00 1009.00   1
   3   7   211010.00 1032.00   1
  -3   7  -214190.00 1330.00   1
  -3   7  -2 9239.00  865.60   1
   3  -7   3 3357.00  314.90   1
   3  -7   3 2575.00  242.60   1
  -3  -7  -3 2925.00  274.30   1
  -3  -7  -3 2714.00  254.40   1
   3   7   3 2968.00  278.90   1
   3   7   3 2963.00  277.90   1
  -3   7  -3 3542.00  332.90   1
  -3   7  -3 2467.00  231.40   1
   3  -7   4   15.71   6.491   1
  -3  -7  -4   3.456   1.346   1
  -3  -7  -4    8.86   2.449   1
   3   7   4    8.10   4.213   1
   3   7   4   5.174   2.062   1
  -3   7  -4   1.616   1.374   1
  -3  -7  -5  363.40   34.27   1
  -3  -7  -5  414.50   39.28   1
   3   7   5  365.80   35.50   1
   3   7   5  347.50   33.00   1
  -3   7  -5  486.60   47.08   1
   3  -7   6  794.50   77.00   1
   3  -7   6  749.10   70.97   1
  -3  -7  -6  741.90   69.69   1
  -3  -7  -6  795.50   74.98   1
   3   7   6  755.80   71.34   1
   3   7   6  779.70   74.40   1
  -3   7  -6  749.10   70.45   1
  -3   7  -6  822.60   78.24   1
   3  -7   7   9.224   4.576   1
   3  -7   7   25.15   9.888   1
  -3  -7  -7   16.85   2.285   1
   3   7   7   14.24   7.797   1
  -3   7  -7   11.15   5.169   1
  -3   7  -7   16.22   2.273   1
   3  -7   8   61.03   12.43   1
   3  -7   8   37.25   6.124   1
  -3  -7  -8   33.46    3.55   1
  -3  -7  -8   51.51   7.804   1
   3   7   8   45.46   9.579   1
   3   7   8   45.94   7.322   1
  -3   7  -8   37.85   4.098   1
  -3   7  -8   33.91   5.991   1
   3  -7   9   6.679   10.19   1
  -3   7  -9   21.32   2.672   1
   3  -7  10   31.08   11.89   1
   3  -7  10   35.27   7.842   1
  -3   7 -10   36.90   4.126   1
  -3   7 -10   36.64   6.945   1
   3  -7  11  135.60   22.05   1
   3  -7  11  183.20   21.29   1
  -3   7 -11  171.00   16.64   1
  -3   7 -11  186.00   20.37   1
  -3  -8  12  -13.06   8.305   1
   3   8 -12 -0.2118   2.698   1
  -3  -8  11  -8.879   12.13   1
  -3  -8  11  0.2731   6.211   1
   3   8 -11   6.726   2.189   1
   3   8 -11  -4.383   8.153   1
  -3  -8  10  0.1691   8.987   1
  -3  -8  10   1.797    5.24   1
   3   8 -10  -0.531   7.427   1
   3   8 -10   3.566   1.707   1
  -3  -8   9 -0.8783   1.641   1
  -3  -8   9  -3.665   4.527   1
   3   8  -9  -5.394   8.998   1
   3   8  -9  0.9508   1.521   1
  -3  -8   8  -2.701   4.159   1
  -3  -8   8   1.323   1.719   1
   3   8  -8   1.551   1.472   1
   3   8  -8   16.22   10.26   1
  -3  -8   7    9.40   2.083   1
  -3  -8   7    2.24   3.846   1
   3   8  -7   7.993   1.779   1
   3   8  -7   3.144   9.711   1
   3  -8  -6   3.165   3.889   1
  -3  -8   6   15.68   2.428   1
   3   8  -6   5.608   8.998   1
  -3   8   6   11.94   1.528   1
  -3   8   6   8.572   1.638   1
   3  -8  -5  -1.666   2.099   1
   3  -8  -5  -3.401   4.767   1
  -3  -8   5   0.481   3.563   1
   3   8  -5  0.2846    1.40   1
  -3   8   5    3.67   1.189   1
  -3   8   5  -0.975   2.297   1
   3  -8  -4   7.635   2.331   1
  -3  -8   4   11.51    1.93   1
  -3  -8   4   3.745   3.582   1
   3   8  -4   1.015   6.343   1
   3   8  -4   12.52   1.955   1
  -3   8   4   10.70   2.931   1
   3  -8  -3   21.65   6.095   1
   3  -8  -3   13.87    2.75   1
  -3  -8   3   20.62   2.611   1
  -3  -8   3   18.04   4.175   1
   3   8  -3   12.44   6.379   1
   3   8  -3   22.81   2.775   1
  -3   8   3   25.25   4.412   1
  -3   8   3   21.79   2.596   1
   3  -8  -2  -1.381   2.391   1
   3  -8  -2   6.305   5.279   1
  -3  -8   2   3.012    1.46   1
  -3  -8   2   6.013    3.43   1
   3   8  -2   2.812   1.433   1
   3   8  -2  0.6566   6.017   1
  -3   8   2   3.408   3.949   1
  -3   8   2  0.8686   1.411   1
  -3  -8   1   60.54   6.134   1
   3   8  -1   29.84   7.494   1
   3   8  -1   53.99   5.502   1
  -3   8   1   48.11   7.219   1
   3  -8   0   39.85   7.532   1
  -3  -8   0   44.55   5.581   1
   3   8   0   43.47   7.911   1
  -3   8   0   60.67   8.307   1
   3  -8   1   42.01   7.611   1
  -3  -8  -1   45.48    5.57   1
   3   8   1   37.54    7.50   1
  -3   8  -1   62.38   8.512   1
   3  -8   2  281.30   28.57   1
  -3  -8  -2  311.10   29.73   1
   3   8   2  287.90   28.82   1
   3  -8   3   7.829   6.597   1
  -3  -8  -3   6.016   1.579   1
  -3  -8  -3  0.1982   2.325   1
   3   8   3   4.876   1.954   1
   3   8   3 0.09067   5.325   1
  -3   8  -3   12.80   2.037   1
   3  -8   4   25.24   4.847   1
  -3  -8  -4   32.41   4.169   1
   3   8   4   36.41   7.458   1
  -3   8  -4   46.73    7.49   1
   3  -8   5  -3.372   7.016   1
   3  -8   5 -0.9775   3.694   1
  -3  -8  -5 -0.1803   2.472   1
  -3  -8  -5   3.483   1.419   1
   3   8   5   3.016   6.798   1
   3   8   5   1.512    2.16   1
  -3   8  -5   4.775   1.538   1
  -3   8  -5   4.152   5.115   1
   3  -8   6   3.299   4.301   1
   3  -8   6  -3.144   8.814   1
  -3  -8  -6   5.783   1.546   1
  -3  -8  -6  0.5285   3.452   1
   3   8   6   4.258   3.503   1
   3   8   6   5.254   7.106   1
  -3   8  -6   6.254   1.642   1
  -3   8  -6   10.61   5.338   1
   3  -8   7   35.20   10.20   1
  -3  -8  -7   50.15   5.141   1
   3   8   7   38.77   9.057   1
  -3   8  -7   61.91   6.282   1
  -3   8  -7   48.22   7.571   1
   3  -8   8   3.058   10.00   1
  -3  -8  -8 -0.5601   1.218   1
  -3  -8  -8   2.438   5.524   1
   3   8   8   9.397   8.244   1
   3   8   8   6.226   5.494   1
  -3   8  -8  0.7704   1.404   1
   3  -8   9  -1.625   10.17   1
   3  -8   9 -0.8608   4.723   1
  -3   8  -9  -1.143   4.823   1
  -3   8  -9   1.363   1.392   1
   3  -8  10  0.9962    6.60   1
   3  -8  10   13.21   10.88   1
  -3   8 -10   1.752   1.556   1
  -3   8 -10   2.811   5.459   1
   3  -8  11   3.019   9.567   1
   3  -8  11  -10.69   12.52   1
  -3   8 -11  -1.958   1.975   1
  -3   8 -11   3.952   7.689   1
  -3  -9  12   77.03   12.82   1
  -3  -9  12   62.58   21.43   1
   3   9 -12   89.03   9.642   1
   3   9 -12   96.12   17.33   1
  -3  -9  11   23.98   13.48   1
   3   9 -11   22.39   9.295   1
   3   9 -11   23.29   3.246   1
  -3  -9  10   34.37   6.977   1
   3   9 -10   28.54   3.459   1
  -3  -9   9  421.00   39.79   1
  -3  -9   9  434.80   42.23   1
   3   9  -9  409.60   42.08   1
   3   9  -9  398.10   37.63   1
  -3  -9   8  411.70   39.98   1
  -3  -9   8  401.40   37.94   1
   3   9  -8  378.80   35.81   1
   3   9  -8  457.80   46.82   1
  -3  -9   7  747.90   70.37   1
  -3  -9   7  665.80   63.54   1
   3   9  -7  752.50   70.78   1
   3   9  -7  835.60   81.60   1
   3  -9  -6  304.90   29.81   1
   3  -9  -6  337.20   31.85   1
  -3  -9   6  320.20   31.26   1
  -3  -9   6  396.00   37.44   1
   3   9  -6  362.20   37.55   1
   3   9  -6  355.50   33.60   1
  -3   9   6  326.20   30.80   1
  -3   9   6  333.70   31.40   1
   3  -9  -5   17.61    5.90   1
   3  -9  -5   12.67   2.601   1
  -3  -9   5   20.06   2.711   1
   3   9  -5   9.827   7.564   1
  -3   9   5   14.85    3.03   1
  -3   9   5   18.83    2.27   1
   3  -9  -4 1487.00  139.60   1
   3  -9  -4 1667.00  157.60   1
  -3  -9   4 1522.00  143.40   1
  -3  -9   4 1869.00  175.40   1
   3   9  -4 1656.00  157.40   1
   3   9  -4 1682.00  157.90   1
  -3   9   4 1699.00  159.40   1
  -3   9   4 1631.00  153.30   1
   3  -9  -3  545.50   51.60   1
   3  -9  -3  531.20   51.54   1
  -3  -9   3  523.10   49.95   1
  -3  -9   3  586.40   55.22   1
   3   9  -3  476.60   46.88   1
   3   9  -3  591.20   55.66   1
  -3   9   3  595.30   56.01   1
  -3   9   3  682.90   64.84   1
   3  -9  -2  821.10   78.56   1
   3  -9  -2  945.90   89.10   1
  -3  -9   2  779.40   73.82   1
  -3  -9   2  689.20   64.84   1
   3   9  -2  737.90   70.99   1
   3   9  -2  732.80   68.90   1
  -3   9   2  653.40   61.47   1
   3  -9  -1  294.30   29.62   1
   3  -9  -1  300.60   28.81   1
  -3  -9   1  314.90   30.38   1
  -3  -9   1  316.90   29.98   1
   3   9  -1  337.60   31.91   1
   3   9  -1  286.00   29.11   1
  -3   9   1  337.60   31.92   1
  -3   9   1  374.40   36.41   1
   3  -9   0  115.30   13.88   1
   3  -9   0  116.90   11.88   1
  -3  -9   0   89.64   9.461   1
  -3  -9   0  108.50   10.54   1
   3   9   0   99.52   12.49   1
   3   9   0   94.25   9.174   1
  -3   9   0  135.10   14.57   1
  -3   9   0  117.50   11.39   1
   3  -9   1 3035.00  285.90   1
   3  -9   1 3038.00  285.10   1
  -3  -9  -1 3059.00  286.80   1
  -3  -9  -1 3069.00  288.00   1
   3   9   1 3204.00  301.60   1
   3   9   1 2916.00  273.40   1
  -3   9  -1 2974.00  278.80   1
  -3   9  -1 3614.00  339.60   1
   3  -9   2 3431.00  323.10   1
  -3  -9  -2 3514.00  329.60   1
  -3  -9  -2 3065.00  287.30   1
  -3   9  -2 2631.00  246.70   1
   3  -9   3 2984.00  280.30   1
  -3  -9  -3 2687.00  252.00   1
  -3  -9  -3 2553.00  239.40   1
   3   9   3 2787.00  261.40   1
   3   9   3 2914.00  274.40   1
  -3   9  -3 3330.00  313.20   1
   3  -9   4  189.30   21.09   1
   3  -9   4  237.40   23.34   1
  -3  -9  -4  190.80   18.46   1
   3   9   4  183.00   17.57   1
   3   9   4  185.80   20.10   1
  -3   9  -4  243.00   24.80   1
   3  -9   5   4.753   4.412   1
   3  -9   5   9.262   8.242   1
  -3  -9  -5   2.031   1.437   1
  -3  -9  -5   7.276   2.624   1
   3   9   5   5.872   7.865   1
   3   9   5   2.291   2.108   1
  -3   9  -5   3.629   5.505   1
  -3   9  -5   3.186   1.557   1
   3  -9   6  214.20   21.62   1
   3  -9   6  238.50   26.43   1
  -3  -9  -6  237.40   22.98   1
  -3  -9  -6  232.40   22.04   1
   3   9   6  220.00   23.75   1
   3   9   6  244.80   23.63   1
  -3   9  -6  241.90   23.00   1
  -3   9  -6  269.10   27.24   1
   3  -9   7 1323.00  126.80   1
   3  -9   7 1255.00  118.60   1
  -3  -9  -7 1282.00  120.30   1
  -3  -9  -7 1255.00  118.00   1
   3   9   7 1210.00  115.40   1
   3   9   7 1202.00  113.20   1
  -3   9  -7 1352.00  128.10   1
  -3   9  -7 1241.00  116.50   1
   3  -9   8  142.60   15.30   1
  -3  -9  -8  131.70   12.61   1
  -3  -9  -8  175.50   18.38   1
   3   9   8  129.80   16.41   1
   3   9   8  152.20   16.41   1
  -3   9  -8  130.00   12.59   1
  -3   9  -8  136.20   15.13   1
   3  -9   9   18.23   10.70   1
   3  -9   9 -0.6534   5.089   1
  -3   9  -9   2.533   5.354   1
  -3   9  -9  -1.396   1.431   1
   3  -9  10   33.42   7.786   1
   3  -9  10   19.29   11.72   1
  -3   9 -10   37.26   7.476   1
  -3   9 -10   38.21    4.28   1
   3  -9  11  158.60   19.40   1
   3  -9  11  116.50   19.48   1
  -3   9 -11  152.40   14.88   1
  -3   9 -11  154.40   17.97   1
  -3 -10  12  -10.79   8.439   1
  -3 -10  12  -10.14   15.57   1
   3  10 -12   7.337   10.22   1
   3  10 -12  0.7632   2.833   1
  -3 -10  11  -14.27   14.00   1
  -3 -10  11   4.225   7.304   1
   3  10 -11 -0.7888    1.96   1
   3  10 -11    8.15   10.05   1
   3  10 -10   2.042   1.803   1
  -3 -10   9   12.24   5.404   1
  -3 -10   9   11.49    2.18   1
   3  10  -9  -2.972   9.503   1
  -3 -10   8   1.234   1.685   1
  -3 -10   8   -3.63   4.812   1
   3  10  -8  -0.311   1.481   1
   3  10  -8   14.65   11.59   1
   3 -10  -7   2.429   1.582   1
   3 -10  -7  -2.606   2.235   1
  -3 -10   7   4.487    1.90   1
  -3 -10   7-0.04897   4.609   1
   3  10  -7   4.059   1.615   1
   3  10  -7  -10.76   9.921   1
  -3  10   7   2.099   0.705   1
  -3  10   7   1.881  0.9999   1
   3 -10  -6    7.63   4.924   1
  -3 -10   6   1.503   4.381   1
  -3 -10   6   13.60   2.394   1
   3  10  -6   9.562   1.902   1
   3  10  -6  -3.762   9.685   1
  -3  10   6   4.601   2.631   1
  -3  10   6   10.72   1.586   1
   3 -10  -5  -3.494   2.283   1
   3 -10  -5  0.7565   5.676   1
  -3 -10   5  0.5118   1.738   1
  -3 -10   5 -0.4904   4.211   1
   3  10  -5  -1.491   9.013   1
   3  10  -5   0.762   1.431   1
  -3  10   5  -1.029   1.148   1
  -3  10   5 -0.8374   2.637   1
   3 -10  -4 -0.4161   2.417   1
   3 -10  -4   1.326    6.34   1
  -3 -10   4   6.681   4.193   1
  -3 -10   4   2.825   1.735   1
   3  10  -4 -0.1553   1.371   1
   3  10  -4  0.6406   7.269   1
  -3  10   4-0.04845   1.328   1
  -3  10   4   1.742    3.55   1
   3 -10  -3 -0.2096   2.796   1
   3 -10  -3   3.194   5.957   1
  -3 -10   3  -1.723   1.411   1
   3  10  -3   -1.60    6.61   1
  -3  10   3  0.6443   4.076   1
  -3  10   3 -0.7104   1.342   1
   3 -10  -2 -0.6927    3.08   1
   3 -10  -2  -2.244   6.051   1
  -3 -10   2   2.412   3.582   1
   3  10  -2   2.039   1.424   1
   3 -10  -1   1.779    2.98   1
   3 -10  -1   3.615   6.451   1
  -3 -10   1  0.2127   1.429   1
  -3 -10   1   2.665   3.356   1
   3  10  -1   1.052   1.395   1
   3  10  -1  -3.098   6.191   1
  -3  10   1   3.668   1.542   1
  -3  10   1  -1.027   4.789   1
   3 -10   0   1.662   6.347   1
   3 -10   0  -2.853   3.178   1
  -3 -10   0  -2.072   2.867   1
  -3 -10   0  -1.897   1.391   1
   3  10   0  -3.012   6.234   1
   3  10   0 -0.8904   1.327   1
  -3  10   0  -1.018   1.482   1
  -3  10   0   4.622   5.006   1
   3 -10   1   22.38   7.386   1
  -3 -10  -1   15.14   3.667   1
  -3 -10  -1   28.02   3.255   1
   3  10   1   16.02   7.105   1
   3  10   1   26.15    3.05   1
  -3  10  -1   33.76   3.782   1
   3 -10   2   2.031    3.47   1
  -3 -10  -2   5.838   3.091   1
  -3 -10  -2   17.21    2.37   1
   3  10   2   13.40   2.065   1
   3  10   2   14.88   6.846   1
  -3  10  -2   2.021   5.588   1
   3 -10   3   35.54   9.094   1
   3 -10   3   26.60   4.834   1
  -3 -10  -3   35.73   4.739   1
   3  10   3   45.24   9.233   1
  -3  10  -3   47.41   7.716   1
   3 -10   4  -1.149   7.967   1
   3 -10   4  -2.486    4.16   1
  -3 -10  -4 -0.1462   1.444   1
  -3 -10  -4   -1.35   2.499   1
   3  10   4 -0.5196   1.953   1
   3  10   4  -9.099   7.651   1
  -3  10  -4 -0.2951    5.61   1
  -3  10  -4 -0.7114   1.341   1
   3 -10   5   4.033   4.826   1
   3 -10   5  -11.36   8.809   1
  -3 -10  -5  0.8115   1.458   1
  -3 -10  -5 -0.1422   2.802   1
   3  10   5  -1.592   2.192   1
   3  10   5   3.058   8.028   1
  -3  10  -5  0.4421   1.349   1
  -3  10  -5  -1.455   6.354   1
   3 -10   6  -1.064   5.248   1
   3 -10   6   12.90   9.471   1
  -3 -10  -6   2.176   1.632   1
  -3 -10  -6   1.214   3.412   1
   3  10   6   1.966   2.984   1
   3  10   6   -3.77   8.477   1
  -3  10  -6  -2.336   5.884   1
  -3  10  -6   5.968    1.68   1
   3 -10   7   7.836   5.421   1
  -3 -10  -7 -0.2065   1.429   1
  -3 -10  -7   1.129   4.176   1
   3  10   7  -2.898   3.868   1
   3  10   7  -14.78   9.258   1
  -3  10  -7  -5.985   5.897   1
   3 -10   8   1.304   5.187   1
   3 -10   8 -0.3409   9.573   1
  -3 -10  -8   6.891    5.81   1
   3  10   8  -2.182   6.055   1
   3  10   8  -4.878   8.384   1
  -3  10  -8   1.154   1.369   1
  -3  10  -8  -1.143   5.471   1
   3 -10   9 -0.3293   5.437   1
   3 -10   9   13.02   10.34   1
  -3  10  -9    2.86   5.623   1
  -3  10  -9   4.395   1.714   1
   3 -10  10   10.45   6.876   1
  -3  10 -10   1.496   6.111   1
  -3  10 -10    4.75   1.852   1
   3 -10  11   4.688   12.18   1
   3 -10  11   2.123   10.07   1
  -3  10 -11   2.588   1.799   1
  -3  10 -11   5.196   7.716   1
  -3 -11  11  121.50   15.09   1
   3  11 -11  111.20   11.04   1
  -3 -11  10   30.87   10.53   1
   3  11 -10   31.68   10.08   1
   3  11 -10   19.31   2.935   1
  -3 -11   9  376.70   35.63   1
  -3 -11   9  354.10   34.95   1
   3  11  -9  348.40   36.91   1
   3  11  -9  366.40   34.70   1
  -3 -11   8  262.90   25.02   1
   3  11  -8  301.70   33.27   1
   3 -11  -7  328.40   31.42   1
   3 -11  -7  345.60   32.65   1
  -3 -11   7  384.70   36.42   1
  -3 -11   7  303.40   30.07   1
   3  11  -7  330.70   35.84   1
   3  11  -7  358.20   33.90   1
  -3  11   7  330.20   31.14   1
  -3  11   7  326.70   30.73   1
   3 -11  -6  283.30   27.10   1
  -3 -11   6  277.50   26.37   1
  -3 -11   6  254.50   25.44   1
   3  11  -6  242.90   27.64   1
   3  11  -6  267.50   25.41   1
  -3  11   6  281.80   26.96   1
   3 -11  -5  568.70   55.10   1
   3 -11  -5  510.10   48.22   1
  -3 -11   5  662.90   62.43   1
  -3 -11   5  541.10   52.07   1
   3  11  -5  610.10   57.46   1
   3  11  -5  648.50   64.23   1
  -3  11   5  578.70   54.81   1
  -3  11   5  610.00   57.36   1
   3 -11  -4 1171.00  110.30   1
   3 -11  -4 1098.00  104.80   1
  -3 -11   4 1217.00  114.30   1
  -3 -11   4 1031.00   97.70   1
   3  11  -4 1169.00  109.80   1
   3  11  -4 1178.00  113.10   1
  -3  11   4 1321.00  124.60   1
  -3  11   4 1189.00  111.60   1
   3 -11  -3 3156.00  296.20   1
   3 -11  -3 2896.00  273.10   1
  -3 -11   3 2529.00  237.80   1
  -3 -11   3 2859.00  268.00   1
   3  11  -3 2860.00  268.10   1
   3  11  -3 2793.00  263.80   1
  -3  11   3 3736.00  351.00   1
  -3  11   3 2906.00  272.40   1
   3 -11  -2  171.80   19.12   1
  -3 -11   2  120.80   11.71   1
  -3 -11   2  148.10   15.33   1
   3  11  -2  131.90   15.90   1
   3  11  -2  146.40   14.09   1
  -3  11   2  118.00   11.45   1
   3 -11  -1  385.40   38.70   1
   3 -11  -1  340.90   32.72   1
  -3 -11   1  357.90   33.85   1
   3  11  -1  285.20   29.36   1
  -3  11   1  388.00   37.92   1
  -3  11   1  402.60   38.07   1
   3 -11   0   93.68   12.89   1
   3 -11   0   73.60    8.34   1
  -3 -11   0   51.76   6.425   1
   3  11   0   56.65   5.759   1
  -3  11   0   73.52   9.609   1
  -3  11   0   63.48   6.426   1
   3 -11   1 1583.00  149.00   1
   3 -11   1 1735.00  164.70   1
  -3 -11  -1 1573.00  148.00   1
   3  11   1 1715.00  160.90   1
  -3  11  -1 1879.00  177.30   1
  -3  11  -1 1714.00  160.80   1
   3 -11   2  598.50   58.75   1
  -3 -11  -2  424.00   40.03   1
  -3 -11  -2  517.90   49.27   1
   3  11   2  428.60   40.43   1
   3  11   2  533.80   52.27   1
   3 -11   3  201.60   22.48   1
   3 -11   3  219.90   21.85   1
  -3 -11  -3  211.20   20.13   1
  -3 -11  -3  220.30   21.45   1
   3  11   3  200.20   21.98   1
   3  11   3  209.50   19.97   1
  -3  11  -3  184.80   17.69   1
  -3  11  -3  243.80   24.97   1
   3 -11   4   51.00   10.71   1
  -3 -11  -4   46.21   5.721   1
  -3 -11  -4   28.83   3.423   1
   3  11   4   35.73    4.23   1
   3  11   4   52.57   10.68   1
  -3  11  -4   51.85   8.422   1
   3 -11   5   12.53   9.524   1
   3 -11   5   14.57   5.501   1
  -3 -11  -5   5.831   3.077   1
  -3 -11  -5    2.52   1.698   1
   3  11   5   3.078   2.382   1
   3  11   5   1.411   8.118   1
  -3  11  -5   5.362   1.619   1
  -3  11  -5   6.524    6.43   1
   3 -11   6  901.10   85.76   1
  -3 -11  -6  799.60   75.16   1
  -3 -11  -6  802.90   75.76   1
   3  11   6  804.70   78.14   1
   3  11   6  720.70   67.97   1
  -3  11  -6 1064.00  101.50   1
   3 -11   7  442.00   43.00   1
   3 -11   7  400.90   41.54   1
  -3 -11  -7  453.90   43.34   1
  -3 -11  -7  422.10   39.81   1
   3  11   7  413.00   39.49   1
   3  11   7  393.10   40.71   1
  -3  11  -7  414.70   39.19   1
  -3  11  -7  481.20   47.14   1
   3 -11   8  338.20   33.36   1
   3 -11   8  309.40   33.50   1
  -3 -11  -8  350.30   34.01   1
   3  11   8  377.00   36.83   1
  -3  11  -8  332.10   33.22   1
  -3  11  -8  316.00   29.95   1
   3 -11   9   23.72    7.09   1
   3 -11   9   28.28   11.62   1
  -3  11  -9   38.14   7.569   1
   3 -11  10   4.847   12.55   1
   3 -11  10   3.364   7.557   1
  -3  11 -10   2.809   6.675   1
  -3  11 -10   7.916   2.031   1
   3 -11  11   95.62   13.24   1
  -3  11 -11  101.20   12.30   1
  -3 -12  11  -39.56   15.25   1
   3  12 -11   1.706   2.008   1
   3  12 -11   7.522   10.97   1
  -3 -12  10 -0.3308   6.057   1
   3  12 -10   4.125   9.181   1
  -3 -12   9   4.551    1.77   1
  -3 -12   9    9.41   5.605   1
   3  12  -9  0.2925   10.04   1
   3  12  -9   2.978   1.753   1
  -3 -12   8   3.082    1.82   1
  -3 -12   8   7.479   5.548   1
   3  12  -8 -0.1584   1.605   1
   3  12  -8   3.733   11.51   1
   3 -12  -7  0.3184   2.236   1
   3 -12  -7   1.146   3.882   1
  -3 -12   7-0.06698   1.854   1
   3  12  -7   3.025   11.15   1
  -3  12   7   1.581   1.127   1
  -3  12   7   1.675   1.926   1
   3 -12  -6 -0.9572   5.813   1
   3 -12  -6   2.883    3.23   1
  -3 -12   6  0.1377   4.852   1
  -3  12   6   2.857   3.326   1
  -3  12   6    2.34   1.431   1
   3 -12  -5   10.99   6.579   1
   3 -12  -5   13.90   3.487   1
  -3 -12   5   18.29   5.822   1
   3  12  -5   5.961   11.20   1
   3  12  -5   29.46   3.525   1
  -3  12   5   17.78   4.389   1
   3 -12  -4   3.337   3.387   1
   3 -12  -4    5.92   6.813   1
  -3 -12   4   2.329   4.823   1
  -3 -12   4   7.879   2.185   1
   3  12  -4   13.15   8.952   1
   3  12  -4   6.655   1.832   1
  -3  12   4   7.606   1.662   1
  -3  12   4   8.648   4.754   1
   3 -12  -3   16.32   7.915   1
   3 -12  -3   8.164   3.527   1
  -3 -12   3   18.03   2.733   1
  -3 -12   3   7.418   4.766   1
   3  12  -3  -2.717   8.432   1
   3  12  -3   18.51   2.567   1
  -3  12   3   16.27   2.342   1
  -3  12   3   13.84   5.759   1
   3 -12  -2   1.558   7.644   1
  -3 -12   2 -0.5876   1.742   1
  -3 -12   2  0.3415   3.883   1
   3  12  -2  -7.473   8.183   1
   3  12  -2  -2.502   1.519   1
  -3  12   2 -0.2196   1.439   1
   3 -12  -1   4.451   3.746   1
  -3 -12   1   1.199   3.613   1
  -3 -12   1   1.887   1.686   1
   3  12  -1   13.41   8.443   1
   3  12  -1   3.155   1.531   1
  -3  12   1  -2.464   5.258   1
   3 -12   0   8.558   7.777   1
   3 -12   0 -0.4361   3.399   1
  -3 -12   0   6.698   3.622   1
  -3 -12   0   6.068   1.889   1
   3  12   0   4.925   1.605   1
   3  12   0 -0.1645   7.572   1
  -3  12   0   9.921    1.96   1
  -3  12   0   7.194   5.519   1
   3 -12   1 -0.2461   3.608   1
   3 -12   1  -1.569   7.639   1
  -3 -12  -1   7.059   1.825   1
   3  12   1   1.578   7.259   1
  -3  12  -1   4.831   1.548   1
  -3  12  -1   2.108   5.177   1
   3 -12   2   -2.29    8.25   1
   3 -12   2   5.547   4.216   1
  -3 -12  -2   1.728   1.712   1
   3  12   2  -4.012   7.403   1
   3  12   2    2.39   1.583   1
  -3  12  -2   3.031   5.806   1
  -3  12  -2   3.361   1.513   1
   3 -12   3  -6.209   8.207   1
   3 -12   3   2.652   4.403   1
  -3 -12  -3   5.622   3.393   1
   3  12   3   3.269   1.658   1
  -3  12  -3  -2.446   5.885   1
  -3  12  -3   1.404   1.475   1
   3 -12   4   4.587   4.971   1
   3 -12   4   13.44   9.601   1
  -3 -12  -4   13.87   3.581   1
   3  12   4   15.39   2.684   1
  -3  12  -4   17.42   2.468   1
  -3  12  -4   19.00   7.054   1
   3 -12   5   -3.06   5.338   1
  -3 -12  -5    3.73    1.71   1
  -3 -12  -5 -0.6319   3.301   1
   3  12   5   4.054   2.313   1
   3  12   5   4.688   9.453   1
  -3  12  -5   -1.75   6.377   1
   3 -12   6   2.037   8.964   1
   3 -12   6  -1.162   6.044   1
  -3 -12  -6   2.317   1.681   1
  -3 -12  -6  -2.025   3.058   1
   3  12   6  -9.526   10.27   1
   3  12   6   4.734   2.666   1
  -3  12  -6   7.297   1.766   1
  -3  12  -6  -5.879   6.551   1
   3 -12   7  0.9201   9.385   1
   3 -12   7  -3.166   6.178   1
  -3 -12  -7   2.436   1.628   1
  -3 -12  -7   7.597   4.615   1
   3  12   7   16.74   11.19   1
   3  12   7 -0.6822   4.142   1
  -3  12  -7   4.345   6.637   1
  -3  12  -7   3.764   1.522   1
   3 -12   8    1.55    9.69   1
   3 -12   8  -1.643   6.406   1
  -3 -12  -8   1.221   1.492   1
   3  12   8   5.229   5.628   1
  -3  12  -8 -0.7621   1.413   1
  -3  12  -8   1.112   6.675   1
   3 -12   9  -1.952    9.99   1
   3 -12   9   3.415   6.974   1
  -3  12  -9 -0.5401   1.577   1
  -3  12  -9   6.258    7.21   1
   3 -12  10  -1.923   11.11   1
   3 -12  10   1.111   8.294   1
  -3  12 -10   7.002   7.251   1
  -3  12 -10 -0.5516    1.78   1
   3 -12  11  0.3479   4.656   1
  -3  12 -11   8.229   4.304   1
  -3 -13  11   15.79   15.01   1
  -3 -13  11   42.11   9.464   1
   3  13 -11   48.19   5.508   1
  -3 -13  10    1.05   6.899   1
  -3 -13  10  -6.574   11.39   1
   3  13 -10   1.549   1.976   1
   3  13 -10  -6.686   9.894   1
  -3 -13   9  199.40   19.22   1
  -3 -13   9  177.00   19.22   1
   3  13  -9  207.10   19.87   1
   3  13  -9  149.60   20.57   1
  -3 -13   8  186.10   19.67   1
  -3 -13   8  184.90   17.76   1
   3  13  -8  182.60   17.55   1
   3  13  -8  174.90   23.02   1
   3 -13  -7  209.40   20.94   1
  -3 -13   7  235.60   22.49   1
  -3 -13   7  219.20   22.65   1
   3  13  -7  232.40   27.92   1
   3  13  -7  225.90   21.57   1
  -3  13   7  207.90   19.69   1
   3 -13  -6   25.88   8.117   1
   3 -13  -6   20.58   4.065   1
  -3 -13   6   32.28    3.89   1
  -3 -13   6   9.787    6.25   1
  -3  13   6   27.76   4.676   1
  -3  13   6   25.97   3.049   1
   3 -13  -5  144.00   16.65   1
   3 -13  -5  163.40   16.37   1
  -3 -13   5  143.80   15.81   1
   3  13  -5  173.40   16.65   1
  -3  13   5  183.00   18.62   1
  -3  13   5  172.20   16.45   1
   3 -13  -4 2145.00  201.70   1
   3 -13  -4 1840.00  174.30   1
  -3 -13   4 2009.00  188.40   1
  -3 -13   4 1814.00  171.10   1
   3  13  -4 2076.00  194.80   1
   3  13  -4 2071.00  197.00   1
  -3  13   4 2558.00  240.70   1
  -3  13   4 1845.00  173.10   1
   3 -13  -3 1248.00  119.10   1
  -3 -13   3 1373.00  128.90   1
  -3 -13   3 1186.00  112.30   1
   3  13  -3 1344.00  126.20   1
   3  13  -3 1318.00  126.60   1
  -3  13   3 1320.00  123.90   1
   3 -13  -2 1058.00   99.95   1
  -3 -13   2  899.80   85.43   1
  -3 -13   2  895.50   84.21   1
   3  13  -2  945.10   91.52   1
   3  13  -2  916.40   86.14   1
  -3  13   2 1128.00  107.10   1
   3 -13  -1  469.30   46.89   1
   3 -13  -1  408.60   39.28   1
  -3 -13   1  494.80   46.70   1
  -3 -13   1  409.70   39.52   1
   3  13  -1  415.10   42.27   1
   3  13  -1  499.40   47.11   1
  -3  13   1  522.80   49.38   1
  -3  13   1  520.90   50.50   1
   3 -13   0   5.897   4.096   1
   3 -13   0   12.08   8.099   1
  -3 -13   0   6.295   3.996   1
  -3 -13   0   14.30   2.479   1
   3  13   0   7.815   9.057   1
   3  13   0   13.58   2.212   1
  -3  13   0   17.90   6.139   1
  -3  13   0   11.48    2.09   1
   3 -13   1  712.10   69.60   1
   3 -13   1  642.30   61.14   1
   3  13   1  593.70   58.74   1
   3  13   1  625.30   58.86   1
  -3  13  -1  618.60   58.29   1
  -3  13  -1  668.90   64.25   1
   3 -13   2  221.10   24.64   1
  -3 -13  -2  172.90   16.60   1
  -3 -13  -2  203.80   20.21   1
   3  13   2  213.30   23.85   1
   3  13   2  176.00   16.86   1
  -3  13  -2  149.80   14.44   1
  -3  13  -2  210.10   21.90   1
   3 -13   3  449.20   43.39   1
   3 -13   3  478.90   48.18   1
  -3 -13  -3  477.60   45.62   1
  -3 -13  -3  417.20   39.41   1
   3  13   3  422.80   42.73   1
   3  13   3  406.30   38.41   1
  -3  13  -3  359.30   34.01   1
  -3  13  -3  464.30   45.50   1
   3 -13   4   33.29   6.811   1
  -3 -13  -4   17.63   2.605   1
   3  13   4   14.44   10.30   1
  -3  13  -4   18.10   7.082   1
   3 -13   5  178.50   18.91   1
   3 -13   5  158.20   19.74   1
  -3 -13  -5  138.90   13.44   1
  -3 -13  -5  131.40   13.42   1
   3  13   5  165.50   16.15   1
   3  13   5   99.52   16.39   1
  -3  13  -5  185.60   20.56   1
  -3  13  -5  143.70   13.87   1
   3 -13   6  613.00   59.09   1
   3 -13   6  593.00   58.99   1
  -3 -13  -6  578.20   54.85   1
  -3 -13  -6  726.80   68.42   1
   3  13   6  632.80   63.23   1
   3  13   6  606.20   57.29   1
  -3  13  -6  798.00   76.95   1
  -3  13  -6  652.70   61.47   1
   3 -13   7 1035.00  100.20   1
  -3 -13  -7 1152.00  108.70   1
  -3 -13  -7 1048.00   98.48   1
   3  13   7 1122.00  108.70   1
   3  13   7 1114.00  105.00   1
  -3  13  -7  932.60   87.68   1
   3 -13   8  244.70   27.98   1
   3 -13   8  243.60   25.38   1
  -3 -13  -8  256.30   25.54   1
  -3 -13  -8  213.60   20.32   1
   3  13   8  242.40   27.12   1
  -3  13  -8  222.90   21.26   1
  -3  13  -8  297.90   30.70   1
   3 -13   9   82.81   15.71   1
   3 -13   9   73.91   11.51   1
  -3  13  -9   70.89   11.86   1
  -3  13  -9   96.23   9.523   1
   3 -13  10   13.43   9.893   1
   3 -13  10  -5.902   9.045   1
  -3  13 -10   9.927   2.216   1
  -3  13 -10    2.87   7.354   1
  -3 -14  11   7.457   10.01   1
  -3 -14  11   4.084   7.679   1
   3  14 -11  -1.194    6.49   1
   3  14 -11   4.098   2.752   1
  -3 -14  10   6.849   12.89   1
  -3 -14  10  -1.053   6.741   1
   3  14 -10  -17.17   11.06   1
   3  14 -10 -0.5737   2.007   1
  -3 -14   9   2.407   6.024   1
  -3 -14   9   2.039   1.727   1
   3  14  -9   5.765   10.80   1
   3  14  -9   4.714   2.068   1
  -3 -14   8   14.60   2.552   1
  -3 -14   8   14.87   6.393   1
   3  14  -8   12.38   2.313   1
   3  14  -8    5.21   11.82   1
   3 -14  -7  -3.322   4.089   1
   3 -14  -7  -1.042   4.611   1
  -3 -14   7   3.575   5.475   1
  -3 -14   7   3.977   1.967   1
   3  14  -7   9.111   12.66   1
   3  14  -7   4.192   1.795   1
  -3  14   7   2.541   3.806   1
  -3  14   7   3.535   1.577   1
   3 -14  -6  -2.814   3.753   1
   3 -14  -6   12.27   7.986   1
   3  14  -6   3.095   1.817   1
  -3  14   6  -3.565   3.884   1
  -3  14   6   1.004   1.578   1
   3 -14  -5   4.043   7.543   1
   3 -14  -5    7.71   4.126   1
  -3 -14   5   15.33   6.366   1
  -3 -14   5   16.06   2.633   1
   3  14  -5   31.56   13.53   1
   3  14  -5   16.84   2.594   1
  -3  14   5   16.61    2.47   1
  -3  14   5   17.65   5.595   1
   3 -14  -4   2.674   4.369   1
  -3 -14   4   3.439   1.916   1
   3  14  -4   8.025   11.77   1
  -3  14   4  0.3351   1.457   1
  -3  14   4   1.808   5.959   1
   3 -14  -3   22.61   8.511   1
   3 -14  -3   20.05   5.162   1
  -3 -14   3   15.16   5.615   1
  -3  14   3   24.18   7.194   1
   3 -14  -2   3.471   4.655   1
   3 -14  -2   8.189   8.398   1
  -3 -14   2   24.02   3.223   1
  -3 -14   2   10.89   4.939   1
   3  14  -2   18.98   11.33   1
   3  14  -2   19.07   2.743   1
  -3  14   2   13.11   6.792   1
  -3  14   2   22.77   2.964   1
   3 -14  -1   11.43   4.608   1
   3 -14  -1   18.71    9.62   1
  -3 -14   1   31.97   3.868   1
  -3 -14   1   12.32   4.623   1
   3  14  -1   28.06    3.46   1
   3  14  -1   27.34   10.67   1
  -3  14   1   14.90   6.347   1
  -3  14   1   30.16   3.545   1
   3 -14   0   40.95   10.38   1
  -3 -14   0   58.87   6.197   1
   3  14   0   19.80   10.47   1
   3  14   0   49.44    5.27   1
  -3  14   0   46.39   8.241   1
  -3  14   0   54.19   5.661   1
   3 -14   1   14.39   9.105   1
  -3 -14  -1   30.27   3.632   1
  -3 -14  -1   13.51   4.228   1
   3  14   1   28.93   3.481   1
   3  14   1    6.66   9.772   1
  -3  14  -1   30.72   3.587   1
  -3  14  -1   14.35   6.594   1
   3 -14   2   4.998   8.617   1
  -3 -14  -2   2.313    1.84   1
  -3 -14  -2 -0.9234   3.554   1
   3  14   2 0.09486    1.61   1
   3  14   2   23.65   10.56   1
  -3  14  -2    2.97   1.578   1
   3 -14   3  -2.524   5.556   1
  -3 -14  -3   3.756   1.828   1
  -3 -14  -3    8.51   3.975   1
   3  14   3   3.136   1.783   1
   3  14   3  -7.225   10.27   1
  -3  14  -3   4.913   6.369   1
   3 -14   4   -4.03   5.588   1
   3 -14   4   10.54   9.168   1
  -3 -14  -4    1.82    3.67   1
  -3 -14  -4   3.118   1.809   1
   3  14   4    2.69   2.045   1
   3  14   4   1.971   10.83   1
  -3  14  -4   6.119   1.688   1
  -3  14  -4  -2.862    6.66   1
   3 -14   5  -3.828   8.634   1
   3 -14   5  0.4219   6.013   1
  -3 -14  -5   4.669   3.584   1
  -3 -14  -5    3.24   1.867   1
   3  14   5  -10.39   11.99   1
   3  14   5    1.97   2.628   1
  -3  14  -5    4.67   7.392   1
  -3  14  -5-0.07071   1.527   1
   3 -14   6    4.96   9.179   1
  -3 -14  -6   9.511   2.325   1
   3  14   6  -3.266   12.33   1
   3  14   6   11.70   3.186   1
  -3  14  -6   12.42   2.146   1
   3 -14   7    4.94   7.147   1
   3 -14   7  -12.93   9.302   1
  -3 -14  -7-0.08804   1.974   1
  -3 -14  -7    2.50   4.769   1
   3  14   7  -12.76   14.60   1
   3  14   7 -0.6468   4.305   1
  -3  14  -7 -0.6675   1.524   1
  -3  14  -7   7.923   7.535   1
   3 -14   8  -1.589   7.467   1
   3 -14   8   4.763   9.777   1
  -3 -14  -8   1.784   1.766   1
  -3 -14  -8   4.342   6.076   1
   3  14   8  0.6959   5.336   1
   3  14   8   -6.63   10.38   1
  -3  14  -8   1.254   1.534   1
  -3  14  -8 -0.9628    7.55   1
   3 -14   9  -12.53   7.801   1
   3 -14   9  -10.58   11.97   1
  -3  14  -9  -0.109   1.622   1
  -3  14  -9  -1.573   7.286   1
   3 -14  10  -3.761   6.764   1
  -3 -15  11   23.38   6.215   1
  -3 -15  10   52.45   10.54   1
  -3 -15  10   21.92   14.17   1
   3  15 -10   50.90   5.925   1
   3  15 -10   41.23   12.44   1
  -3 -15   9  151.40   17.41   1
   3  15  -9  184.40   17.81   1
   3  15  -9  152.10   21.65   1
  -3 -15   8  327.90   33.01   1
  -3 -15   8  307.70   29.26   1
   3  15  -8  304.60   28.97   1
   3  15  -8  342.70   37.93   1
   3 -15  -7  197.40   20.32   1
   3 -15  -7  260.30   25.61   1
  -3 -15   7  223.40   21.35   1
  -3 -15   7  188.00   20.34   1
   3  15  -7  252.40   30.52   1
  -3  15   7  239.90   23.53   1
  -3  15   7  193.60   18.46   1
   3 -15  -6   7.394   8.242   1
   3  15  -6   4.222   13.81   1
   3  15  -6   4.529   1.967   1
   3 -15  -5  854.90   81.05   1
  -3 -15   5  911.00   85.69   1
  -3 -15   5  795.80   76.26   1
   3  15  -5  863.50   85.31   1
   3  15  -5  869.20   81.77   1
  -3  15   5  958.50   91.20   1
  -3  15   5  914.90   86.09   1
   3 -15  -4 1249.00  119.30   1
   3 -15  -4 1533.00  144.70   1
  -3 -15   4 1445.00  135.60   1
  -3 -15   4 1225.00  116.20   1
   3  15  -4 1378.00  129.40   1
   3  15  -4 1426.00  137.30   1
  -3  15   4 1835.00  173.50   1
  -3  15   4 1286.00  120.80   1
   3 -15  -3 1762.00  167.30   1
   3 -15  -3 2244.00  211.20   1
  -3 -15   3 1794.00  169.30   1
  -3 -15   3 1973.00  185.10   1
   3  15  -3 2009.00  191.60   1
   3  15  -3 1883.00  176.60   1
  -3  15   3 1841.00  172.70   1
  -3  15   3 2399.00  226.30   1
   3 -15  -2  252.70   27.22   1
   3 -15  -2  279.20   27.71   1
  -3 -15   2  286.80   27.27   1
  -3 -15   2  223.30   22.75   1
   3  15  -2  281.60   26.79   1
   3  15  -2  270.10   30.42   1
  -3  15   2  313.80   31.73   1
  -3  15   2  260.30   24.78   1
   3 -15  -1   25.54   9.433   1
   3 -15  -1   13.90   5.476   1
  -3 -15   1   8.551   4.618   1
   3  15  -1   12.36    2.34   1
  -3  15   1   17.93   7.104   1
  -3  15   1   15.36   2.403   1
   3 -15   0  204.50   23.26   1
   3 -15   0  221.90   22.39   1
  -3 -15   0  163.10   15.75   1
  -3 -15   0  157.90   16.38   1
   3  15   0  165.40   15.92   1
   3  15   0  196.00   23.48   1
  -3  15   0  199.30   21.09   1
  -3  15   0  157.00   15.13   1
   3 -15   1  574.70   57.07   1
   3 -15   1  529.90   51.02   1
  -3 -15  -1  550.40   52.64   1
  -3 -15  -1  660.50   62.22   1
   3  15   1  548.40   55.31   1
   3  15   1  647.60   60.98   1
  -3  15  -1  642.90   60.57   1
  -3  15  -1  596.90   57.84   1
   3 -15   2  635.90   62.64   1
   3 -15   2  721.30   68.85   1
  -3 -15  -2  675.80   64.31   1
  -3 -15  -2  598.70   56.43   1
   3  15   2  686.10   67.98   1
   3  15   2  555.80   52.40   1
  -3  15  -2  549.40   51.81   1
  -3  15  -2  663.40   64.00   1
   3 -15   3  111.50   15.31   1
  -3 -15  -3  101.30   11.11   1
  -3 -15  -3   69.21   7.109   1
   3  15   3   88.55   15.71   1
   3  15   3   80.65    8.11   1
  -3  15  -3   97.38   12.68   1
  -3  15  -3   69.48   7.006   1
   3 -15   4  0.7178   6.061   1
   3 -15   4   16.56   9.226   1
  -3 -15  -4  0.8433   3.724   1
  -3 -15  -4   8.157   2.192   1
   3  15   4   12.15   12.41   1
   3  15   4   4.821   2.163   1
  -3  15  -4   8.372   1.813   1
  -3  15  -4   15.03   7.366   1
   3 -15   5  136.20   17.86   1
  -3 -15  -5  111.40   11.92   1
  -3 -15  -5  127.90   12.47   1
   3  15   5  129.90   12.94   1
   3  15   5  112.40   19.16   1
  -3  15  -5  127.20   12.35   1
   3 -15   6  641.30   61.99   1
   3 -15   6  526.20   53.02   1
  -3 -15  -6  514.30   49.08   1
  -3 -15  -6  561.70   52.98   1
   3  15   6  549.90   52.14   1
   3  15   6  628.90   64.03   1
  -3  15  -6  532.60   50.24   1
  -3  15  -6  690.80   67.02   1
   3 -15   7  873.00   83.86   1
   3 -15   7  737.60   72.64   1
  -3 -15  -7  936.20   88.10   1
  -3 -15  -7  808.30   76.76   1
   3  15   7  823.70   77.99   1
  -3  15  -7  756.50   71.20   1
  -3  15  -7  998.10   95.91   1
   3 -15   8  575.30   56.21   1
  -3 -15  -8  537.00   51.85   1
  -3 -15  -8  522.50   49.29   1
   3  15   8  492.50   50.11   1
   3  15   8  516.00   49.80   1
  -3  15  -8  681.10   66.45   1
  -3  15  -8  501.60   47.37   1
  -3  15  -9  0.8741   1.775   1
  -3 -16  10   9.616   7.548   1
   3  16 -10   2.728   2.666   1
  -3 -16   9  -0.548   10.91   1
  -3 -16   9   8.554   7.593   1
   3  16  -9   2.575   11.72   1
   3  16  -9   1.101   1.911   1
  -3 -16   8   1.917   6.136   1
  -3 -16   8 -0.1637   1.776   1
   3  16  -8   1.194   1.923   1
   3  16  -8    2.67   12.35   1
   3 -16  -7   6.445    5.84   1
   3 -16  -7   2.668   6.425   1
  -3 -16   7   10.50   6.816   1
  -3 -16   7   18.90   2.912   1
   3  16  -7   15.48   2.665   1
   3  16  -7   21.72   14.35   1
  -3  16   7   13.46   2.504   1
  -3  16   7   12.60   5.538   1
   3 -16  -6   -1.02   4.527   1
  -3 -16   6   7.635   2.246   1
   3  16  -6   4.614   13.35   1
  -3  16   6    1.28   4.853   1
  -3  16   6   5.303   2.005   1
   3 -16  -5   38.68   10.12   1
  -3 -16   5   66.77   7.017   1
  -3 -16   5   38.57   7.868   1
   3  16  -5   28.90   14.50   1
   3  16  -5   51.53   5.576   1
  -3  16   5   55.88   5.886   1
  -3  16   5   43.06   8.285   1
   3 -16  -4   27.71    9.21   1
  -3 -16   4   43.89    4.91   1
  -3 -16   4   20.51    6.63   1
   3  16  -4  -4.149   13.33   1
   3  16  -4   37.08   4.258   1
  -3  16   4   39.27   8.831   1
  -3  16   4   36.05   4.125   1
  -3 -16   3  242.90   23.21   1
   3  16  -3  197.70   18.98   1
  -3  16   3  188.10   20.76   1
  -3  16   3  226.20   21.62   1
   3 -16  -2   8.901   5.489   1
   3 -16  -2   19.44   8.725   1
  -3 -16   2   16.45   5.644   1
  -3 -16   2   18.62   2.911   1
   3  16  -2   11.98   2.365   1
   3  16  -2   3.587   11.85   1
  -3  16   2   17.92    2.62   1
  -3  16   2   10.84   7.479   1
   3 -16  -1  -4.287   8.231   1
  -3 -16   1   3.689   4.574   1
  -3 -16   1  -0.101   1.999   1
   3  16  -1   4.476   11.65   1
   3  16  -1  0.4483   1.886   1
  -3  16   1   1.046   1.598   1
   3 -16   0   9.225   5.505   1
   3  16   0   19.50   12.48   1
  -3  16   0   9.735    6.81   1
   3 -16   1   9.775    5.59   1
   3 -16   1   12.23   8.761   1
  -3 -16  -1   8.665   4.704   1
   3  16   1   15.78   2.548   1
  -3  16  -1   16.67    2.48   1
  -3  16  -1   14.90   6.884   1
   3 -16   2    1.55   5.669   1
   3 -16   2   9.259   9.028   1
  -3 -16  -2   5.033   4.262   1
   3  16   2   12.73   2.339   1
   3  16   2   10.09   12.31   1
  -3  16  -2   16.85   7.459   1
  -3  16  -2   15.97   2.489   1
   3 -16   3   2.973   9.035   1
   3 -16   3 -0.1869   6.172   1
  -3 -16  -3  -1.689   1.986   1
  -3 -16  -3  -1.942   4.134   1
   3  16   3  -15.39   11.94   1
   3  16   3   2.068   1.894   1
  -3  16  -3  -1.195   1.509   1
  -3  16  -3   8.263   7.261   1
   3 -16   4   7.319   8.874   1
  -3 -16  -4  -1.597   1.965   1
  -3 -16  -4  -1.145   4.069   1
   3  16   4  -10.29   12.80   1
   3  16   4  0.4351   2.088   1
  -3  16  -4   2.466   1.496   1
   3 -16   5   5.751   9.519   1
   3 -16   5   3.326   7.242   1
  -3 -16  -5   1.602   2.068   1
  -3 -16  -5  -6.143   3.914   1
   3  16   5   2.076   2.885   1
   3  16   5  0.6341   14.76   1
  -3  16  -5   3.766   7.133   1
  -3  16  -5   6.827   1.797   1
   3 -16   6  -2.466   9.688   1
   3 -16   6   5.264   8.143   1
  -3 -16  -6   1.297   2.148   1
  -3 -16  -6-0.06304   4.488   1
   3  16   6  -8.415   15.38   1
   3  16   6  -2.681   3.175   1
  -3  16  -6   6.435   1.863   1
  -3  16  -6   -4.18    8.01   1
   3 -16   7   3.249   8.756   1
  -3 -16  -7 -0.5378   2.153   1
  -3 -16  -7   2.528   5.965   1
   3  16   7   1.707   15.37   1
  -3  16  -7  -6.799   7.783   1
   3 -16   8  -6.991   10.97   1
   3 -16   8   12.81   9.179   1
  -3  16  -8  -3.042   8.055   1
  -3  16  -8  0.9788    1.60   1
  -3 -17   9  212.60   23.38   1
   3  17  -9  231.50   22.37   1
   3 -17  -8  151.50   15.44   1
   3 -17  -8  185.40   18.81   1
  -3 -17   8  151.80   14.69   1
  -3 -17   8  185.00   20.48   1
   3  17  -8  193.40   18.66   1
   3  17  -8  155.70   21.44   1
  -3  17   8  170.80   16.55   1
  -3  17   8  154.10   14.79   1
   3 -17  -7  100.30   13.08   1
   3 -17  -7  132.50   15.12   1
  -3 -17   7  127.80   15.42   1
   3  17  -7  145.10   14.18   1
  -3  17   7  117.60   13.31   1
  -3  17   7  136.20   13.44   1
   3 -17  -6   40.35   7.105   1
   3 -17  -6   60.73   12.31   1
  -3 -17   6   52.68   5.644   1
  -3 -17   6   38.74   8.386   1
   3  17  -6   57.55   16.40   1
   3  17  -6   65.69   6.829   1
  -3  17   6   54.57   5.865   1
  -3  17   6   43.59   7.805   1
   3 -17  -5   63.73   9.372   1
   3 -17  -5   85.85   13.98   1
  -3 -17   5   70.59   10.18   1
  -3 -17   5   72.33   7.445   1
   3  17  -5   65.51   16.90   1
   3  17  -5   65.20   6.783   1
  -3  17   5   84.20   11.70   1
  -3  17   5   62.69    6.51   1
   3 -17  -4  947.60   91.47   1
   3 -17  -4 1029.00   97.90   1
  -3 -17   4  909.20   85.57   1
  -3 -17   4  837.70   80.14   1
   3  17  -4  961.90   90.46   1
   3  17  -4  978.10   97.11   1
  -3  17   4 1199.00  114.40   1
  -3  17   4  834.30   78.50   1
   3 -17  -3  271.80   28.90   1
  -3 -17   3  289.30   27.53   1
  -3 -17   3  249.10   25.41   1
   3  17  -3  295.50   28.10   1
   3  17  -3  292.00   34.19   1
  -3  17   3  265.60   25.28   1
   3 -17  -2  180.80   19.40   1
  -3 -17   2  150.90   16.37   1
  -3 -17   2  129.20   12.63   1
   3  17  -2  151.70   21.84   1
   3  17  -2  147.60   14.32   1
  -3  17   2  190.00   21.22   1
  -3  17   2  129.40   12.61   1
   3 -17  -1   40.60   7.814   1
   3 -17  -1   15.85   9.388   1
  -3 -17   1   23.75   3.264   1
  -3 -17   1   25.82   6.095   1
   3  17  -1   31.01   3.791   1
   3  17  -1   23.74   12.89   1
  -3  17   1   27.13   8.448   1
  -3  17   1   25.34   3.179   1
   3 -17   0   86.70   11.00   1
   3 -17   0   88.60   14.02   1
  -3 -17   0   78.62    8.00   1
  -3 -17   0   51.73    7.76   1
   3  17   0   80.39   16.38   1
   3  17   0   74.89    7.62   1
  -3  17   0   96.19   12.77   1
  -3  17   0   74.71   7.534   1
   3 -17   1  842.40   81.92   1
   3 -17   1  892.50   85.10   1
  -3 -17  -1  806.70   76.86   1
  -3 -17  -1  896.30   84.32   1
   3  17   1  875.80   82.40   1
   3  17   1  811.30   80.48   1
  -3  17  -1  809.60   76.19   1
  -3  17  -1  970.10   92.90   1
   3 -17   2  442.70   43.25   1
   3 -17   2  466.00   47.10   1
  -3 -17  -2  465.00   43.97   1
  -3 -17  -2  433.40   42.00   1
   3  17   2  434.30   41.07   1
   3  17   2  455.80   47.86   1
  -3  17  -2  450.10   44.64   1
  -3  17  -2  409.30   38.70   1
   3 -17   3  376.00   37.41   1
   3 -17   3  345.20   36.13   1
  -3 -17  -3  307.30   29.22   1
   3  17   3  329.40   36.35   1
  -3  17  -3  341.60   34.66   1
  -3  17  -3  269.20   25.60   1
   3 -17   4   37.76   10.30   1
   3 -17   4   70.92   11.14   1
  -3 -17  -4   56.12   6.052   1
  -3 -17  -4   54.77    7.79   1
   3  17   4   62.48   6.674   1
   3  17   4   50.37   15.90   1
  -3  17  -4   60.42    6.20   1
  -3  17  -4   66.79   11.07   1
   3 -17   5   89.07   12.76   1
   3 -17   5   83.84   13.86   1
  -3 -17  -5   56.30    7.84   1
   3  17   5   68.81    7.62   1
   3  17   5   68.63   18.74   1
  -3  17  -5  104.00   14.54   1
  -3  17  -5   71.63   7.234   1
   3 -17   6  577.30   58.22   1
   3 -17   6  722.60   70.08   1
  -3 -17  -6  757.90   71.41   1
  -3 -17  -6  617.30   59.07   1
   3  17   6  686.60   65.05   1
   3  17   6  692.20   71.33   1
  -3  17  -6  768.10   74.47   1
   3 -17   7  572.80   56.64   1
   3 -17   7  447.90   46.58   1
  -3 -17  -7  511.40   49.73   1
  -3 -17  -7  476.20   45.11   1
   3  17   7  464.30   44.80   1
   3  17   7  546.00   58.33   1
  -3  17  -7  594.40   58.65   1
  -3  17  -7  436.50   41.29   1
  -3 -18   8   7.603    7.45   1
   3  18  -8  0.2415   2.196   1
   3 -18  -7  -8.161   8.201   1
   3 -18  -7   4.238   7.625   1
  -3 -18   7  -3.454   7.275   1
  -3 -18   7  0.4688   1.773   1
   3  18  -7  -17.37   12.48   1
   3  18  -7 0.05975   2.059   1
  -3  18   7  -3.183   6.618   1
   3 -18  -6  0.4366   9.909   1
   3 -18  -6  -3.066   6.167   1
  -3 -18   6   10.50   6.793   1
   3  18  -6   6.768   2.315   1
  -3  18   6   5.198   2.326   1
  -3  18   6   4.185   6.497   1
   3 -18  -5 -0.8142   6.733   1
   3 -18  -5   7.104   9.898   1
  -3 -18   5   14.58   2.629   1
  -3 -18   5   2.781   6.335   1
   3  18  -5    9.54   2.275   1
   3  18  -5   2.568   14.67   1
  -3  18   5   4.313   7.582   1
  -3  18   5   12.44   2.567   1
   3 -18  -4   9.573    7.32   1
  -3 -18   4   15.67   2.794   1
  -3 -18   4   14.75   6.387   1
   3  18  -4   13.68   13.54   1
   3  18  -4   13.62   2.498   1
  -3  18   4   9.725   7.514   1
  -3  18   4   10.88   2.259   1
   3 -18  -3   11.04   8.736   1
   3 -18  -3   4.917   7.144   1
   3  18  -3   26.31   14.62   1
  -3  18   3   34.97   9.247   1
  -3  18   3   30.05   3.739   1
   3 -18  -2   -3.39    7.09   1
   3 -18  -2  -11.68   8.232   1
  -3 -18   2  -7.979   5.098   1
   3  18  -2 -0.7371   1.884   1
  -3  18   2 0.04423   1.693   1
  -3  18   2   -8.33   8.102   1
   3 -18  -1    2.93    8.50   1
   3 -18  -1   4.841   6.741   1
  -3 -18   1   4.459   2.074   1
  -3 -18   1   6.953   5.164   1
   3  18  -1  -9.256   12.81   1
   3  18  -1   5.222   2.029   1
  -3  18   1   4.239   7.317   1
  -3  18   1   3.252   1.738   1
   3 -18   0  -8.597   6.333   1
   3 -18   0   4.898   7.959   1
  -3 -18   0   3.421   5.035   1
  -3 -18   0   3.347   2.006   1
   3  18   0  0.1356   1.937   1
   3  18   0  -10.96   12.96   1
  -3  18   0  0.8588    1.58   1
  -3  18   0   6.805   6.995   1
   3 -18   1 -0.8428   8.413   1
  -3 -18  -1   3.257   4.639   1
  -3 -18  -1   7.059    2.21   1
   3  18   1   4.679   2.041   1
   3  18   1  -6.494   13.60   1
  -3  18  -1   5.447   1.826   1
   3 -18   2 -0.9516   6.598   1
  -3 -18  -2   6.632   2.163   1
  -3 -18  -2  0.4329   4.687   1
   3  18   2   3.966   1.971   1
   3  18   2  -9.318   13.72   1
  -3  18  -2  -3.084   7.102   1
   3 -18   3   2.814   7.167   1
   3 -18   3   10.57   9.317   1
  -3 -18  -3   30.93    3.92   1
  -3 -18  -3   13.13   5.273   1
   3  18   3   27.13   14.49   1
   3  18   3   22.34   3.196   1
  -3  18  -3   17.92    7.82   1
  -3  18  -3   29.73   3.532   1
   3 -18   4   -3.59   7.752   1
   3 -18   4   -2.92   8.816   1
  -3 -18  -4   2.183   2.101   1
  -3 -18  -4 -0.8793   4.642   1
   3  18   4   16.36   15.24   1
   3  18   4   2.424   2.272   1
  -3  18  -4  0.3708   1.516   1
  -3  18  -4   3.192   8.023   1
   3 -18   5   4.813   7.716   1
  -3 -18  -5  0.2996   2.181   1
  -3 -18  -5  -1.012   4.977   1
   3  18   5   1.673   3.208   1
   3  18   5   10.52   16.04   1
  -3  18  -5  -8.173   7.731   1
   3 -18   6  -9.676   9.868   1
   3 -18   6   8.586   9.056   1
  -3 -18  -6  -1.338   2.249   1
   3  18   6  0.1378   3.953   1
   3  18   6  -10.71   17.20   1
  -3  18  -6 -0.7273    8.28   1
   3 -19  -7   75.46   12.99   1
   3 -19  -7   64.63   11.82   1
  -3 -19   7   75.71   11.80   1
   3  19  -7   71.07   7.439   1
  -3  19   7   67.27   7.624   1
  -3  19   7   74.86   11.38   1
   3 -19  -6   54.89   12.63   1
   3 -19  -6   31.98   8.407   1
  -3 -19   6   33.87    4.02   1
  -3 -19   6   56.08   10.06   1
   3  19  -6   56.10   15.72   1
   3  19  -6   44.49   5.114   1
  -3  19   6   41.68   5.044   1
  -3  19   6   43.67   9.474   1
   3 -19  -5  -0.559   10.63   1
   3 -19  -5   5.372   7.867   1
  -3 -19   5   7.705   2.048   1
   3  19  -5  -12.30   12.80   1
  -3  19   5   9.291    7.68   1
   3 -19  -4   32.92   10.68   1
   3 -19  -4   41.48   9.696   1
  -3 -19   4   38.92   8.047   1
  -3 -19   4   33.69   4.099   1
   3  19  -4   25.59   3.508   1
   3  19  -4   18.06   15.62   1
  -3  19   4   38.87   10.10   1
  -3  19   4   27.83   3.688   1
   3 -19  -3  317.30   33.47   1
  -3 -19   3  257.00   24.54   1
  -3 -19   3  267.10   27.24   1
   3  19  -3  279.00   33.40   1
   3  19  -3  264.60   25.27   1
  -3  19   3  349.50   35.65   1
  -3  19   3  226.50   21.67   1
   3 -19  -2  259.40   28.17   1
   3 -19  -2  264.10   27.49   1
  -3 -19   2  331.90   31.53   1
  -3 -19   2  265.70   27.07   1
   3  19  -2  313.80   29.84   1
   3  19  -2  296.50   34.81   1
  -3  19   2  278.20   26.49   1
  -3  19   2  321.40   33.17   1
   3 -19  -1   50.14   11.15   1
   3 -19  -1   49.10   9.597   1
  -3 -19   1   62.22   6.684   1
   3  19  -1   44.32   5.355   1
   3  19  -1   59.23   16.86   1
  -3  19   1   51.66   5.511   1
  -3  19   1   42.23   9.759   1
   3 -19   0   62.97    9.93   1
  -3 -19   0   40.41   4.703   1
  -3 -19   0   33.76   7.065   1
   3  19   0   41.43   4.758   1
   3  19   0   40.84   15.56   1
  -3  19   0   56.90   9.891   1
  -3  19   0   35.26   4.138   1
   3 -19   1  537.70   52.91   1
   3 -19   1  505.60   50.80   1
  -3 -19  -1  518.30   50.09   1
   3  19   1  576.70   54.45   1
   3 -19   2 1128.00  107.50   1
   3 -19   2 1123.00  108.20   1
  -3 -19  -2 1301.00  122.30   1
  -3 -19  -2 1227.00  116.30   1
   3  19   2 1169.00  109.80   1
   3  19   2 1262.00  123.50   1
  -3  19  -2 1220.00  116.40   1
  -3  19  -2 1100.00  103.40   1
   3 -19   3  233.80   26.02   1
   3 -19   3  331.40   34.04   1
  -3 -19  -3  294.10   28.05   1
  -3 -19  -3  305.60   30.40   1
   3  19   3  267.60   32.69   1
   3  19   3  271.90   25.98   1
  -3  19  -3  258.70   24.65   1
  -3  19  -3  313.40   32.80   1
   3 -19   4   19.75   8.957   1
   3 -19   4   18.12   10.99   1
  -3 -19  -4   9.977   2.546   1
  -3 -19  -4   11.14   5.426   1
   3  19   4   27.59   15.77   1
   3  19   4   12.34   3.019   1
  -3  19  -4   6.385   1.953   1
  -3  19  -4   9.588   8.054   1
   3 -19   5   54.88   12.29   1
  -3 -19  -5   29.38   7.018   1
  -3 -19  -5   39.90   4.979   1
   3  19   5   38.57   19.68   1
   3  19   5   42.56   5.826   1
  -3  19  -5   49.42   5.274   1
  -3  19  -5   80.31   13.21   1
  -3 -19  -6   97.53   13.26   1
  -3 -19  -6  105.30   10.76   1
   3  19   6   90.24   22.98   1
   3  19   6   94.47   10.89   1
   3 -20  -6  -11.21   11.46   1
   3 -20  -6   1.246   8.943   1
  -3 -20   6   -6.09   7.349   1
  -3  20   6   6.578   8.236   1
   3 -20  -5   17.01   12.08   1
   3 -20  -5  -2.493   9.094   1
  -3 -20   5   4.642   6.352   1
  -3 -20   5   4.057   1.937   1
   3  20  -5  0.1637   1.988   1
   3  20  -5  -20.32   13.58   1
  -3  20   5  -4.939   9.648   1
  -3  20   5 -0.3509   2.375   1
   3 -20  -4  -14.27   10.11   1
   3 -20  -4   4.367   8.251   1
  -3 -20   4  -2.451   6.088   1
  -3 -20   4   3.361    1.97   1
   3  20  -4   3.624   2.146   1
   3  20  -4   6.379   13.92   1
  -3  20   4   1.964   2.188   1
  -3  20   4   12.49   8.665   1
   3 -20  -3  -4.361   9.475   1
  -3 -20   3   10.11   6.404   1
  -3 -20   3   3.017   2.105   1
   3  20  -3   6.478   2.198   1
   3  20  -3   13.21   13.87   1
  -3  20   3   7.305   2.334   1
   3 -20  -2  -6.442   8.384   1
  -3 -20   2  0.1477   5.855   1
  -3 -20   2   3.387   2.224   1
   3  20  -2   3.188   2.077   1
   3  20  -2 -0.4786   14.50   1
  -3  20   2   2.284    9.03   1
  -3  20   2  0.2829   2.079   1
   3 -20  -1   10.60   8.251   1
   3 -20  -1   10.87   8.837   1
  -3 -20   1-0.09382   5.753   1
  -3 -20   1 -0.8237   2.142   1
   3  20  -1   10.31   14.89   1
   3  20  -1  -1.423   2.036   1
  -3  20   1   23.72    9.68   1
  -3  20   1  0.7391   1.912   1
   3 -20   0  -2.791   8.217   1
   3 -20   0  -1.184   7.882   1
  -3 -20   0   2.239   2.205   1
  -3 -20   0 -0.2066   5.372   1
   3  20   0  -2.074   2.131   1
   3  20   0   9.492   15.12   1
  -3  20   0  0.5591   1.741   1
  -3  20   0  -4.515   8.429   1
   3 -20   1   6.262   7.963   1
   3 -20   1   6.728   8.535   1
  -3 -20  -1   3.714   5.384   1
  -3 -20  -1   6.292   2.468   1
   3  20   1   24.12   15.68   1
   3  20   1   7.109   2.357   1
  -3  20  -1  0.4173   8.263   1
  -3  20  -1   11.33   2.261   1
   3 -20   2   1.536   8.686   1
   3 -20   2   1.319   8.097   1
  -3 -20  -2  -1.928    5.78   1
  -3 -20  -2  -2.889   2.191   1
   3  20   2   -2.68   2.156   1
   3  20   2  -7.959   15.80   1
  -3  20  -2 -0.8769   1.744   1
  -3  20  -2   1.518   7.861   1
   3 -20   3    0.75   7.967   1
   3 -20   3  0.2923   9.085   1
  -3 -20  -3   1.105   2.195   1
   3  20   3    6.61   14.83   1
  -3  20  -3  0.9232   1.659   1
  -3  20  -3  0.2902   7.762   1
   3 -20   4  -1.298   9.746   1
   3 -20   4  -3.197    9.23   1
  -3 -20  -4   6.937    2.60   1
   3  20   4   5.843   2.665   1
   3  20   4   10.13   15.96   1
  -3  20  -4   1.775   8.708   1
  -3  20  -4   5.333   1.782   1
  -3 -20  -5  0.2737   5.932   1
   3  20   5   1.041   3.589   1
   3 -21  -5   15.97   11.55   1
  -3  21   5 0.08338   2.517   1
   3 -21  -4   25.46   12.88   1
   3 -21  -4   70.60   13.97   1
  -3 -21   4   56.41   9.415   1
   3  21  -4   46.76   5.306   1
  -3  21   4   67.12   12.78   1
   3 -21  -3  101.90   16.04   1
  -3 -21   3  110.20   13.80   1
  -3 -21   3   98.75   9.867   1
   3  21  -3  125.90   12.44   1
   3  21  -3  104.00   19.20   1
  -3  21   3  152.30   20.45   1
   3 -21  -2  116.50   16.50   1
   3 -21  -2  151.30   19.00   1
  -3 -21   2  117.90   14.27   1
  -3 -21   2  107.30   10.70   1
   3  21  -2  113.40   20.98   1
  -3  21   2  148.50   19.06   1
  -3  21   2  117.20   11.59   1
   3 -21  -1   20.72   9.808   1
   3 -21  -1   27.45   10.44   1
  -3 -21   1   19.27   3.074   1
   3  21  -1   12.19   3.005   1
   3  21  -1   32.41   15.73   1
  -3  21   1   19.65   2.896   1
  -3  21   1   34.99   10.11   1
   3 -21   0   31.49   10.19   1
  -3 -21   0   25.77   6.969   1
   3  21   0   21.76   3.352   1
  -3  21   0   26.68   3.439   1
   3 -21   1  295.30   31.64   1
   3 -21   1  348.70   35.83   1
  -3 -21  -1  313.10   31.60   1
  -3 -21  -1  378.20   35.97   1
   3  21   1  326.40   31.12   1
   3  21   1  342.80   40.02   1
  -3  21  -1  376.40   38.66   1
  -3  21  -1  309.80   29.52   1
   3 -21   2  475.70   47.62   1
   3 -21   2  386.50   40.01   1
  -3 -21  -2  559.50   52.93   1
  -3 -21  -2  467.80   45.84   1
   3  21   2  430.80   48.52   1
   3  21   2  445.40   42.27   1
  -3  21  -2  529.30   52.82   1
  -3  21  -2  433.80   41.05   1
   3 -21   3  269.60   30.17   1
  -3 -21  -3  230.70   22.21   1
  -3 -21  -3  263.30   27.07   1
   3  21   3  293.90   36.14   1
   3  21   3  214.60   20.79   1
  -3  21  -3  219.60   21.04   1
  -3 -21  -4   10.84   6.038   1
  -3 -21  -4   2.675   2.533   1
   3  21   4   29.06   17.20   1
   3  21   4   6.375   3.023   1
  -3 -21  -5 -0.1902   2.759   1
  -3 -21  -5   1.355    6.89   1
   3  21   5  0.4303    4.87   1
   3  21   5   -6.31   16.97   1
   3 -22  -5  0.5373   9.701   1
   3 -22  -5  0.0081    9.40   1
  -3  22   5   6.428   3.191   1
  -3  22   5  -14.21   9.028   1
   3 -22  -4   6.593   9.845   1
   3 -22  -4  -2.105   11.69   1
  -3  22   4  -2.069    9.53   1
  -3  22   4   -1.91   2.731   1
   3 -22  -3  -10.00   11.57   1
   3 -22  -3  -8.542   11.61   1
  -3  22   3   4.901   9.333   1
  -3  22   3  0.4671   2.309   1
   3 -22  -2  -11.85   11.65   1
  -3 -22   2   3.553   6.901   1
   3  22  -2  0.4676   2.265   1
  -3  22   2   1.402   10.25   1
  -3  22   2  -2.456   2.265   1
   3 -22  -1   1.117   9.874   1
   3 -22  -1 -0.4654   10.35   1
  -3 -22   1   4.631    2.14   1
  -3 -22   1  0.9817    6.30   1
   3  22  -1   2.873   2.287   1
   3  22  -1   3.722   15.25   1
  -3  22   1   3.019   2.183   1
  -3  22   1  -6.176   9.468   1
   3 -22   0   6.453   10.06   1
   3 -22   0   2.868    9.73   1
  -3 -22   0 -0.7231   2.041   1
  -3 -22   0  0.2507   6.108   1
   3  22   0  0.4306   2.169   1
   3  22   0  -7.648   14.99   1
  -3  22   0   9.875   9.476   1
  -3  22   0   0.787   1.979   1
   3 -22   1  -6.015   10.24   1
   3 -22   1   4.411   10.54   1
  -3 -22  -1  0.6019   2.144   1
  -3 -22  -1  -4.155   6.287   1
   3  22   1 -0.8633   2.228   1
   3  22   1   3.212   15.98   1
  -3  22  -1   21.86    9.46   1
  -3  22  -1   0.866   2.072   1
  -3 -22  -2    2.41   2.366   1
  -3 -22  -2  -1.753    6.28   1
   3  22   2   3.622   15.30   1
  -3 -22  -3  -1.943   2.509   1
   3  22   3  -11.07   17.40   1
  -3 -22  -4   4.572   2.891   1
   3  22   4  -3.214   16.15   1
   3  22   4   -3.94   3.981   1
   3 -23  -4   80.19   13.33   1
   3 -23  -4   68.15   11.26   1
  -3  23   4  130.40   18.58   1
  -3  23   4  101.10   10.89   1
   3 -23  -3  121.50   16.62   1
   3 -23  -3  124.60   18.31   1
  -3  23   3  152.80   19.26   1
  -3  23   3  130.20   12.97   1
   3 -23  -2   51.03   11.94   1
   3 -23  -2   65.09   15.08   1
  -3  23   2   75.94   14.12   1
  -3  23   2   59.79   6.732   1
   3 -23  -1   6.991   9.756   1
  -3  23   1   5.169   2.651   1
  -3 -23  -1  114.60   14.77   1
   3  23   1   96.14   10.15   1
  -3 -23  -3   32.66   7.823   1
   3  23   3   30.16   14.67   1
   3  23   3   47.25   6.366   1
  -3 -23  -4   6.529   5.114   1
   4   0  -9  350.90   33.38   1
   4   0  -9  354.30   34.96   1
  -4   0   9  347.30   32.70   1
  -4   0   9  379.60   36.12   1
   4   0  -8  320.30   30.35   1
  -4   0   8  342.50   32.49   1
   4   0  -7 1539.00  145.30   1
  -4   0   7 1536.00  144.10   1
  -4   0   7 1600.00  150.20   1
   4   0  -6 1676.00  158.00   1
  -4   0   6 1579.00  148.10   1
   4   0  -5-0.07596   2.615   1
  -4   0   5  0.8165    1.06   1
   4   0  -4 1382.00  129.90   1
  -4   0   4 1268.00  118.90   1
   4   0  -3 2671.00  250.50   1
  -4   0   3 2351.00  220.40   1
   4   0  -2 2956.00  277.20   1
  -4   0   2 2956.00  277.10   1
   4   0  -1 3394.00  318.20   1
   4   0  -1 3533.00  331.30   1
  -4   0   1 3856.00  361.50   1
  -4   0   1 3941.00  369.50   1
   4   0   0   48.21   5.235   1
   4   0   0   55.71   6.436   1
  -4   0   0   48.55    5.39   1
  -4   0   0   53.88   5.738   1
   4   0   1  215.40   20.62   1
   4   0   1  170.20   16.72   1
  -4   0  -1  212.20   20.32   1
  -4   0  -1  157.00   15.17   1
   4   0   2 3083.00  289.10   1
   4   0   2 2706.00  254.00   1
  -4   0  -2 2864.00  268.60   1
  -4   0  -2 2637.00  247.30   1
   4   0   3 1446.00  136.10   1
   4   0   3 1504.00  141.20   1
  -4   0  -3 1396.00  131.20   1
  -4   0  -3 1224.00  115.00   1
   4   0   4 2295.00  215.90   1
   4   0   4 2081.00  195.30   1
   4   0   5  122.90   12.18   1
   4   0   5  126.50   14.10   1
  -4   0  -5   99.69   9.967   1
  -4   0  -5  136.50   14.01   1
   4   0   6  222.70   22.67   1
   4   0   6  256.70   24.69   1
  -4   0  -6  223.40   22.32   1
  -4   0  -6  224.70   21.57   1
   4   0   7 1743.00  163.80   1
   4   0   7 1425.00  134.80   1
  -4   0  -7 1604.00  151.40   1
  -4   0  -7 1763.00  165.50   1
   4   0   8 1137.00  107.20   1
   4   0   8  993.80   95.22   1
  -4   0  -8 1268.00  119.00   1
  -4   0  -8 1165.00  109.70   1
   4   0   9  463.10   47.02   1
  -4   0  -9  410.30   38.69   1
   4   0  10   6.527   13.93   1
  -4   0 -10   2.417    1.53   1
  -4  -1  10   3.953    6.16   1
  -4  -1  10  0.3722   3.519   1
   4   1 -10  0.3682    2.57   1
   4   1 -10   1.722    4.69   1
   4  -1  -9  -2.221    3.99   1
   4  -1  -9  0.5797   2.949   1
  -4  -1   9   1.083   1.216   1
   4   1  -9   2.428   7.202   1
  -4   1   9    1.93   2.692   1
   4  -1  -8   6.042   5.391   1
   4  -1  -8   12.20   3.222   1
  -4  -1   8    5.80   2.929   1
  -4  -1   8   14.23   2.077   1
   4   1  -8   14.93   2.625   1
   4   1  -8   17.46   7.284   1
  -4   1   8    9.88    3.21   1
  -4   1   8   14.93   1.873   1
   4  -1  -7   1.247   4.501   1
   4  -1  -7   1.095   2.446   1
  -4  -1   7-0.04203   2.231   1
  -4  -1   7 -0.7374   1.234   1
   4   1  -7  -2.542   5.112   1
   4   1  -7   0.403   1.824   1
  -4   1   7   1.186    1.02   1
  -4   1   7  -3.069   2.441   1
   4  -1  -6  0.8376   2.044   1
  -4  -1   6   1.931   1.217   1
  -4  -1   6  -1.412   2.109   1
   4   1  -6 -0.4492   1.714   1
   4   1  -6  -3.382   5.036   1
  -4   1   6  -3.033   2.101   1
   4  -1  -5   2.613   2.036   1
  -4  -1   5   2.727    2.10   1
  -4  -1   5   1.055    1.12   1
   4   1  -5  -1.082   1.712   1
   4   1  -5   4.183   3.119   1
  -4   1   5  0.2292   2.054   1
   4  -1  -4  -3.381   2.354   1
   4  -1  -4  0.7627   2.388   1
  -4  -1   4  0.5402   1.155   1
  -4  -1   4   -1.81   2.093   1
   4   1  -4 -0.4499   2.565   1
   4   1  -4   1.964   1.816   1
   4  -1  -3   14.37   2.666   1
  -4  -1   3   12.60   2.619   1
   4   1  -3   18.95   3.474   1
   4   1  -3   24.41    3.28   1
   4  -1  -2 -0.3144   1.884   1
  -4  -1   2  -1.438   1.956   1
  -4  -1   2   3.466   1.501   1
   4   1  -2   3.403   2.298   1
   4   1  -2 -0.3672   2.008   1
  -4   1   2   1.277   1.782   1
   4  -1  -1   43.73   4.833   1
  -4  -1   1   49.02   5.311   1
   4   1  -1   56.54    6.08   1
  -4   1   1   44.23    5.02   1
   4  -1   0   3.014    3.00   1
   4  -1   0   1.155   2.002   1
  -4  -1   0 -0.8282   1.863   1
  -4  -1   0  -3.257    1.94   1
   4   1   0   4.561   2.068   1
   4   1   0  0.2487   2.318   1
  -4   1   0 -0.3891   2.132   1
  -4   1   0  -2.284   2.275   1
   4  -1   1   44.30   5.773   1
   4  -1   1   35.23   4.184   1
  -4  -1  -1   55.23   5.868   1
  -4  -1  -1   33.96   4.216   1
   4   1   1   39.50   4.603   1
  -4   1  -1   49.43   5.439   1
   4  -1   2  134.70   13.88   1
  -4  -1  -2  141.40   13.72   1
   4   1   2  128.60   13.03   1
  -4   1  -2  130.90   12.88   1
   4  -1   3  205.00   20.68   1
  -4  -1  -3  191.80   18.41   1
   4   1   3  165.70   16.44   1
  -4   1  -3  167.90   16.32   1
  -4  -1  -4   25.59    3.39   1
   4   1   4   16.99   3.082   1
   4   1   4   25.43   4.641   1
  -4   1  -4   21.21   3.451   1
   4  -1   5   1.584   4.868   1
   4  -1   5-0.06929   2.439   1
  -4  -1  -5    3.36   3.383   1
  -4  -1  -5 -0.2799    2.16   1
   4   1   5   1.151   2.329   1
   4   1   5 -0.2871   4.799   1
  -4   1  -5   2.506   2.486   1
  -4   1  -5  0.6653   3.754   1
   4  -1   6   7.909   5.464   1
   4  -1   6   11.36   3.061   1
  -4  -1  -6   1.903   4.833   1
  -4  -1  -6   13.37   2.906   1
   4   1   6   15.93    5.97   1
   4   1   6   4.451   2.832   1
  -4   1  -6   7.621    4.82   1
  -4   1  -6   12.01   2.972   1
   4  -1   7   15.84   6.497   1
   4  -1   7    4.02   3.373   1
  -4  -1  -7   12.97   2.995   1
  -4  -1  -7 -0.8595   5.721   1
   4   1   7   12.84   3.699   1
   4   1   7   6.736   5.875   1
  -4   1  -7   8.441   3.252   1
  -4   1  -7   11.20   5.794   1
   4  -1   8   12.99   8.864   1
   4  -1   8   14.46   4.174   1
  -4  -1  -8   11.05    6.76   1
   4   1   8   29.72   8.625   1
   4   1   8   11.37   4.446   1
  -4   1  -8   28.53   4.368   1
  -4  -1  -9   37.05   4.866   1
  -4  -1  -9   42.25   4.366   1
   4   1   9   27.12   10.72   1
   4   1   9   23.58   5.921   1
  -4   1  -9   42.15   4.414   1
  -4   1  -9   29.54    4.89   1
   4  -1  10   10.64   6.167   1
  -4  -1 -10   5.583   1.657   1
  -4  -1 -10   1.568   2.524   1
   4   1  10  -2.737   13.50   1
   4   1  10   1.595   7.449   1
  -4   1 -10   5.789    1.64   1
  -4   1 -10   3.967   4.032   1
   4  -1  11   26.73   17.19   1
   4  -1  11    2.49   8.914   1
  -4   1 -11   1.308   3.983   1
  -4   1 -11  0.6546   2.113   1
  -4  -2  11  274.60   26.78   1
  -4  -2  11  266.70   27.20   1
   4   2 -11  270.10   27.06   1
   4   2 -11  235.20   22.67   1
  -4  -2  10   1.978   3.348   1
  -4  -2  10 -0.6415   6.472   1
   4   2 -10  0.9443   2.246   1
   4   2 -10   1.372   5.795   1
  -4  -2   9   96.79   10.05   1
  -4  -2   9   89.82   8.776   1
   4   2  -9  101.40   13.86   1
   4   2  -9  109.80   10.91   1
   4  -2  -8 2890.00  271.70   1
   4  -2  -8 3053.00  286.50   1
  -4  -2   8 3039.00  284.90   1
  -4  -2   8 3279.00  307.60   1
   4   2  -8 3574.00  335.20   1
   4   2  -8 2942.00  277.50   1
  -4   2   8 3160.00  296.20   1
  -4   2   8 2738.00  256.90   1
   4  -2  -7 1525.00  143.70   1
   4  -2  -7 1370.00  128.70   1
  -4  -2   7 1421.00  133.50   1
  -4  -2   7 1468.00  137.70   1
   4   2  -7 1357.00  128.60   1
   4   2  -7 1661.00  155.80   1
  -4   2   7 1452.00  136.10   1
  -4   2   7 1356.00  127.30   1
   4  -2  -6  223.80   21.47   1
   4  -2  -6  241.50   23.26   1
  -4  -2   6  254.60   24.09   1
  -4  -2   6  245.10   23.48   1
   4   2  -6  300.40   28.47   1
   4   2  -6  273.80   27.51   1
  -4   2   6  244.90   23.35   1
  -4   2   6  251.30   23.70   1
   4  -2  -5   44.32   5.284   1
  -4  -2   5   50.96   5.621   1
  -4  -2   5   47.37   4.793   1
   4   2  -5   50.62   5.302   1
   4   2  -5   53.05   7.322   1
  -4   2   5   59.22   6.376   1
  -4  -2   4 2194.00  205.90   1
  -4  -2   4 2327.00  218.10   1
   4   2  -4 2448.00  229.60   1
   4   2  -4 2175.00  204.30   1
  -4   2   4 2487.00  233.30   1
  -4   2   4 2407.00  225.60   1
   4  -2  -3 8529.00  799.10   1
  -4  -2   3 8607.00  806.50   1
  -4  -2   3 8521.00  798.30   1
   4   2  -3 8742.00  819.30   1
   4   2  -3 8991.00  842.40   1
  -4   2   3 9081.00  850.90   1
   4  -2  -2  922.60   86.72   1
  -4  -2   2  785.20   73.75   1
  -4  -2   2  830.10   78.10   1
   4   2  -2  878.40   82.78   1
   4   2  -2  831.30   78.18   1
  -4   2   2  755.70   71.07   1
   4  -2  -1   63.65   6.536   1
   4  -2  -1   66.33   7.343   1
  -4  -2   1   88.07   8.611   1
  -4  -2   1   66.24   6.848   1
   4   2  -1   76.97   8.055   1
   4   2  -1   80.40   8.144   1
  -4   2   1   68.47   7.027   1
   4  -2   0  108.80   11.27   1
  -4  -2   0  101.20   9.887   1
   4   2   0  143.50   14.01   1
   4   2   0  104.80   10.38   1
  -4   2   0  109.60   10.92   1
   4  -2   1 1005.00   94.93   1
   4  -2   1 1000.00   94.02   1
  -4  -2  -1  909.70   85.54   1
  -4  -2  -1  931.90   87.59   1
   4   2   1  791.90   74.56   1
   4   2   1  903.30   85.00   1
  -4   2  -1  913.10   85.89   1
  -4   2  -1  853.80   80.42   1
   4  -2   2 1531.00  143.70   1
   4  -2   2 1797.00  169.30   1
  -4  -2  -2 1503.00  141.10   1
  -4  -2  -2 1584.00  148.70   1
   4   2   2 1452.00  136.50   1
   4   2   2 1389.00  130.50   1
  -4   2  -2 1444.00  135.70   1
  -4   2  -2 1415.00  133.00   1
   4  -2   3 7572.00  709.60   1
   4  -2   3 8624.00  808.90   1
  -4  -2  -3 6779.00  635.20   1
  -4  -2  -3 7071.00  662.70   1
   4   2   3 5772.00  541.10   1
   4   2   3 7419.00  695.40   1
  -4   2  -3 6309.00  591.40   1
  -4   2  -3 7127.00  668.10   1
   4  -2   4  802.90   76.45   1
   4  -2   4  903.70   85.11   1
  -4  -2  -4  799.20   75.29   1
  -4  -2  -4  673.10   63.39   1
   4   2   4  658.70   62.33   1
   4   2   4  798.70   75.32   1
  -4   2  -4  921.70   87.01   1
  -4   2  -4  680.70   64.30   1
   4  -2   5   32.45   4.387   1
   4  -2   5   21.91   5.337   1
  -4  -2  -5   38.80   5.289   1
  -4  -2  -5   28.65   3.724   1
   4   2   5   32.16   4.425   1
   4   2   5   43.77   6.799   1
  -4   2  -5   38.99    5.77   1
  -4   2  -5   31.92   4.581   1
   4  -2   6  634.30   60.00   1
   4  -2   6  524.80   50.60   1
  -4  -2  -6  689.70   65.55   1
  -4  -2  -6  671.30   63.27   1
   4   2   6  595.10   56.36   1
   4   2   6  742.40   70.93   1
  -4   2  -6  610.20   57.73   1
  -4   2  -6  545.00   52.15   1
   4  -2   7 1267.00  120.40   1
   4  -2   7 1588.00  149.40   1
  -4  -2  -7 1784.00  167.50   1
  -4  -2  -7 1487.00  140.40   1
   4   2   7 1455.00  137.60   1
   4   2   7 1579.00  148.60   1
  -4   2  -7 1529.00  143.70   1
  -4   2  -7 1235.00  117.00   1
   4  -2   8 1277.00  120.30   1
  -4  -2  -8 1383.00  129.90   1
  -4  -2  -8 1173.00  111.30   1
   4   2   8 1328.00  125.20   1
   4   2   8 1092.00  104.00   1
  -4   2  -8 1149.00  108.20   1
  -4   2  -8 1292.00  121.30   1
   4  -2   9   52.63   7.206   1
   4  -2   9   56.08   12.86   1
  -4  -2  -9   48.23   5.393   1
  -4  -2  -9   52.51   5.281   1
   4   2   9   43.31   7.826   1
   4   2   9   69.95   13.36   1
  -4   2  -9   42.07   5.703   1
   4  -2  10   24.31    6.42   1
   4  -2  10   52.08   15.13   1
  -4  -2 -10   13.96   2.687   1
  -4  -2 -10   23.99   2.897   1
   4   2  10   24.18   8.083   1
   4   2  10   1.097   12.28   1
  -4   2 -10   21.71    2.75   1
  -4   2 -10   21.39   5.007   1
   4  -2  11   65.71   21.24   1
   4  -2  11   58.78   11.58   1
  -4   2 -11   45.68   7.853   1
  -4   2 -11   71.07   7.471   1
  -4  -3  11 -0.7326   4.143   1
  -4  -3  11  -12.41   9.733   1
   4   3 -11  -1.117   2.716   1
   4   3 -11   2.986   6.286   1
  -4  -3  10   3.247   1.568   1
  -4  -3  10   3.031   3.695   1
   4   3 -10   3.894   2.492   1
   4   3 -10   3.092   6.866   1
  -4  -3   9   26.23   3.216   1
  -4  -3   9   12.86   3.631   1
   4   3  -9   19.87   3.057   1
   4   3  -9   18.26   9.079   1
   4  -3  -8   26.21   4.922   1
  -4  -3   8   41.96   4.509   1
   4   3  -8   34.77   4.031   1
   4   3  -8   16.41   8.291   1
  -4   3   8   39.79   3.815   1
   4  -3  -7   3.513   3.532   1
   4  -3  -7   5.401   4.139   1
  -4  -3   7   4.035   1.518   1
  -4  -3   7   3.358   2.645   1
   4   3  -7   7.231   6.383   1
   4   3  -7   4.485   1.712   1
  -4   3   7   4.217   1.088   1
  -4   3   7   4.338   2.688   1
   4  -3  -6 -0.1239   2.068   1
   4  -3  -6  -1.355   2.848   1
  -4  -3   6  0.7741   2.545   1
  -4  -3   6  0.6275   1.194   1
   4   3  -6  0.8812   1.488   1
   4   3  -6   8.549   5.884   1
  -4   3   6  0.8307   2.258   1
  -4   3   6   0.784  0.9296   1
   4  -3  -5   4.461   2.873   1
  -4  -3   5  0.3924   2.401   1
  -4  -3   5    3.56   1.364   1
   4   3  -5  0.6087   5.131   1
   4   3  -5    4.84   1.523   1
  -4   3   5  0.7481   2.207   1
   4  -3  -4   4.885   3.152   1
  -4  -3   4   7.668    1.61   1
  -4  -3   4   5.795   2.505   1
   4   3  -4   6.967    1.74   1
   4   3  -4   3.491    3.79   1
  -4   3   4  0.4129   2.242   1
   4  -3  -3   14.94   2.503   1
  -4  -3   3   12.79   2.831   1
   4   3  -3   19.30   3.899   1
   4  -3  -2   2.247    1.96   1
   4  -3  -2 -0.2241   3.473   1
  -4  -3   2   2.768   1.342   1
  -4  -3   2   3.056    2.36   1
   4   3  -2   3.035   2.002   1
   4   3  -2  0.6591   2.781   1
  -4   3   2   3.591   2.082   1
   4  -3  -1   3.091   2.137   1
   4  -3  -1   1.725   3.602   1
  -4  -3   1   3.922   1.411   1
  -4  -3   1   5.449   2.269   1
   4   3  -1   1.531   2.041   1
   4   3  -1  0.7123    2.79   1
  -4   3   1 -0.1127   2.671   1
  -4   3   1  -1.818   2.277   1
   4  -3   0   6.347   4.146   1
   4  -3   0   7.446   2.571   1
  -4  -3   0   7.691   1.688   1
  -4  -3   0   5.242   2.268   1
   4   3   0   3.613   2.156   1
   4   3   0   4.066   2.617   1
  -4   3   0  0.2436   2.321   1
  -4   3   0   6.024    3.15   1
   4  -3   1   83.30    9.98   1
   4   3   1   77.10   7.881   1
   4   3   1   54.08    6.10   1
  -4   3  -1   80.91   8.752   1
   4  -3   2  268.60   25.67   1
  -4  -3  -2  295.10   28.06   1
   4   3   2  357.10   33.98   1
   4  -3   3   48.04   7.316   1
   4  -3   3   35.82   4.732   1
  -4  -3  -3   40.72   5.019   1
   4   3   3   60.82   6.953   1
   4   3   3   48.36   5.566   1
  -4   3  -3   54.09   6.464   1
   4  -3   4   8.317   4.805   1
   4  -3   4   9.749   3.222   1
  -4  -3  -4   12.05   3.096   1
  -4  -3  -4   16.68    2.44   1
   4   3   4   10.84   3.312   1
   4   3   4   9.447   2.798   1
  -4   3  -4   1.104   3.479   1
  -4   3  -4   14.97   3.822   1
   4  -3   5   3.377   2.919   1
   4  -3   5   2.835   5.125   1
  -4  -3  -5   4.576   3.159   1
  -4  -3  -5    2.65   1.862   1
   4   3   5   2.207    4.01   1
   4   3   5 -0.3983   2.849   1
  -4   3  -5   2.492   3.439   1
  -4   3  -5   4.022   3.991   1
   4  -3   6   9.158   5.974   1
  -4  -3  -6    4.45   1.959   1
  -4  -3  -6  0.7602   4.406   1
   4   3   6   2.569   5.187   1
   4   3   6   3.694   3.478   1
  -4   3  -6   2.582   4.864   1
   4  -3   7   2.682   3.767   1
  -4  -3  -7   5.083   6.296   1
  -4  -3  -7   8.036   2.175   1
   4   3   7   2.805   4.217   1
   4   3   7 -0.9824   6.398   1
  -4   3  -7   13.11   1.969   1
  -4   3  -7   10.92   3.785   1
   4  -3   8   89.88   14.18   1
   4  -3   8   84.22   9.564   1
   4   3   8   83.07   11.42   1
   4   3   8  102.20   11.82   1
  -4   3  -8  122.80   12.71   1
  -4  -3  -9   3.357   1.288   1
  -4  -3  -9   2.267   1.739   1
   4   3   9   2.435   10.10   1
   4   3   9   -5.98    5.72   1
  -4   3  -9   4.328    1.47   1
   4  -3  10   5.669   5.463   1
   4  -3  10   10.90   12.44   1
  -4  -3 -10   2.535   2.154   1
  -4  -3 -10 0.00329   1.331   1
   4   3  10    1.40   6.917   1
   4   3  10  -5.407   10.70   1
  -4   3 -10  0.8341   1.469   1
  -4   3 -10   6.868   4.189   1
   4  -3  11   19.19   15.97   1
   4  -3  11   1.037   8.303   1
  -4   3 -11   4.779   2.224   1
  -4   3 -11-0.03888   5.756   1
  -4  -4  12   65.48   9.742   1
  -4  -4  12   88.33   17.19   1
   4   4 -12   96.32   15.47   1
   4   4 -12   47.52   6.258   1
  -4  -4  11  113.60   12.60   1
  -4  -4  11  100.30   16.15   1
   4   4 -11   90.61   12.60   1
   4   4 -11  111.90   11.42   1
  -4  -4  10   1.594   3.957   1
  -4  -4  10   6.521   1.772   1
   4   4 -10   9.784   7.973   1
   4   4 -10   2.012   2.227   1
  -4  -4   9  613.00   58.22   1
  -4  -4   9  618.80   58.25   1
   4   4  -9  605.90   59.81   1
   4   4  -9  616.00   58.05   1
  -4  -4   8  241.70   22.97   1
  -4  -4   8  239.30   23.27   1
   4   4  -8  231.70   22.06   1
   4   4  -8  266.40   28.45   1
   4  -4  -7  191.40   18.89   1
   4  -4  -7  226.80   22.14   1
  -4  -4   7  182.40   17.41   1
  -4  -4   7  217.10   21.15   1
   4   4  -7  192.70   21.08   1
   4   4  -7  181.30   17.30   1
  -4   4   7  183.90   17.36   1
  -4   4   7  197.50   19.11   1
   4  -4  -6  164.70   15.92   1
   4  -4  -6  193.50   19.32   1
  -4  -4   6  157.10   15.01   1
  -4  -4   6  162.80   16.09   1
   4   4  -6  161.80   15.46   1
   4   4  -6  152.70   16.88   1
  -4   4   6  147.40   13.96   1
  -4   4   6  141.00   13.92   1
   4  -4  -5   22.82   4.369   1
  -4  -4   5   17.90   3.566   1
  -4  -4   5   28.47   3.184   1
  -4   4   5   15.13   2.969   1
   4  -4  -4  384.70   36.87   1
   4  -4  -4  320.20   30.30   1
  -4  -4   4  328.70   31.04   1
  -4  -4   4  351.10   33.49   1
   4   4  -4  355.20   34.77   1
   4   4  -4  275.70   26.09   1
  -4   4   4  304.50   28.81   1
  -4   4   4  355.40   33.76   1
   4  -4  -3 1589.00  149.10   1
  -4  -4   3 1660.00  155.90   1
  -4  -4   3 1574.00  147.60   1
   4   4  -3 1570.00  147.30   1
   4   4  -3 1469.00  138.40   1
  -4   4   3 1377.00  129.30   1
   4  -4  -2  997.40   93.74   1
   4  -4  -2 1078.00  101.80   1
  -4  -4   2  851.70   79.99   1
  -4  -4   2  938.40   88.35   1
   4   4  -2  860.60   81.26   1
   4   4  -2  881.60   82.86   1
  -4   4   2  855.20   80.51   1
  -4   4   2  973.70   91.61   1
   4  -4  -1 2098.00  196.70   1
   4  -4  -1 2591.00  243.50   1
  -4  -4   1 2021.00  189.70   1
  -4  -4   1 2232.00  209.30   1
   4   4  -1 1930.00  181.30   1
   4   4  -1 2392.00  224.20   1
  -4   4   1 2164.00  203.10   1
  -4   4   1 1931.00  181.30   1
   4  -4   0  -2.478   4.631   1
   4  -4   0  0.3598   2.314   1
  -4  -4   0   1.823   2.289   1
  -4  -4   0   3.844   1.432   1
   4   4   0 -0.1629   2.887   1
   4   4   0   4.619   2.149   1
  -4   4   0   5.062   3.423   1
  -4   4   0   2.401   2.733   1
   4  -4   1  792.80   74.64   1
   4  -4   1 1060.00  100.50   1
  -4  -4  -1  736.90   69.25   1
  -4  -4  -1  725.80   68.35   1
   4   4   1  799.10   75.40   1
   4   4   1  736.10   69.29   1
  -4   4  -1  738.60   69.76   1
  -4   4  -1  827.50   78.04   1
   4  -4   211300.00 1059.00   1
   4  -4   212940.00 1213.00   1
  -4  -4  -210960.00 1027.00   1
  -4  -4  -210700.00 1002.00   1
   4   4   212470.00 1168.00   1
   4   4   2 9806.00  918.80   1
  -4   4  -211170.00 1047.00   1
  -4   4  -210090.00  945.20   1
   4  -4   3 1609.00  151.80   1
   4  -4   3 1835.00  172.30   1
  -4  -4  -3 1655.00  155.20   1
  -4  -4  -3 1841.00  172.90   1
  -4   4  -3 1721.00  161.80   1
  -4   4  -3 1520.00  142.90   1
   4  -4   4   69.80   8.797   1
   4   4   4   68.69   7.629   1
   4   4   4   77.17   8.271   1
  -4   4  -4   61.78   7.175   1
   4  -4   5   34.90   6.818   1
  -4  -4  -5   43.83   4.627   1
  -4  -4  -5   40.09   5.148   1
   4   4   5   38.54   5.617   1
   4   4   5   40.60   5.596   1
  -4   4  -5   43.27   6.405   1
   4  -4   6  455.50   43.39   1
  -4  -4  -6  468.40   44.14   1
  -4  -4  -6  479.90   45.76   1
   4   4   6  489.50   46.71   1
   4   4   6  564.10   54.01   1
  -4   4  -6  476.30   45.41   1
   4  -4   7  887.00   85.41   1
   4  -4   7  972.60   91.89   1
  -4  -4  -7  856.90   80.51   1
  -4  -4  -7 1097.00  103.90   1
   4   4   7 1010.00   95.50   1
   4   4   7 1118.00  106.20   1
  -4   4  -7  899.10   84.49   1
  -4   4  -7  941.80   88.99   1
   4  -4   8   78.09   13.64   1
   4  -4   8   80.39   9.568   1
  -4  -4  -8   68.99   10.65   1
  -4  -4  -8   96.90   9.495   1
   4   4   8   83.79   11.46   1
   4   4   8   90.65   11.12   1
  -4   4  -8   95.63   10.48   1
  -4   4  -8  115.50   11.18   1
   4  -4   9   1.059   11.22   1
  -4  -4  -9   4.631   1.878   1
  -4  -4  -9    2.17   1.153   1
   4   4   9   6.005   6.319   1
   4   4   9   -6.03   8.945   1
  -4   4  -9   4.332   1.493   1
  -4   4  -9   6.602   4.223   1
   4  -4  10   31.56   13.64   1
   4  -4  10   20.31   6.295   1
   4   4  10   16.91   10.59   1
  -4   4 -10   22.42   2.859   1
  -4   4 -10   14.59   4.612   1
   4  -4  11   45.59   17.52   1
  -4   4 -11   39.51   8.214   1
  -4  -5  12  -20.77   17.10   1
  -4  -5  12   7.224   7.412   1
   4   5 -12   12.61   10.55   1
   4   5 -12   1.094   4.413   1
  -4  -5  11   7.294   5.404   1
   4   5 -11  -1.488   2.818   1
  -4  -5  10  -4.352   4.367   1
   4   5 -10   5.137   8.741   1
  -4  -5   9   11.56   4.185   1
   4   5  -9   15.10   2.405   1
  -4  -5   8  -3.389   3.435   1
  -4  -5   8   2.757   1.717   1
   4   5  -8   2.499   1.577   1
   4   5  -8   15.63   9.144   1
   4  -5  -7  0.4097   2.592   1
   4  -5  -7   1.254   3.212   1
  -4  -5   7   3.849   1.676   1
  -4  -5   7 -0.3527    3.33   1
   4   5  -7  -7.081   7.685   1
   4   5  -7   1.079   1.416   1
  -4   5   7   3.546  0.8298   1
  -4   5   7   3.137  0.9067   1
  -4   5   7   2.486   2.719   1
   4  -5  -6  -3.448   3.545   1
   4  -5  -6   2.391   1.967   1
  -4  -5   6   3.433   2.945   1
  -4  -5   6   2.567   1.453   1
   4   5  -6   4.041   1.416   1
   4   5  -6  -5.978   6.676   1
  -4   5   6  -2.823   2.874   1
  -4   5   6   2.031   1.011   1
   4  -5  -5    5.52   3.804   1
   4   5  -5   6.813   1.543   1
   4   5  -5  0.3132   5.951   1
  -4   5   5   4.308   3.089   1
  -4  -5   4   44.61   5.627   1
   4   5  -4   70.98   7.026   1
   4   5  -4   43.63   8.111   1
  -4   5   4   51.21   5.368   1
   4  -5  -3   40.57   6.579   1
  -4  -5   3   59.94   6.043   1
  -4  -5   3   39.34   5.157   1
   4   5  -3   56.61   5.747   1
  -4   5   3   47.23   5.409   1
   4  -5  -2   3.695   2.467   1
   4  -5  -2   9.884   4.895   1
  -4  -5   2   3.959    2.67   1
  -4  -5   2   11.45   1.935   1
   4   5  -2  -1.013   3.561   1
   4   5  -2   11.11   1.989   1
  -4   5   2   8.343   3.351   1
  -4   5   2   2.648    2.70   1
   4  -5  -1   36.46   6.589   1
   4  -5  -1   14.33   3.011   1
  -4  -5   1   23.34   3.701   1
   4   5  -1   24.42   4.357   1
  -4   5   1   31.65   4.805   1
   4  -5   0   45.91   7.419   1
  -4  -5   0   27.03   3.816   1
   4   5   0   28.21   4.369   1
   4   5   0   46.63   5.105   1
  -4   5   0   30.28    4.82   1
   4  -5   1  133.10   14.55   1
  -4  -5  -1  170.20   16.23   1
   4   5   1  177.20   17.08   1
  -4   5  -1  127.10   13.06   1
   4  -5   2  116.80   12.85   1
  -4  -5  -2  110.80   10.96   1
   4   5   2  133.10   13.39   1
  -4   5  -2  152.80   15.32   1
   4  -5   3  -2.164    2.70   1
   4  -5   3  -2.821   4.304   1
  -4  -5  -3    1.47   1.295   1
   4   5   3   1.102   2.879   1
   4   5   3 -0.5662   2.015   1
  -4   5  -3   5.363   3.558   1
  -4   5  -3 -0.6073   3.052   1
   4  -5   4 -0.2395   4.806   1
  -4  -5  -4  -1.761   2.599   1
  -4  -5  -4   3.758   1.355   1
   4   5   4   1.667   2.949   1
   4   5   4   3.652   3.045   1
  -4   5  -4  0.4531   3.367   1
   4  -5   5  -1.149   2.873   1
  -4  -5  -5   1.585   3.225   1
  -4  -5  -5   2.163   1.419   1
   4   5   5   4.312    3.77   1
   4   5   5 -0.6306   3.508   1
  -4   5  -5   5.744   3.576   1
   4  -5   6   1.829    7.10   1
   4  -5   6   4.682   3.825   1
  -4  -5  -6    2.85   1.562   1
  -4  -5  -6   7.407   3.858   1
   4   5   6   4.113   4.375   1
   4   5   6   6.998   4.246   1
  -4   5  -6   4.784   1.425   1
  -4   5  -6   6.267   4.111   1
   4  -5   7   85.10   13.55   1
   4  -5   7   64.21   8.022   1
  -4  -5  -7   59.37   9.013   1
   4   5   7   86.75   10.25   1
   4  -5   8   33.16   11.19   1
   4  -5   8   25.32   5.789   1
  -4  -5  -8   13.26   7.571   1
  -4   5  -8   38.43   6.103   1
   4  -5   9  -7.139   5.056   1
   4  -5   9  0.7929   11.68   1
  -4  -5  -9  0.1299   1.092   1
  -4  -5  -9-0.09061   1.697   1
   4   5   9  -5.513   7.697   1
   4   5   9  -5.605   8.293   1
  -4   5  -9   1.233   1.384   1
  -4   5  -9   1.733   4.392   1
   4  -5  10   4.005   13.55   1
   4  -5  10  0.9002   6.148   1
  -4  -5 -10  0.9826   1.151   1
  -4  -5 -10 -0.8431   1.436   1
  -4   5 -10 -0.3984   1.426   1
  -4   5 -10   4.397   4.616   1
   4  -5  11  -8.114    8.16   1
   4  -5  11 -0.1015   13.36   1
  -4   5 -11  -1.723   2.192   1
  -4   5 -11 -0.1791    6.23   1
  -4  -6  12   37.44   10.17   1
  -4  -6  12   38.88   20.33   1
   4   6 -12   44.31   12.57   1
   4   6 -12   56.09   7.662   1
  -4  -6  11   44.77   7.553   1
  -4  -6  11   35.65   13.15   1
   4   6 -11   22.29    9.06   1
   4   6 -11   43.92   5.189   1
   4   6 -10   7.883   2.211   1
  -4  -6   9   3.479   4.301   1
  -4  -6   9   5.245   2.002   1
   4   6  -9  -14.50   9.718   1
   4   6  -9   5.164   1.784   1
  -4  -6   8  265.40   25.22   1
   4   6  -8  306.80   32.83   1
   4  -6  -7  357.40   34.51   1
   4  -6  -7  347.70   32.94   1
  -4  -6   7  379.40   36.47   1
   4   6  -7  347.20   32.81   1
  -4   6   7  373.30   35.08   1
  -4   6   7  383.70   36.05   1
   4  -6  -6  712.30   67.01   1
   4  -6  -6  584.40   55.57   1
  -4  -6   6  736.80   69.77   1
  -4  -6   6  700.50   65.89   1
   4   6  -6  704.80   66.27   1
   4   6  -6  642.60   62.40   1
  -4   6   6  766.90   72.00   1
  -4   6   6  590.40   55.86   1
   4  -6  -5  171.10   17.21   1
   4  -6  -5  224.60   21.46   1
  -4  -6   5  197.90   19.48   1
  -4  -6   5  195.70   18.64   1
   4   6  -5  195.80   18.63   1
   4   6  -5  189.80   20.64   1
  -4   6   5  184.30   17.61   1
  -4   6   5  180.60   17.65   1
   4  -6  -4  479.60   45.25   1
   4  -6  -4  404.50   38.93   1
  -4  -6   4  505.20   48.05   1
  -4  -6   4  504.80   47.55   1
   4   6  -4  488.30   47.67   1
   4   6  -4  466.90   43.99   1
  -4   6   4  459.70   43.39   1
   4  -6  -3 4378.00  411.00   1
  -4  -6   3 4502.00  421.90   1
  -4  -6   3 4774.00  447.70   1
   4   6  -3 4350.00  407.70   1
   4   6  -3 4711.00  442.60   1
   4  -6  -2 2152.00  202.50   1
   4  -6  -2 2220.00  208.20   1
  -4  -6   2 2204.00  207.00   1
  -4  -6   2 1963.00  184.20   1
   4   6  -2 1920.00  180.00   1
   4   6  -2 2032.00  191.50   1
  -4   6   2 1947.00  182.90   1
  -4   6   2 2228.00  209.20   1
   4  -6  -1  768.50   72.35   1
   4  -6  -1  931.90   88.39   1
  -4  -6   1  950.50   89.28   1
  -4  -6   1  942.60   88.83   1
   4   6  -1  941.90   88.51   1
   4   6  -1  832.90   78.89   1
  -4   6   1  839.00   79.16   1
  -4   6   1  789.90   74.53   1
   4  -6   0 1043.00   98.06   1
   4  -6   0 1060.00  100.40   1
  -4  -6   0 1103.00  103.80   1
  -4  -6   0 1143.00  107.30   1
   4   6   0 1208.00  113.40   1
   4   6   0  976.30   92.19   1
  -4   6   0 1033.00   97.33   1
  -4   6   0 1091.00  102.80   1
   4  -6   1 4019.00  377.50   1
   4  -6   1 4269.00  400.20   1
  -4  -6  -1 4075.00  382.00   1
  -4  -6  -1 3818.00  357.80   1
   4   6   1 4069.00  381.40   1
   4   6   1 3872.00  363.20   1
  -4   6  -1 4057.00  380.60   1
  -4   6  -1 4168.00  390.90   1
   4  -6   2  935.70   88.82   1
   4  -6   2  987.10   92.92   1
  -4  -6  -2 1116.00  104.70   1
  -4  -6  -2 1031.00   97.00   1
   4   6   2 1097.00  103.10   1
   4   6   2  953.60   89.99   1
  -4   6  -2  882.90   83.39   1
  -4   6  -2 1047.00   98.77   1
   4  -6   3 1357.00  127.60   1
   4  -6   3 1160.00  109.90   1
  -4  -6  -3 1392.00  130.70   1
  -4  -6  -3 1204.00  113.00   1
   4   6   3 1298.00  122.20   1
   4   6   3 1173.00  110.20   1
  -4   6  -3 1247.00  117.60   1
  -4   6  -3 1366.00  128.70   1
   4  -6   4   64.42   7.284   1
   4  -6   4   41.83   7.337   1
  -4  -6  -4   62.51   6.849   1
   4   6   4   42.29   5.108   1
   4   6   4   59.65   7.142   1
  -4   6  -4   46.32   6.375   1
   4  -6   5   43.13   8.426   1
   4  -6   5   28.32   4.527   1
  -4  -6  -5   28.84   3.262   1
  -4  -6  -5   37.50   5.258   1
   4   6   5   27.97   5.117   1
   4   6   5   24.05   4.449   1
  -4   6  -5   27.75   3.137   1
  -4   6  -5   30.68   5.094   1
   4  -6   6   63.01   7.497   1
   4  -6   6   63.74   11.13   1
  -4  -6  -6   65.53    6.58   1
  -4  -6  -6   74.82   8.473   1
   4   6   6   54.83   7.356   1
   4   6   6   53.21   7.025   1
  -4   6  -6   66.01   6.636   1
  -4   6  -6   65.96   7.915   1
   4  -6   7   22.43   5.019   1
   4  -6   7   28.08   10.52   1
  -4  -6  -7   24.19   6.229   1
  -4  -6  -7   33.64   3.767   1
   4   6   7   34.08   7.286   1
   4   6   7   14.20   5.913   1
  -4   6  -7   41.96   4.482   1
  -4   6  -7   30.79   5.454   1
   4  -6   8  372.00   36.05   1
   4  -6   8  363.00   38.28   1
  -4  -6  -8  375.50   35.47   1
  -4  -6  -8  433.90   42.55   1
   4   6   8  313.60   31.81   1
   4   6   8  356.10   35.61   1
  -4   6  -8  363.20   35.14   1
  -4   6  -8  353.70   33.45   1
   4  -6   9   26.75   13.01   1
   4  -6   9   33.40   6.643   1
  -4  -6  -9   28.29   3.429   1
  -4  -6  -9   31.67   9.344   1
   4   6   9   44.48   12.08   1
  -4   6  -9   28.77   6.069   1
   4  -6  10   2.704   12.54   1
   4  -6  10  -12.86   6.794   1
  -4   6 -10   3.539   1.602   1
  -4   6 -10    4.47   5.329   1
   4  -6  11   37.64   14.81   1
   4  -6  11   48.56   10.83   1
  -4   6 -11   57.56   6.298   1
  -4   6 -11   42.52   8.627   1
  -4  -7  12  -3.139   8.136   1
  -4  -7  12   29.55   18.99   1
   4   7 -12   4.848   4.044   1
   4   7 -12   1.795   10.04   1
  -4  -7  11   1.252   5.806   1
  -4  -7  11   17.06   12.37   1
   4   7 -11  -6.988   8.379   1
   4   7 -11  -2.447   2.336   1
   4   7 -10   2.211   1.813   1
  -4  -7   9   15.73   5.097   1
  -4  -7   9   28.33   3.632   1
   4   7  -9   12.68   10.79   1
   4   7  -9   24.09   3.006   1
  -4  -7   8   21.42   4.981   1
  -4  -7   8   36.84   4.187   1
   4   7  -8   8.942   10.16   1
   4   7  -8   28.57   3.316   1
   4  -7  -7  -2.128   4.836   1
   4  -7  -7  0.5539   2.141   1
  -4  -7   7   2.805   3.714   1
  -4  -7   7   2.057   1.734   1
   4   7  -7 -0.8398   1.373   1
   4   7  -7   1.094   9.189   1
  -4   7   7   2.741  0.9261   1
  -4   7   7   1.915  0.8569   1
   4  -7  -6   5.687   4.856   1
   4  -7  -6-0.03161   1.839   1
  -4  -7   6 -0.1499   3.388   1
  -4  -7   6   3.264   1.645   1
   4   7  -6  -7.496   7.644   1
   4   7  -6  0.7401   1.474   1
  -4   7   6   2.592   1.599   1
  -4   7   6   3.436   1.133   1
   4  -7  -5   20.74    2.91   1
  -4  -7   5   24.06   4.449   1
   4  -7  -4   31.66   5.765   1
   4  -7  -4   34.06   4.264   1
  -4  -7   4   35.41   5.137   1
   4   7  -4   30.77   7.509   1
  -4   7   4   50.24   5.849   1
   4  -7  -3   6.269   2.614   1
   4  -7  -3   7.586    4.22   1
  -4  -7   3   12.14   3.557   1
  -4  -7   3   13.01   2.054   1
   4   7  -3   10.77   1.816   1
   4   7  -3    2.62   5.653   1
  -4   7   3   9.354   3.186   1
  -4   7   3  -1.718   2.965   1
   4  -7  -2   4.219   2.581   1
   4  -7  -2   6.365   4.307   1
  -4  -7   2   10.69   3.365   1
   4   7  -2   8.149   5.597   1
   4   7  -2   15.50   2.187   1
  -4   7   2   7.278   3.276   1
  -4   7   2   1.314   2.929   1
   4  -7  -1    0.15   2.552   1
   4  -7  -1   5.144   4.311   1
  -4  -7   1  -0.348   1.403   1
  -4  -7   1  0.4183   2.939   1
   4   7  -1   1.587   4.725   1
   4   7  -1   1.433   1.515   1
  -4   7   1  0.5753   3.577   1
  -4   7   1   1.776   3.028   1
   4  -7   0   10.74    3.06   1
   4  -7   0   14.96   4.976   1
  -4  -7   0   19.91   3.513   1
   4   7   0   13.04   4.446   1
  -4   7   0   10.64   3.418   1
  -4   7   0   26.77   4.987   1
   4  -7   1   26.88   6.011   1
   4  -7   1   12.02   3.228   1
  -4  -7  -1   19.37   3.289   1
   4   7   1   20.78   4.384   1
  -4   7  -1   31.82   5.346   1
   4  -7   2  773.60   73.79   1
  -4  -7  -2  859.30   80.99   1
   4   7   2  792.00   75.07   1
   4  -7   3  0.7587   2.907   1
   4  -7   3  -3.012    5.13   1
  -4  -7  -3  0.5777   1.354   1
  -4  -7  -3  0.7155   2.324   1
   4   7   3   1.648   2.139   1
   4   7   3  0.2925   3.557   1
  -4   7  -3   2.143   3.698   1
  -4   7  -3   6.303   4.253   1
   4  -7   4   -2.77    2.96   1
   4  -7   4   5.892   5.358   1
  -4  -7  -4  -1.848   2.447   1
  -4  -7  -4   4.933   1.572   1
   4   7   4   3.009   2.236   1
   4   7   4-0.04341   3.745   1
  -4   7  -4   5.963   1.491   1
  -4   7  -4   1.231   4.018   1
   4  -7   5   6.573   7.558   1
   4  -7   5  0.8382   3.446   1
  -4  -7  -5   1.034   3.311   1
  -4  -7  -5 -0.6518   1.422   1
   4   7   5  -1.976    4.32   1
   4   7   5  0.6097    3.48   1
  -4   7  -5  0.1105   4.066   1
   4  -7   6  -6.557   8.711   1
   4  -7   6   2.453   3.934   1
  -4  -7  -6    7.05   1.765   1
  -4  -7  -6   2.103   3.955   1
   4   7   6  0.9803   4.084   1
   4   7   6   3.818   5.191   1
  -4   7  -6   5.196   4.347   1
  -4   7  -6   8.953   1.805   1
   4  -7   7   40.13   6.089   1
   4  -7   7   58.49   11.99   1
  -4  -7  -7   38.32   6.508   1
   4   7   7   70.14   9.545   1
   4   7   7   48.26   9.083   1
  -4   7  -7   50.82   7.148   1
   4  -7   8-0.02654   4.594   1
   4  -7   8   1.824   10.36   1
  -4  -7  -8   1.456   7.681   1
  -4  -7  -8   11.85   2.236   1
   4   7   8   16.58   7.807   1
   4   7   8 -0.6691   10.35   1
  -4   7  -8   3.867   4.654   1
   4  -7   9    7.72   5.416   1
   4  -7   9   0.117   11.46   1
  -4  -7  -9   4.943   1.777   1
   4   7   9   6.841   7.892   1
  -4   7  -9   4.978   5.076   1
  -4   7  -9   11.01   1.934   1
   4  -7  10   11.23   12.75   1
   4  -7  10  -3.539   7.249   1
  -4   7 -10  0.8101   1.543   1
  -4   7 -10   5.163   6.062   1
   4  -7  11   3.139   9.475   1
   4  -7  11  -2.569   12.35   1
  -4   7 -11   3.015   7.376   1
  -4  -8  12   39.84   19.97   1
   4   8 -12   57.83   7.544   1
   4   8 -12   60.27   13.86   1
  -4  -8  11   72.95   10.28   1
   4   8 -11   69.34   7.365   1
   4   8 -10   2.053   1.751   1
  -4  -8   9  393.50   37.25   1
  -4  -8   9  397.40   38.60   1
   4   8  -9  395.00   41.66   1
   4   8  -9  325.50   30.84   1
  -4  -8   8  385.20   36.43   1
  -4  -8   8  390.30   37.80   1
   4   8  -8  357.20   33.77   1
   4   8  -8  411.60   42.85   1
   4  -8  -7  174.60   16.81   1
   4  -8  -7  153.10   16.07   1
  -4  -8   7  150.90   15.59   1
  -4  -8   7  136.80   13.25   1
   4   8  -7  128.90   12.46   1
   4   8  -7  136.20   18.07   1
  -4   8   7  136.90   12.98   1
  -4   8   7  132.10   12.52   1
   4  -8  -6  673.90   64.61   1
  -4  -8   6  740.10   69.63   1
  -4  -8   6  688.10   65.38   1
   4   8  -6  649.90   63.72   1
   4   8  -6  722.20   67.92   1
  -4   8   6  775.50   72.81   1
   4  -8  -5  241.00   24.34   1
   4  -8  -5  307.70   29.22   1
  -4  -8   5  257.50   24.45   1
   4   8  -5  286.70   29.65   1
  -4   8   5  277.60   26.43   1
  -4   8   5  234.40   22.18   1
   4  -8  -4  429.70   40.68   1
   4  -8  -4  377.50   36.75   1
  -4  -8   4  415.00   39.20   1
  -4  -8   4  416.40   39.87   1
   4   8  -4  391.00   39.24   1
   4   8  -4  401.30   37.86   1
  -4   8   4  386.30   37.00   1
  -4   8   4  417.60   39.63   1
   4  -8  -3 3648.00  342.00   1
   4  -8  -3 3408.00  320.30   1
  -4  -8   3 3994.00  374.80   1
   4   8  -3 3922.00  367.50   1
  -4   8   3 3610.00  338.80   1
  -4   8   3 3491.00  327.50   1
   4  -8  -2 2713.00  255.20   1
   4  -8  -2 3312.00  310.50   1
  -4  -8   2 3397.00  318.40   1
  -4  -8   2 3613.00  339.00   1
   4   8  -2 3261.00  305.60   1
   4   8  -2 4132.00  388.70   1
  -4   8   2 3283.00  308.10   1
  -4   8   2 3112.00  292.10   1
   4  -8  -1 1060.00   99.72   1
   4  -8  -1  906.30   86.07   1
  -4  -8   1 1196.00  112.70   1
  -4  -8   1 1118.00  104.90   1
   4   8  -1 1059.00   99.44   1
   4   8  -1 1214.00  115.30   1
  -4   8   1 1150.00  108.50   1
  -4   8   1  999.10   94.27   1
   4  -8   0   50.99   5.891   1
   4  -8   0   44.33   7.094   1
  -4  -8   0   64.37   7.224   1
  -4  -8   0   71.55   7.122   1
   4   8   0   73.73   7.342   1
   4   8   0   64.69   8.978   1
  -4   8   0   68.38   8.305   1
   4  -8   1 1856.00  175.10   1
   4  -8   1 2200.00  206.50   1
  -4  -8  -1 2301.00  216.10   1
  -4  -8  -1 2499.00  234.30   1
   4   8   1 2241.00  210.90   1
   4   8   1 2478.00  232.40   1
  -4   8  -1 1958.00  184.10   1
  -4   8  -1 2581.00  242.60   1
   4  -8   2 9045.00  847.70   1
   4  -8   2 7358.00  690.50   1
  -4  -8  -2 8178.00  766.40   1
  -4  -8  -2 8752.00  820.10   1
   4   8   2 8698.00  815.70   1
   4   8   2 9326.00  873.90   1
  -4   8  -2 9195.00  862.20   1
  -4   8  -2 8025.00  752.50   1
   4  -8   3 1629.00  153.20   1
   4  -8   3 1367.00  129.60   1
  -4  -8  -3 1459.00  136.90   1
  -4  -8  -3 1394.00  131.00   1
   4   8   3 1390.00  131.30   1
   4   8   3 1500.00  140.90   1
  -4   8  -3 1688.00  159.10   1
  -4   8  -3 1300.00  122.00   1
   4  -8   4   56.58   9.776   1
  -4  -8  -4   40.94   4.368   1
  -4  -8  -4   58.18   6.408   1
   4   8   4   45.20   7.227   1
   4   8   4   42.49   4.889   1
  -4   8  -4   36.01   3.864   1
  -4   8  -4   52.98   7.195   1
  -4  -8  -5   6.774   3.373   1
  -4  -8  -5   19.20   2.577   1
   4   8   5   18.22   6.275   1
   4   8   5   13.42   3.261   1
  -4   8  -5   20.24   2.617   1
   4  -8   6  228.80   25.34   1
   4  -8   6  181.30   18.27   1
  -4  -8  -6  225.10   21.40   1
  -4  -8  -6  204.20   20.20   1
   4   8   6  220.60   21.71   1
   4   8   6  179.80   19.84   1
  -4   8  -6  237.00   22.52   1
  -4   8  -6  204.00   20.58   1
   4  -8   7  980.40   95.06   1
  -4  -8  -7  889.40   84.10   1
  -4  -8  -7  890.60   83.69   1
   4   8   7  988.80   95.24   1
   4   8   7  956.90   90.63   1
  -4   8  -7  711.50   67.96   1
  -4   8  -7  875.50   82.31   1
   4  -8   8  209.70   25.05   1
   4  -8   8  173.60   17.82   1
  -4  -8  -8  182.80   17.47   1
  -4  -8  -8  214.90   22.72   1
   4   8   8  199.90   23.97   1
   4   8   8  246.30   26.02   1
  -4   8  -8  161.80   16.76   1
  -4   8  -8  184.00   17.61   1
   4  -8   9   49.56   13.64   1
   4  -8   9   43.44   7.371   1
  -4  -8  -9   28.87   9.321   1
   4   8   9   36.28   11.01   1
   4   8   9   42.86   9.489   1
  -4   8  -9   34.51   6.619   1
  -4   8  -9   31.67   3.609   1
   4  -8  10  -9.503   12.34   1
  -4   8 -10   -1.23   1.456   1
   4  -8  11   47.84   14.14   1
   4  -8  11   60.07   12.98   1
  -4   8 -11   66.06   6.883   1
  -4   8 -11   46.94   10.06   1
  -4  -9  12  -8.334   8.403   1
  -4  -9  12  -14.72   18.60   1
   4   9 -12   2.971   3.706   1
   4   9 -12   23.61   12.85   1
  -4  -9  11   4.822   6.713   1
  -4  -9  11  -13.23   14.71   1
   4   9 -11  -16.75   10.43   1
   4   9 -11  0.3553   2.204   1
  -4  -9  10   2.553    2.07   1
  -4  -9   9   2.305   5.057   1
  -4  -9   9  -3.359   2.031   1
   4   9  -9   -1.36   1.507   1
  -4  -9   8   1.402    1.77   1
  -4  -9   8   2.888   4.594   1
   4   9  -8  -19.24   11.15   1
   4   9  -8   2.405   1.507   1
   4  -9  -7   4.435   2.378   1
   4  -9  -7   3.576    4.86   1
  -4  -9   7    2.48   4.071   1
  -4  -9   7   5.906   2.022   1
   4   9  -7   3.879   1.595   1
   4   9  -7   8.835   10.06   1
  -4   9   7   4.446   1.143   1
  -4   9   7   4.318   1.463   1
   4  -9  -6 -0.3882    2.01   1
  -4  -9   6   4.358   3.951   1
  -4  -9   6   6.252   1.956   1
   4   9  -6   6.895   1.737   1
   4   9  -6  -5.968   9.516   1
  -4   9   6   3.338   1.915   1
   4  -9  -5   14.77   6.406   1
   4  -9  -5   13.35   2.934   1
  -4  -9   5    8.15    3.67   1
  -4  -9   5   22.02   2.883   1
   4   9  -5   16.88   2.372   1
   4   9  -5   19.87   8.344   1
  -4   9   5   25.34   2.815   1
  -4   9   5   13.05    3.09   1
   4  -9  -4   15.54   6.134   1
   4  -9  -4   14.00   3.038   1
  -4  -9   4   16.87   4.026   1
   4   9  -4   8.294   7.604   1
  -4   9   4   22.54    3.85   1
   4  -9  -3  138.00   15.27   1
   4   9  -3  131.90   15.87   1
  -4   9   3  168.60   16.71   1
   4  -9  -2   9.993   5.831   1
   4  -9  -2   4.592   2.757   1
  -4  -9   2   9.443   3.572   1
  -4  -9   2   9.052    1.92   1
   4   9  -2   12.10    1.96   1
   4   9  -2-0.00041   7.179   1
  -4   9   2   15.82   4.124   1
   4  -9  -1   1.708   2.802   1
   4  -9  -1  -2.157   5.239   1
  -4  -9   1   2.433    3.36   1
   4   9  -1   4.261   1.509   1
  -4   9   1    4.14   4.013   1
  -4   9   1   2.363   3.299   1
   4  -9   0   3.965   5.634   1
   4  -9   0   8.218   3.571   1
  -4  -9   0    4.71    1.70   1
  -4  -9   0   2.636   3.183   1
   4   9   0 -0.7892   6.082   1
   4   9   0   7.038   1.701   1
  -4   9   0   6.826   1.661   1
   4  -9   1   11.99   5.955   1
   4  -9   1   11.41   3.673   1
  -4  -9  -1   19.04   3.651   1
   4   9   1   17.54   6.804   1
  -4   9  -1   24.26    5.68   1
   4   9   2  106.00   10.45   1
  -4   9  -2   99.21   11.58   1
  -4   9  -2  136.80   13.19   1
   4  -9   3   25.33   8.033   1
   4  -9   3   19.76   4.202   1
  -4  -9  -3   21.78   3.638   1
  -4  -9  -3   36.09   4.018   1
   4   9   3   32.68   4.077   1
   4   9   3   26.42   7.416   1
  -4   9  -3   32.03   6.227   1
  -4   9  -3   36.76   3.964   1
   4  -9   4   18.37   4.327   1
   4  -9   4   34.70   9.291   1
  -4  -9  -4   23.27   3.772   1
   4   9   4   23.86   7.764   1
  -4   9  -4   41.94   7.042   1
   4  -9   5   2.123   4.039   1
   4  -9   5   1.751   9.172   1
  -4  -9  -5   15.10    2.39   1
  -4  -9  -5   6.308   3.436   1
   4   9   5   11.98   3.042   1
   4   9   5  0.4862   8.069   1
  -4   9  -5   10.37   5.094   1
   4  -9   6  -1.167   9.092   1
  -4  -9  -6  0.1056   1.595   1
  -4  -9  -6  -2.228   4.289   1
   4   9   6   10.54   9.458   1
   4   9   6   1.317   3.999   1
  -4   9  -6   3.647   1.568   1
   4  -9   7   9.141   10.48   1
   4  -9   7   4.177   4.642   1
  -4  -9  -7   5.435   1.762   1
  -4  -9  -7   4.624    4.75   1
   4   9   7   8.076   4.949   1
   4   9   7   6.781   11.38   1
  -4   9  -7   8.863   4.819   1
  -4   9  -7   11.09   1.956   1
   4  -9   8   39.18   11.75   1
   4  -9   8   24.30   5.672   1
  -4  -9  -8   53.56   5.598   1
  -4  -9  -8   23.41   7.707   1
   4   9   8   44.93   9.499   1
   4   9   8   32.95   12.82   1
  -4   9  -8   32.35   6.268   1
   4  -9   9  -2.861   6.068   1
   4  -9   9   2.184   12.36   1
  -4  -9  -9 -0.9884   8.797   1
   4   9   9  0.5174   6.232   1
   4   9   9   6.174   6.839   1
  -4   9  -9   0.901   1.425   1
  -4   9  -9 -0.7756   5.123   1
   4  -9  10 -0.0227   13.24   1
   4  -9  10    1.04   7.748   1
  -4   9 -10  0.8644   1.615   1
  -4   9 -10   -4.85   6.799   1
   4  -9  11   4.005   9.316   1
  -4   9 -11   4.384   2.317   1
  -4 -10  11  143.50   16.99   1
  -4 -10  11  103.40   19.53   1
   4  10 -11  131.60   19.73   1
   4  10 -11  127.20   12.60   1
  -4 -10  10   7.349   2.101   1
  -4 -10  10   12.51   6.094   1
   4  10 -10  -5.368   11.22   1
  -4 -10   9  114.70   11.23   1
  -4 -10   9   93.12   11.46   1
   4  10  -9  114.90   18.75   1
   4  10  -9  103.50   10.17   1
  -4 -10   8  781.60   74.51   1
   4  10  -8  780.80   73.46   1
   4 -10  -7  344.80   32.68   1
   4 -10  -7  317.60   31.30   1
  -4 -10   7  317.90   31.07   1
  -4 -10   7  318.60   30.23   1
   4  10  -7  310.10   29.39   1
   4  10  -7  361.90   38.52   1
  -4  10   7  304.80   28.72   1
  -4  10   7  355.70   33.59   1
   4 -10  -6  614.00   57.91   1
   4 -10  -6  544.20   53.05   1
  -4 -10   6  658.30   62.00   1
  -4 -10   6  516.20   49.44   1
   4  10  -6  625.50   62.07   1
   4  10  -6  654.70   61.64   1
  -4  10   6  658.90   61.94   1
  -4  10   6  579.30   54.63   1
   4 -10  -5   14.14    7.33   1
   4 -10  -5   20.82   3.596   1
  -4 -10   5   12.62   2.316   1
  -4 -10   5   17.70   4.814   1
   4  10  -5   14.42    9.93   1
   4  10  -5   15.14   2.298   1
  -4  10   5   16.15   3.573   1
  -4  10   5   6.785   1.441   1
   4 -10  -4  359.80   35.96   1
   4 -10  -4  334.70   31.87   1
  -4 -10   4  329.10   31.89   1
  -4 -10   4  365.10   34.54   1
   4  10  -4  312.60   32.38   1
   4  10  -4  348.90   33.00   1
  -4  10   4  342.50   32.34   1
  -4  10   4  337.50   32.29   1
   4 -10  -3 1772.00  166.50   1
   4 -10  -3 1768.00  167.30   1
  -4 -10   3 1821.00  171.40   1
  -4 -10   3 1796.00  168.50   1
   4  10  -3 1676.00  158.90   1
   4  10  -3 1865.00  174.90   1
  -4  10   3 1778.00  167.20   1
  -4  10   3 1815.00  170.20   1
   4 -10  -2  913.00   87.61   1
  -4 -10   2  930.80   87.98   1
  -4 -10   2  866.10   81.42   1
   4  10  -2  904.50   84.99   1
   4  10  -2  864.30   83.09   1
  -4  10   2  830.70   78.07   1
  -4  10   2  963.60   91.22   1
   4 -10  -1  725.70   69.81   1
  -4 -10   1  704.30   66.27   1
   4  10  -1  748.90   72.25   1
  -4  10   1  671.90   63.23   1
   4 -10   0  516.20   49.05   1
  -4 -10   0  652.30   62.04   1
  -4 -10   0  644.50   60.68   1
   4  10   0  647.80   60.98   1
   4  10   0  612.50   59.56   1
  -4  10   0  688.80   65.76   1
   4 -10   1  453.50   43.27   1
   4 -10   1  455.00   44.86   1
  -4 -10  -1  427.40   40.40   1
  -4 -10  -1  409.80   39.14   1
   4  10   1  460.80   45.51   1
   4  10   1  393.30   37.15   1
  -4  10  -1  421.50   39.80   1
  -4  10  -1  530.10   51.09   1
   4 -10   2 2101.00  197.50   1
   4 -10   2 1947.00  184.30   1
  -4 -10  -2 2017.00  189.50   1
   4  10   2 2241.00  210.20   1
  -4  10  -2 1899.00  178.10   1
  -4  10  -2 2539.00  239.00   1
   4 -10   3 1195.00  114.20   1
   4 -10   3 1325.00  124.90   1
  -4 -10  -3 1061.00   99.99   1
   4  10   3 1194.00  112.20   1
  -4  10  -3 1286.00  121.80   1
   4 -10   4  595.00   56.69   1
   4 -10   4  612.80   60.33   1
  -4 -10  -4  559.70   53.02   1
   4  10   4  551.80   52.14   1
  -4  10  -4  660.40   63.36   1
  -4  10  -4  534.70   50.40   1
   4 -10   5   11.72   8.858   1
  -4 -10  -5 -0.3636   1.572   1
  -4 -10  -5    2.69    3.13   1
   4  10   5   3.402   2.453   1
   4  10   5   6.354   9.486   1
  -4  10  -5   2.153    1.35   1
   4 -10   6  267.10   26.25   1
  -4 -10  -6  273.70   25.98   1
  -4 -10  -6  310.40   30.00   1
   4  10   6  325.70   34.53   1
   4  10   6  299.70   28.93   1
  -4  10  -6  283.70   26.92   1
  -4  10  -6  314.50   31.03   1
   4 -10   7  492.00   47.25   1
   4 -10   7  577.60   57.87   1
  -4 -10  -7  542.10   51.72   1
  -4 -10  -7  654.90   61.64   1
   4  10   7  604.80   60.45   1
   4  10   7  557.30   53.15   1
  -4  10  -7  578.80   55.54   1
  -4  10  -7  626.50   59.01   1
   4 -10   8  553.40   53.04   1
   4 -10   8  675.00   67.43   1
  -4 -10  -8  584.20   55.05   1
  -4 -10  -8  673.50   64.67   1
   4  10   8  750.90   72.29   1
   4  10   8  670.40   66.92   1
  -4  10  -8  588.80   56.50   1
  -4  10  -8  594.70   56.04   1
   4 -10   9   44.85   7.904   1
  -4 -10  -9   50.46   5.197   1
  -4 -10  -9   57.33   11.16   1
  -4  10  -9   48.16    7.68   1
  -4  10  -9   54.04   5.629   1
   4 -10  10   9.809   7.855   1
   4 -10  10   2.316   11.99   1
  -4  10 -10   12.12   2.183   1
  -4  10 -10   14.32   7.137   1
  -4 -11  11   4.283   15.14   1
  -4 -11  11  -1.293   7.417   1
   4  11 -11  -9.048   12.40   1
  -4 -11  10  -2.173   5.893   1
  -4 -11  10  -1.838   1.683   1
   4  11 -10  -2.781   11.11   1
  -4 -11   9   2.197   1.895   1
  -4 -11   9  -1.477   5.499   1
   4  11  -9  -10.52   13.30   1
   4  11  -9   3.014   1.711   1
  -4 -11   8 -0.5745   4.685   1
  -4 -11   8 -0.4057   1.873   1
   4  11  -8 -0.1246   1.588   1
   4  11  -8   8.837   11.89   1
   4 -11  -7-0.05542   5.706   1
  -4 -11   7   3.001   4.305   1
  -4 -11   7   7.376   2.127   1
   4  11  -7    5.73   11.23   1
   4  11  -7   8.815   1.899   1
  -4  11   7   7.126   1.417   1
   4 -11  -6    1.40    3.12   1
   4 -11  -6   5.354   6.824   1
  -4 -11   6   3.226   4.367   1
  -4 -11   6   1.691   1.868   1
   4  11  -6  -7.312   10.29   1
   4  11  -6  0.9803    1.57   1
  -4  11   6 -0.4451   1.268   1
  -4  11   6  0.4945   2.848   1
   4 -11  -5   1.289    3.11   1
   4 -11  -5   4.791   7.577   1
  -4 -11   5  -2.683   4.176   1
  -4 -11   5   5.315   2.005   1
   4  11  -5   6.288   9.616   1
   4  11  -5   1.727   1.656   1
  -4  11   5   1.768   1.364   1
  -4  11   5 -0.3725    3.24   1
   4 -11  -4   19.85   7.998   1
   4 -11  -4   7.909   2.971   1
  -4 -11   4   9.093   4.056   1
  -4 -11   4   14.63   2.448   1
   4  11  -4   12.88   9.532   1
   4  11  -4   9.528   1.921   1
  -4  11   4   15.67    2.25   1
  -4  11   4   7.683   3.578   1
   4 -11  -3   53.89   9.801   1
  -4 -11   3   45.80   6.278   1
   4  11  -3   71.71   7.197   1
  -4  11   3   46.36   6.479   1
   4 -11  -2   40.41   8.764   1
  -4 -11   2   40.44   5.788   1
   4  11  -2   32.71   8.916   1
   4 -11  -1    1.84   3.377   1
  -4 -11   1 -0.1994   3.412   1
  -4 -11   1    3.25   1.616   1
   4  11  -1   0.777   1.377   1
   4  11  -1   2.679   7.552   1
  -4  11   1   3.743   4.835   1
   4 -11   0  0.4936   6.803   1
   4 -11   0   3.724    3.33   1
  -4 -11   0  -1.047   1.527   1
  -4 -11   0  -1.377   3.107   1
   4  11   0  -13.27   7.673   1
   4  11   0    1.23   1.482   1
  -4  11   0  -5.008    4.86   1
  -4  11   0 0.06616   1.493   1
   4 -11   1   16.92   7.833   1
   4 -11   1   13.81   3.877   1
  -4 -11  -1   20.09   2.726   1
  -4 -11  -1   10.69   3.717   1
   4  11   1   20.91   2.841   1
   4  11   1   15.79    8.44   1
  -4  11  -1   25.42   6.267   1
  -4  11  -1   25.44   3.043   1
   4 -11   2 -0.8402   3.745   1
   4 -11   2   2.634   7.716   1
  -4 -11  -2   7.526   1.901   1
   4  11   2  -2.862   8.791   1
  -4  11  -2   -6.18   5.237   1
  -4  11  -2   9.526   1.829   1
   4 -11   3   51.76   10.38   1
  -4 -11  -3   52.92   5.548   1
   4  11   3   38.08   10.52   1
  -4  11  -3   47.96   7.997   1
  -4  11  -3   66.79   6.709   1
   4 -11   4  -3.084   8.518   1
  -4 -11  -4 -0.7022    1.58   1
   4  11   4  -4.457   2.468   1
   4  11   4 -0.4033   8.917   1
  -4  11  -4   1.635   1.319   1
   4 -11   5   3.034   4.687   1
  -4 -11  -5   3.593   1.772   1
  -4 -11  -5  -3.469   3.227   1
   4  11   5  -1.686   10.22   1
   4  11   5   5.535   2.639   1
  -4  11  -5   1.713   5.679   1
   4 -11   6  -2.791    4.64   1
   4 -11   6 -0.9816    9.54   1
  -4 -11  -6 -0.9487   4.066   1
   4  11   6 -0.4337   3.479   1
  -4  11  -6   -3.30   5.204   1
  -4  11  -6   1.702   1.495   1
   4 -11   7  -3.447   4.853   1
   4 -11   7  -1.997   10.19   1
  -4 -11  -7   8.898   5.165   1
  -4 -11  -7  0.6715   1.769   1
   4  11   7 -0.9826   4.849   1
   4  11   7  -14.05   11.66   1
  -4  11  -7   6.916   5.377   1
  -4  11  -7   2.514   1.493   1
   4 -11   8  -1.361   5.231   1
   4 -11   8  -12.17   11.38   1
  -4 -11  -8  0.9908   6.682   1
  -4 -11  -8  0.5101   1.814   1
   4  11   8   -1.21   7.297   1
   4  11   8   4.215   12.86   1
  -4  11  -8  -4.363   5.249   1
   4 -11   9   20.47   12.35   1
   4 -11   9  -3.125   6.358   1
  -4 -11  -9   5.496   9.761   1
  -4 -11  -9   7.079   1.661   1
  -4  11  -9    7.69   1.836   1
  -4  11  -9   13.95   6.413   1
   4 -11  10   6.777   11.56   1
   4 -11  10   5.466   8.494   1
  -4  11 -10 -0.4974   1.569   1
  -4  11 -10   1.663   7.049   1
  -4 -12  11  117.70   15.08   1
   4  12 -11   86.01   16.97   1
   4  12 -11  112.10   11.23   1
  -4 -12  10   2.454   1.844   1
   4  12 -10   17.77   12.39   1
   4  12 -10   1.217   1.848   1
  -4 -12   9  173.90   18.71   1
  -4 -12   9  174.90   16.85   1
   4  12  -9  167.80   23.77   1
   4  12  -9  152.30   14.76   1
  -4 -12   8  539.60   52.03   1
  -4 -12   8  611.30   57.64   1
   4  12  -8  532.10   50.22   1
   4  12  -8  571.20   58.59   1
   4 -12  -7  389.70   38.87   1
  -4 -12   7  380.20   37.17   1
  -4 -12   7  335.50   31.82   1
   4  12  -7  355.60   33.69   1
   4  12  -7  422.60   44.63   1
   4 -12  -6  634.30   60.05   1
   4 -12  -6  556.70   54.41   1
  -4 -12   6  654.50   61.66   1
   4  12  -6  628.90   63.09   1
  -4  12   6  580.80   54.65   1
  -4  12   6  662.40   62.65   1
   4 -12  -5   16.40   8.479   1
   4 -12  -5   13.00   3.727   1
  -4 -12   5   2.949   4.522   1
   4  12  -5   15.92   2.484   1
  -4  12   5   25.18   2.999   1
  -4  12   5   16.00   4.159   1
   4 -12  -4  581.20   57.25   1
   4 -12  -4  500.40   47.51   1
  -4 -12   4  537.40   50.68   1
  -4 -12   4  497.70   47.77   1
   4  12  -4  554.40   52.26   1
   4  12  -4  523.80   52.63   1
  -4  12   4  543.00   51.16   1
  -4  12   4  526.40   50.20   1
   4 -12  -3 1163.00  111.40   1
   4 -12  -3 1080.00  101.90   1
  -4 -12   3 1046.00   98.96   1
  -4 -12   3 1134.00  106.50   1
   4  12  -3 1131.00  106.20   1
   4  12  -3  998.30   96.31   1
  -4  12   3 1159.00  109.60   1
  -4  12   3 1085.00  101.90   1
   4 -12  -2 1872.00  177.70   1
   4 -12  -2 1984.00  186.50   1
  -4 -12   2 1774.00  167.10   1
  -4 -12   2 1704.00  159.90   1
   4  12  -2 1693.00  161.00   1
   4  12  -2 1739.00  163.20   1
  -4  12   2 2118.00  199.50   1
   4 -12  -1  543.20   53.54   1
   4 -12  -1  589.30   56.05   1
  -4 -12   1  469.40   44.94   1
  -4 -12   1  448.00   42.32   1
   4  12  -1  462.10   43.59   1
   4  12  -1  445.30   44.90   1
  -4  12   1  407.10   38.46   1
   4 -12   0   65.21   11.03   1
  -4 -12   0   95.96   9.474   1
   4  12   0   58.66   11.33   1
   4  12   0   85.21   8.421   1
  -4  12   0   78.89   10.19   1
  -4  12   0   99.95   9.774   1
   4 -12   1  308.20   32.25   1
   4 -12   1  291.00   28.33   1
  -4 -12  -1  317.00   30.64   1
  -4 -12  -1  334.50   31.68   1
  -4  12  -1  368.30   36.32   1
  -4  12  -1  346.00   32.74   1
   4 -12   2 1030.00   97.40   1
   4 -12   2  987.60   95.18   1
  -4 -12  -2  920.30   86.96   1
  -4 -12  -2  924.40   86.91   1
   4  12   2 1063.00  102.10   1
   4  12   2  956.80   89.96   1
  -4  12  -2 1196.00  113.50   1
  -4  12  -2  839.60   78.95   1
   4 -12   3 1029.00   99.10   1
  -4 -12  -3 1056.00   99.64   1
  -4 -12  -3  879.60   82.71   1
   4  12   3  987.00   92.86   1
   4  12   3 1019.00   97.87   1
  -4  12  -3  746.20   70.20   1
   4 -12   4  601.40   57.52   1
  -4 -12  -4  525.30   49.54   1
  -4 -12  -4  546.60   51.92   1
   4  12   4  569.20   53.80   1
   4  12   4  518.10   51.78   1
  -4  12  -4  613.10   59.23   1
   4 -12   5   1.469   5.116   1
   4 -12   5  -9.327   9.259   1
  -4 -12  -5   1.184   1.803   1
  -4 -12  -5  -3.291   3.224   1
   4  12   5   5.044   10.62   1
  -4  12  -5  0.5491   1.385   1
  -4  12  -5  -3.299   5.512   1
   4 -12   6  261.40   29.27   1
   4 -12   6  228.30   23.02   1
  -4 -12  -6  234.90   22.38   1
   4  12   6  180.90   22.96   1
  -4  12  -6  261.10   26.58   1
  -4  12  -6  239.00   22.77   1
   4 -12   7  752.80   71.76   1
   4 -12   7  948.30   92.58   1
  -4 -12  -7  968.20   91.70   1
   4  12   7  946.40   89.61   1
  -4  12  -7  936.80   89.28   1
  -4  12  -7  917.30   86.25   1
   4 -12   8  463.80   45.02   1
   4 -12   8  535.90   54.73   1
  -4 -12  -8  494.00   47.90   1
  -4 -12  -8  548.60   51.78   1
   4  12   8  594.40   57.46   1
   4  12   8  559.50   58.09   1
  -4  12  -8  546.90   51.57   1
  -4  12  -8  520.50   50.43   1
  -4  12  -9  223.40   21.38   1
   4 -12  10   10.41   9.015   1
   4 -12  10   11.09   10.15   1
  -4  12 -10   7.654    2.10   1
  -4  12 -10   14.62   6.999   1
  -4 -13  11   3.047   11.46   1
  -4 -13  11   3.306   7.947   1
   4  13 -11  -6.532   9.619   1
  -4 -13  10   3.923   6.859   1
  -4 -13  10   1.771   1.978   1
   4  13 -10   3.029   1.965   1
   4  13 -10 -0.6314   12.66   1
  -4 -13   9  -1.721   1.836   1
   4  13  -9  0.1918   1.886   1
   4  13  -9   -9.10   13.11   1
  -4 -13   8   7.326   5.748   1
  -4 -13   8   20.29    3.06   1
   4  13  -8   18.74   14.08   1
   4  13  -8   15.35   2.514   1
   4 -13  -7 -0.1291   6.851   1
   4 -13  -7  0.5631   3.199   1
  -4 -13   7   3.759   4.843   1
  -4 -13   7   2.805   1.897   1
   4  13  -7  -2.979   12.77   1
   4  13  -7    6.65   1.874   1
  -4  13   7   3.965    2.62   1
  -4  13   7   2.643   1.491   1
   4 -13  -6   3.675   3.606   1
   4 -13  -6  -4.003   7.622   1
  -4 -13   6   2.457   1.995   1
  -4 -13   6  -8.474   5.016   1
   4  13  -6    2.17   12.09   1
  -4  13   6   1.401   3.652   1
  -4  13   6  0.9496   1.501   1
   4 -13  -5   4.914   7.931   1
   4 -13  -5   3.015   3.649   1
  -4 -13   5   7.737   2.123   1
  -4 -13   5   5.247   4.909   1
   4  13  -5   6.262   1.989   1
   4  13  -5   4.943   11.72   1
  -4  13   5    8.85   1.849   1
  -4  13   5   4.202   4.094   1
   4 -13  -4   5.722   3.787   1
  -4 -13   4   11.14   2.463   1
  -4 -13   4   8.139   4.507   1
   4  13  -4   12.66   2.265   1
   4  13  -4  -19.30   11.24   1
  -4  13   4   17.84    2.50   1
  -4  13   4   6.232   4.487   1
   4 -13  -3   2.799   3.817   1
   4 -13  -3   4.979   8.566   1
  -4 -13   3   14.41   2.516   1
  -4 -13   3    8.63   4.402   1
   4  13  -3   10.03   2.087   1
   4  13  -3  -5.843   10.26   1
  -4  13   3   15.41    2.26   1
  -4  13   3   5.813   5.042   1
   4 -13  -2   55.80   11.60   1
  -4 -13   2   85.80   8.606   1
   4  13  -2   49.12   11.57   1
   4  13  -2   73.45   7.429   1
  -4  13   2   67.17   9.377   1
  -4  13   2   88.41   8.744   1
   4 -13  -1   12.90   8.894   1
   4 -13  -1   6.378   4.327   1
  -4 -13   1   20.86   2.925   1
  -4 -13   1   11.01   4.115   1
   4  13  -1   8.352   9.267   1
   4  13  -1   17.45   2.563   1
   4 -13   0   13.45   9.317   1
   4 -13   0   3.171   4.207   1
  -4 -13   0   15.77   4.291   1
  -4 -13   0   10.75   2.234   1
   4  13   0   10.65   2.022   1
   4  13   0   10.18   9.197   1
  -4  13   0   17.25   2.489   1
  -4  13   0   5.471   5.987   1
   4 -13   1   5.099   4.461   1
   4 -13   1   6.144   8.643   1
  -4 -13  -1   9.817   3.848   1
  -4 -13  -1   16.15   2.541   1
   4  13   1   15.62   2.454   1
   4  13   1   3.018    9.08   1
  -4  13  -1   15.78    6.48   1
  -4  13  -1   16.13   2.378   1
   4 -13   2   27.80   10.15   1
  -4 -13  -2   38.76   4.372   1
  -4 -13  -2   23.63   4.625   1
   4  13   2   33.21   3.902   1
   4  13   2   20.36   9.616   1
   4 -13   3   2.956   5.006   1
  -4 -13  -3 -0.2359   3.303   1
  -4 -13  -3   6.165   2.028   1
   4  13   3   6.459   2.302   1
   4  13   3   11.98   9.837   1
  -4  13  -3   8.273   1.987   1
  -4  13  -3  -2.669   6.224   1
   4 -13   4   9.051   5.395   1
   4 -13   4   7.977   9.314   1
  -4 -13  -4   24.71    3.24   1
  -4 -13  -4    8.36   3.613   1
   4  13   4   3.376   10.25   1
   4  13   4   17.24   3.213   1
  -4  13  -4   8.018   6.541   1
   4 -13   5  -7.847   9.908   1
   4 -13   5  -2.755   5.096   1
  -4 -13  -5   3.529   3.417   1
  -4 -13  -5   2.629   1.894   1
   4  13   5  -9.982   11.51   1
   4  13   5 -0.5127   2.677   1
  -4  13  -5  -0.705   1.472   1
  -4  13  -5  -3.031    6.03   1
   4 -13   6   14.45   10.87   1
  -4 -13  -6   4.608   1.976   1
   4  13   6   3.815   3.233   1
   4  13   6   2.494   12.99   1
  -4  13  -6   7.087    1.72   1
   4 -13   7   1.778   5.641   1
   4 -13   7  0.4951   10.73   1
  -4 -13  -7   2.271    2.11   1
   4  13   7  -6.644   5.403   1
   4  13   7  -5.959   14.57   1
  -4  13  -7    1.64   1.442   1
  -4  13  -7  -2.943   6.006   1
   4 -13   8  -1.133    5.92   1
   4 -13   8  -2.916   11.09   1
  -4 -13  -8  0.9378    2.00   1
  -4 -13  -8  -11.57   7.172   1
   4  13   8  -12.34   14.92   1
   4  13   8  -14.17    7.44   1
  -4  13  -8    1.06   1.445   1
  -4  13  -8  -5.389   6.664   1
   4 -13   9  -6.697   12.27   1
   4 -13   9  -2.601   7.034   1
  -4  13  -9   -2.29   6.422   1
  -4 -14  11   37.69   8.389   1
  -4 -14  11   17.80   9.419   1
   4  14 -11   36.66   8.322   1
  -4 -14  10   4.953   2.174   1
  -4 -14  10   24.38   8.182   1
   4  14 -10   8.579   2.583   1
   4  14 -10   11.03   13.24   1
  -4 -14   9  182.60   19.92   1
  -4 -14   9  161.10   15.62   1
   4  14  -9  204.00   27.57   1
   4  14  -9  176.00   17.04   1
   4 -14  -8  571.30   53.97   1
   4 -14  -8  509.90   48.48   1
  -4 -14   8  553.00   53.87   1
  -4 -14   8  611.50   57.67   1
   4  14  -8  568.00   53.61   1
   4  14  -8  614.00   63.34   1
   4 -14  -7  195.70   21.73   1
   4 -14  -7  210.40   20.67   1
  -4 -14   7  206.30   21.35   1
  -4 -14   7  181.90   17.55   1
   4  14  -7  182.20   17.55   1
   4  14  -7  152.00   23.73   1
  -4  14   7  176.80   16.91   1
  -4  14   7  182.20   17.84   1
   4 -14  -6  135.90   16.91   1
   4 -14  -6  135.60   14.05   1
  -4 -14   6  153.10   14.91   1
  -4 -14   6  128.90   14.45   1
   4  14  -6  154.00   14.93   1
  -4  14   6  144.30   13.89   1
  -4  14   6  146.60   14.94   1
   4 -14  -5  -6.009   3.783   1
  -4 -14   5   3.951   4.747   1
  -4 -14   5 0.01458   1.936   1
   4  14  -5   5.186   12.28   1
   4  14  -5   2.133    1.79   1
  -4  14   5 -0.4304   4.123   1
  -4  14   5   2.403   1.721   1
   4 -14  -4  776.70   73.56   1
   4 -14  -4  770.50   75.02   1
  -4 -14   4  818.20   76.98   1
  -4 -14   4  706.10   67.38   1
   4  14  -4  777.40   76.86   1
   4  14  -4  771.50   72.61   1
  -4  14   4  869.90   82.63   1
  -4  14   4  793.10   74.61   1
   4 -14  -3 1683.00  158.50   1
   4 -14  -3 1672.00  159.30   1
  -4 -14   3 1627.00  152.70   1
   4  14  -3 1458.00  139.70   1
  -4  14   3 1611.00  151.20   1
  -4  14   3 1853.00  174.80   1
   4 -14  -2   77.34   13.01   1
   4 -14  -2   68.13   8.329   1
  -4 -14   2   51.10   7.079   1
   4  14  -2   58.04   6.046   1
  -4  14   2   74.54   10.10   1
  -4  14   2   60.13   6.182   1
   4 -14  -1   6.206   4.718   1
   4 -14  -1   5.164   9.473   1
  -4 -14   1   2.332    1.93   1
  -4 -14   1   5.398   4.294   1
   4  14  -1   5.736   10.56   1
   4  14  -1   5.545   1.912   1
  -4  14   1   3.398   5.895   1
  -4  14   1   5.129    1.60   1
   4 -14   0   18.03   9.439   1
   4 -14   0   13.41    4.77   1
  -4 -14   0   17.89   4.614   1
  -4 -14   0   14.94   2.574   1
   4  14   0   14.51   9.991   1
   4  14   0   17.98   2.626   1
  -4  14   0   12.22   6.195   1
  -4  14   0   14.81   2.294   1
   4 -14   1   87.43   10.64   1
   4 -14   1  120.30   16.44   1
  -4 -14  -1   70.79   7.225   1
  -4 -14  -1   85.11   9.692   1
   4  14   1   75.88   7.631   1
   4  14   1   76.62   13.94   1
  -4  14  -1   80.48   8.009   1
  -4  14  -1  124.40   15.15   1
   4 -14   2 1140.00  107.90   1
   4 -14   2 1189.00  114.30   1
  -4 -14  -2 1077.00  101.20   1
  -4 -14  -2 1105.00  104.30   1
   4  14   2 1008.00   97.50   1
   4  14   2 1003.00   94.25   1
  -4  14  -2  943.20   88.67   1
  -4  14  -2 1352.00  128.40   1
   4 -14   3  159.50   19.49   1
  -4 -14  -3  108.00   10.63   1
  -4 -14  -3  146.10   14.94   1
   4  14   3  138.00   18.74   1
   4  14   3  124.80   12.28   1
   4 -14   4  132.60   17.91   1
   4 -14   4  167.10   17.87   1
  -4 -14  -4  130.50   12.70   1
  -4 -14  -4  136.60   14.03   1
   4  14   4  116.30   18.01   1
   4  14   4  155.60   15.29   1
  -4  14  -4  160.10   17.99   1
  -4  14  -4  113.20   11.03   1
   4 -14   5   12.77   9.984   1
  -4 -14  -5   16.10    2.59   1
  -4 -14  -5   20.31   4.572   1
   4  14   5   12.69   13.46   1
   4  14   5   16.30   3.451   1
  -4  14  -5   13.87    2.20   1
   4 -14   6  172.40   18.37   1
   4 -14   6  180.60   22.48   1
  -4 -14  -6  186.10   17.93   1
  -4 -14  -6  168.80   17.09   1
   4  14   6  167.80   16.66   1
   4  14   6  178.60   24.80   1
  -4  14  -6  201.20   19.23   1
  -4  14  -6  194.70   20.92   1
   4 -14   7  700.30   67.22   1
   4 -14   7  681.60   67.92   1
  -4 -14  -7  816.50   77.90   1
  -4 -14  -7  777.80   73.27   1
   4  14   7  771.70   73.48   1
   4  14   7  843.50   85.28   1
  -4  14  -7  794.90   76.32   1
  -4  14  -7  679.00   63.95   1
   4 -14   8  545.50   56.62   1
   4 -14   8  513.90   49.95   1
  -4 -14  -8  617.60   58.33   1
  -4 -14  -8  586.70   56.86   1
   4  14   8  537.60   52.40   1
  -4  14  -8  555.50   52.41   1
  -4  14  -8  600.50   58.21   1
   4 -14   9   2.754   10.86   1
  -4  14  -9   1.179   1.743   1
  -4 -15  10   3.863   8.258   1
  -4 -15  10   3.372   1.959   1
   4  15 -10   2.324   12.44   1
   4  15 -10 -0.5789   2.442   1
  -4 -15   9   3.488   6.249   1
  -4 -15   9  0.8566   1.992   1
   4  15  -9   3.214   2.014   1
   4  15  -9 -0.0908   14.55   1
   4 -15  -8  -2.613   4.597   1
   4 -15  -8   2.842   3.057   1
  -4 -15   8 -0.7373    2.02   1
  -4 -15   8   -4.91   6.069   1
   4  15  -8   2.385   16.64   1
   4  15  -8   2.461   1.968   1
  -4  15   8   2.685   2.157   1
  -4  15   8  0.4667   1.597   1
   4 -15  -7   2.566   4.537   1
   4 -15  -7   -9.90   9.107   1
  -4 -15   7   2.077   2.108   1
  -4 -15   7  -2.828   5.689   1
   4  15  -7 -0.3146   1.825   1
   4  15  -7  -2.703   14.80   1
  -4  15   7  -4.803   3.899   1
  -4  15   7   2.524   1.828   1
   4 -15  -6   3.699   4.486   1
   4  15  -6   1.045   1.879   1
  -4  15   6  -3.311   4.167   1
  -4  15   6   1.343   1.703   1
   4 -15  -5   38.88   10.26   1
  -4 -15   5   30.42   6.598   1
   4  15  -5   49.35   5.373   1
   4  15  -5   14.04   13.28   1
  -4  15   5   34.64   6.293   1
  -4  15   5   54.15   5.678   1
   4 -15  -4   2.191   8.441   1
   4 -15  -4  -4.721    4.32   1
  -4 -15   4    5.40   4.803   1
  -4 -15   4   12.24   2.485   1
   4  15  -4   10.02   2.185   1
   4  15  -4   4.949   10.99   1
  -4  15   4   13.44   5.555   1
  -4  15   4   11.99   2.229   1
  -4 -15   3  173.90   16.79   1
   4  15  -3  132.30   12.88   1
   4  15  -3  113.50   18.20   1
  -4  15   3  162.80   15.71   1
  -4  15   3  126.20   14.54   1
   4 -15  -2   12.34   9.788   1
   4 -15  -2  -2.363    4.42   1
  -4 -15   2   9.937   2.273   1
  -4 -15   2   1.125    4.22   1
   4  15  -2   2.149   10.07   1
   4  15  -2   6.172   1.944   1
  -4  15   2   8.752   1.999   1
  -4  15   2   6.522   6.306   1
   4 -15  -1   11.38   9.318   1
  -4 -15   1   4.913   2.041   1
   4  15  -1   1.999   10.47   1
  -4  15   1   3.835   1.667   1
   4 -15   0  -0.478   5.006   1
  -4 -15   0  -1.211    1.88   1
  -4 -15   0   4.626   4.653   1
   4  15   0 -0.1165   1.714   1
   4  15   0   11.51   11.02   1
  -4  15   0   3.932   6.566   1
   4 -15   1   3.544   9.203   1
   4 -15   1  -6.299   5.138   1
  -4 -15  -1   2.716   4.216   1
   4  15   1    2.69   1.837   1
  -4  15  -1   6.834   1.801   1
  -4  15  -1   5.009   6.622   1
   4 -15   2  -7.712   9.125   1
   4 -15   2   0.564   5.222   1
  -4 -15  -2-0.05209   4.054   1
   4  15   2   4.355   2.011   1
  -4  15  -2   5.014   1.703   1
  -4  15  -2   7.569   7.064   1
   4 -15   3   2.371   5.723   1
   4 -15   3  -2.067   9.338   1
  -4 -15  -3   1.231   1.818   1
  -4 -15  -3   7.644   4.273   1
   4  15   3   12.06   12.34   1
   4  15   3   2.909   2.112   1
  -4  15  -3   3.374   1.532   1
  -4  15  -3  -5.506   6.868   1
   4 -15   4  -15.17   9.632   1
  -4 -15  -4 -0.2268   1.918   1
  -4 -15  -4 -0.5667   3.748   1
   4  15   4-0.03286   2.607   1
   4  15   4   10.18   12.67   1
  -4  15  -4  -1.367   1.422   1
   4 -15   5    3.35   5.908   1
   4 -15   5  -8.879   9.844   1
  -4 -15  -5  -1.469   3.891   1
  -4 -15  -5   5.519   2.124   1
   4  15   5   3.804   2.991   1
   4  15   5  -22.07   13.17   1
  -4  15  -5  -3.412   6.419   1
  -4  15  -5   7.351   1.785   1
   4 -15   6   2.328   6.237   1
   4 -15   6   15.33   10.57   1
  -4 -15  -6  0.2397   4.383   1
  -4 -15  -6   5.426   2.274   1
   4  15   6   2.975   3.409   1
   4  15   6   9.539   15.72   1
  -4  15  -6  0.3532   7.255   1
  -4  15  -6   5.228   1.626   1
   4 -15   7  -5.301   6.644   1
  -4 -15  -7  0.3934   2.377   1
  -4 -15  -7    2.21   6.956   1
   4  15   7  -12.55   19.42   1
   4  15   7  -5.931    5.54   1
  -4  15  -7  -1.157    6.97   1
   4 -15   8  -10.16   7.103   1
   4 -15   8   2.437   11.37   1
  -4  15  -8   5.177   1.782   1
  -4  15  -8   2.282   7.113   1
  -4 -16   9   54.26   5.803   1
  -4 -16   9   57.88   9.717   1
   4  16  -9   73.51   17.09   1
   4  16  -9   54.49   5.936   1
   4 -16  -8  213.70   21.32   1
  -4 -16   8  206.50   21.98   1
  -4 -16   8  194.10   18.68   1
   4  16  -8  168.60   25.56   1
   4  16  -8  192.00   18.58   1
  -4  16   8  211.10   20.15   1
   4 -16  -7  125.60   13.89   1
   4 -16  -7  127.60   18.12   1
  -4 -16   7  106.50   10.57   1
  -4 -16   7  132.50   15.31   1
   4  16  -7  142.10   23.11   1
   4  16  -7  112.50   11.15   1
  -4  16   7  110.20   10.94   1
  -4  16   7  114.50   12.93   1
   4 -16  -6   35.90   6.455   1
   4 -16  -6   28.01   10.85   1
  -4 -16   6   22.33   3.329   1
   4  16  -6   32.19   3.925   1
   4  16  -6   43.19   15.84   1
  -4  16   6   30.11   5.955   1
  -4  16   6   27.13    3.36   1
   4 -16  -5   26.70   9.782   1
   4 -16  -5   26.16    5.51   1
  -4 -16   5   18.22   6.032   1
  -4 -16   5   27.76   3.564   1
   4  16  -5    6.24   13.57   1
   4  16  -5   17.72   3.125   1
  -4  16   5   25.74   3.232   1
  -4  16   5   29.89   6.238   1
   4 -16  -4  128.10   16.89   1
   4 -16  -4  126.40   13.65   1
  -4 -16   4  150.00   14.57   1
  -4 -16   4  102.00   12.01   1
   4  16  -4  149.90   22.25   1
   4  16  -4  125.70   12.30   1
  -4  16   4  137.50   13.33   1
  -4  16   4  147.70   16.16   1
   4 -16  -3  143.40   15.66   1
   4 -16  -3  117.10   16.24   1
  -4 -16   3  108.70   12.37   1
  -4 -16   3  116.20   11.45   1
   4  16  -3  121.10   11.86   1
   4  16  -3   99.57   18.03   1
  -4  16   3  117.60   11.51   1
  -4  16   3  168.50   18.45   1
   4 -16  -2  223.80   25.55   1
   4 -16  -2  244.60   24.69   1
  -4 -16   2  185.10   17.82   1
  -4 -16   2  200.20   20.48   1
   4  16  -2  209.40   20.06   1
   4  16  -2  207.50   25.47   1
  -4  16   2  259.50   26.96   1
  -4  16   2  173.00   16.65   1
   4 -16  -1  166.30   20.56   1
   4 -16  -1  153.50   16.36   1
  -4 -16   1  144.00   15.44   1
  -4 -16   1  169.00   16.33   1
   4  16  -1  153.60   21.22   1
   4  16  -1  172.10   16.59   1
  -4  16   1  196.40   21.17   1
  -4  16   1  171.60   16.58   1
   4 -16   0  -3.647   5.159   1
   4 -16   0  0.3301   8.877   1
  -4 -16   0   4.481   4.868   1
  -4 -16   0   9.561   2.288   1
   4  16   0 -0.4238   11.60   1
   4  16   0   6.087   1.927   1
   4 -16   1  162.70   20.29   1
   4 -16   1  177.40   18.69   1
  -4 -16  -1  130.00   14.06   1
  -4 -16  -1  146.00   14.17   1
   4  16   1  137.90   13.40   1
   4  16   1  119.50   18.53   1
  -4  16  -1  168.40   18.90   1
  -4  16  -1  147.20   14.23   1
   4 -16   2  433.70   42.28   1
   4 -16   2  401.20   41.48   1
  -4 -16  -2  393.90   37.32   1
  -4 -16  -2  412.40   39.90   1
   4  16   2  405.70   43.02   1
  -4  16  -2  387.20   36.63   1
  -4  16  -2  471.30   46.53   1
   4 -16   3  747.70   73.45   1
  -4 -16  -3  704.20   66.35   1
   4  16   3  787.70   78.19   1
  -4  16  -3  593.30   55.92   1
   4 -16   4  189.40   22.80   1
  -4 -16  -4  148.00   14.42   1
   4  16   4  182.00   24.26   1
   4  16   4  179.10   17.54   1
  -4  16  -4  144.20   13.94   1
  -4  16  -4  224.80   23.92   1
   4 -16   5   6.982   9.832   1
   4 -16   5   7.619   6.772   1
  -4 -16  -5   3.433   4.466   1
   4  16   5   1.092   3.246   1
  -4  16  -5  -4.991   7.093   1
  -4  16  -5   2.901   1.612   1
   4 -16   6  303.70   30.99   1
   4 -16   6  238.90   27.92   1
  -4 -16  -6  252.40   25.21   1
  -4 -16  -6  278.70   26.71   1
   4  16   6  230.40   22.57   1
   4  16   6  294.70   37.20   1
  -4  16  -6  259.10   24.75   1
  -4  16  -6  303.90   31.04   1
   4 -16   7  333.60   36.44   1
   4 -16   7  297.50   30.33   1
  -4 -16  -7  325.80   31.14   1
  -4 -16  -7  369.80   37.18   1
   4  16   7  348.20   34.43   1
   4  16   7  352.10   45.05   1
  -4  16  -7  339.90   34.51   1
  -4  16  -7  308.40   29.29   1
  -4 -17   8   3.959   1.913   1
  -4 -17   8   3.465   6.234   1
   4  17  -8   2.241   1.987   1
   4  17  -8   7.599   14.35   1
   4 -17  -7   2.591   6.519   1
  -4 -17   7 -0.8528   6.454   1
  -4 -17   7  -1.858   1.947   1
   4  17  -7   18.96   14.73   1
  -4  17   7   4.103   5.444   1
   4 -17  -6   6.412   10.57   1
   4 -17  -6   4.343   5.498   1
  -4 -17   6   6.831   2.182   1
  -4 -17   6   6.595   5.855   1
   4  17  -6   5.618   2.126   1
   4  17  -6  -4.497   15.29   1
  -4  17   6  0.3225    5.24   1
  -4  17   6  0.8976   2.057   1
   4 -17  -5  -1.604   9.373   1
  -4 -17   5  -2.748   5.328   1
  -4 -17   5  0.1001   1.876   1
   4  17  -5   16.34   14.60   1
   4  17  -5  0.7397   1.906   1
   4 -17  -4   56.35   11.45   1
  -4 -17   4   85.48   8.654   1
   4  17  -4   35.12   15.53   1
   4  17  -4   72.14   7.445   1
  -4  17   4   86.11   8.635   1
   4 -17  -3   11.84   6.609   1
  -4 -17   3   24.78   6.182   1
  -4 -17   3   33.59   4.225   1
   4  17  -3   23.20   15.13   1
   4  17  -3   37.04   4.333   1
  -4  17   3   20.91   7.171   1
   4 -17  -2   14.67   9.377   1
   4 -17  -2   4.351   5.802   1
  -4 -17   2  -1.176   4.788   1
  -4 -17   2 -0.1832   1.947   1
   4  17  -2  -4.339   11.62   1
   4  17  -2  0.5625   1.885   1
  -4  17   2    1.33   6.669   1
  -4  17   2 0.08456   1.598   1
   4 -17  -1   13.39   9.525   1
   4 -17  -1  -3.415   5.509   1
  -4 -17   1   2.023   4.854   1
  -4 -17   1   6.727    2.22   1
   4  17  -1   7.568    2.18   1
   4  17  -1  -9.546   13.08   1
  -4  17   1   5.748   1.847   1
  -4  17   1   2.615   6.834   1
   4 -17   0  -10.47   8.977   1
   4 -17   0   4.511   5.537   1
  -4 -17   0    0.58   4.696   1
  -4 -17   0    2.34   2.049   1
   4  17   0  -3.591   1.798   1
   4  17   0   7.207   13.31   1
  -4  17   0  -4.374   6.692   1
  -4  17   0  0.6349   1.612   1
   4 -17   1   22.10   10.37   1
   4 -17   1   15.37    6.47   1
  -4 -17  -1   46.96   5.235   1
  -4 -17  -1   31.97   6.424   1
   4  17   1   8.765   13.29   1
   4  17   1   36.65   4.316   1
  -4  17  -1   44.03   4.818   1
  -4  17  -1   46.70   9.308   1
   4 -17   2  -1.574    6.15   1
   4 -17   2   23.74   11.17   1
  -4 -17  -2   9.357   4.865   1
  -4 -17  -2   18.32   2.928   1
   4  17   2   12.79   2.495   1
   4  17   2   9.538   13.44   1
  -4  17  -2   12.49   7.513   1
  -4  17  -2   16.32   2.544   1
   4 -17   3   7.368   9.885   1
   4 -17   3  -3.724   6.145   1
  -4 -17  -3    4.07   2.161   1
  -4 -17  -3   4.751   4.651   1
   4  17   3   9.797   13.87   1
   4  17   3    3.93   2.281   1
  -4  17  -3  -2.331   6.818   1
  -4  17  -3   3.484   1.598   1
   4 -17   4    2.73   7.144   1
   4 -17   4 -0.5175   9.449   1
  -4 -17  -4   3.382   2.152   1
  -4 -17  -4   2.775   4.545   1
   4  17   4  -10.95   14.06   1
   4  17   4   2.219   2.786   1
  -4  17  -4 -0.4114   1.458   1
  -4  17  -4   7.025   7.198   1
   4 -17   5   1.199   7.119   1
   4 -17   5   3.842   9.855   1
  -4 -17  -5   7.469   4.736   1
  -4 -17  -5 -0.7024   2.214   1
   4  17   5   1.925   3.384   1
   4  17   5   -1.13   15.44   1
  -4  17  -5   2.078   1.595   1
  -4  17  -5  -1.139   6.459   1
   4 -17   6  -2.749    7.21   1
   4 -17   6  -3.225   10.45   1
  -4 -17  -6  0.5059   2.369   1
   4  17   6   -6.79   19.85   1
  -4  17  -6  -7.283   7.238   1
  -4  17  -6 -0.9445   1.538   1
  -4 -17  -7  -3.918   9.421   1
   4  17   7  0.7032   7.034   1
   4 -18  -7  175.40   19.62   1
   4 -18  -7  134.00   20.07   1
  -4 -18   7  139.40   13.60   1
  -4 -18   7  150.90   17.51   1
   4  18  -7  134.70   22.48   1
   4  18  -7  158.70   15.48   1
  -4  18   7  166.20   16.36   1
  -4  18   7  169.10   18.49   1
   4 -18  -6  117.60   18.84   1
   4 -18  -6  104.00   12.78   1
  -4 -18   6  129.30   12.66   1
   4  18  -6  118.60   20.73   1
   4  18  -6   98.77   10.05   1
  -4  18   6  102.00   12.31   1
  -4  18   6  118.30   11.70   1
   4 -18  -5   1.439   5.569   1
  -4 -18   5   3.674   5.783   1
  -4 -18   5   4.687   2.104   1
   4  18  -5   6.119   15.82   1
   4  18  -5   4.606   2.084   1
  -4  18   5   6.182   2.246   1
  -4  18   5    9.17   5.974   1
   4 -18  -4  128.80   14.54   1
   4 -18  -4  131.00   17.65   1
  -4 -18   4  109.90   12.95   1
  -4 -18   4  131.60   12.87   1
   4  18  -4  102.60   19.62   1
   4  18  -4  117.90   11.62   1
  -4  18   4  139.50   15.70   1
  -4  18   4  129.20   12.61   1
   4 -18  -3  589.20   58.63   1
   4 -18  -3  634.90   61.23   1
  -4 -18   3  740.00   69.71   1
  -4 -18   3  612.20   58.96   1
   4  18  -3  624.50   64.40   1
   4  18  -3  661.60   62.38   1
  -4  18   3  748.70   72.10   1
  -4  18   3  645.10   60.80   1
   4 -18  -2  363.80   36.07   1
   4 -18  -2  319.40   33.90   1
  -4 -18   2  319.30   31.78   1
  -4 -18   2  370.70   35.16   1
   4  18  -2  327.20   31.13   1
   4  18  -2  300.30   34.88   1
  -4  18   2  323.30   30.68   1
  -4  18   2  408.00   40.74   1
   4 -18  -1  139.80   18.16   1
   4 -18  -1  144.90   16.46   1
  -4 -18   1  122.50   14.13   1
  -4 -18   1  157.90   15.34   1
   4  18  -1  120.00   20.80   1
  -4  18   1  140.90   13.66   1
  -4  18   1  160.10   18.29   1
   4 -18   0   15.06   9.015   1
  -4 -18   0   8.011   5.337   1
   4  18   0   7.218   2.122   1
  -4  18   0    8.82   2.032   1
   4 -18   1  215.90   24.94   1
   4 -18   1  250.10   25.67   1
  -4 -18  -1  244.50   24.71   1
  -4 -18  -1  224.40   21.54   1
   4  18   1  213.60   20.50   1
   4  18   1  247.60   30.99   1
  -4  18  -1  283.40   29.38   1
  -4  18  -1  205.60   19.72   1
   4 -18   2 1073.00  102.20   1
   4 -18   2  956.30   92.97   1
  -4 -18  -2 1034.00   98.13   1
  -4 -18  -2 1121.00  105.40   1
   4  18   2 1010.00   99.84   1
   4  18   2  965.70   90.87   1
  -4  18  -2 1235.00  117.80   1
  -4  18  -2  976.90   91.85   1
   4 -18   3  412.00   40.92   1
   4 -18   3  340.20   36.16   1
  -4 -18  -3  346.40   32.93   1
  -4 -18  -3  359.50   35.16   1
   4  18   3  323.70   37.60   1
   4  18   3  322.40   30.76   1
  -4  18  -3  296.50   28.17   1
  -4  18  -3  423.40   42.62   1
   4 -18   4   94.76   13.07   1
  -4 -18  -4   63.32   6.745   1
   4  18   4   63.83    7.29   1
   4  18   4   52.56   18.07   1
  -4  18  -4   93.12   13.02   1
   4 -18   5   -3.32   7.712   1
   4 -18   5  -8.337   10.06   1
  -4 -18  -5 -0.4594   5.655   1
  -4 -18  -5   4.959   2.492   1
   4  18   5   1.759   3.733   1
   4  18   5 -0.3635   19.28   1
  -4  18  -5   2.011   1.616   1
  -4  18  -5  0.8614   7.358   1
   4 -18   6   24.39   13.48   1
  -4 -18  -6   35.69   8.193   1
  -4 -18  -6   48.74   5.929   1
   4  18   6   26.41   5.644   1
   4  18   6   30.27   21.58   1
   4 -19  -6   8.409   7.172   1
  -4 -19   6   1.012   1.954   1
  -4 -19   6   6.891   6.328   1
   4  19  -6  -10.68   15.46   1
   4  19  -6  0.7134   2.079   1
  -4  19   6  -3.983    6.82   1
  -4  19   6   -1.32   2.709   1
   4 -19  -5  -2.021   10.34   1
   4 -19  -5  -5.019   6.377   1
  -4 -19   5    1.48   5.841   1
  -4 -19   5 -0.7735   1.954   1
   4  19  -5  0.4253   14.72   1
   4  19  -5   1.644   2.077   1
  -4  19   5  0.7946   2.117   1
  -4  19   5   3.328   6.411   1
   4 -19  -4   34.46    8.18   1
   4 -19  -4   29.67   11.00   1
  -4 -19   4   43.96   8.263   1
   4  19  -4   37.77   16.97   1
  -4  19   4   72.77   10.86   1
   4 -19  -3   11.52   7.564   1
   4 -19  -3   1.814   8.948   1
  -4 -19   3   8.351   5.822   1
  -4 -19   3   10.93   2.465   1
   4  19  -3   19.63   15.36   1
   4  19  -3    6.47    2.16   1
  -4  19   3   2.539   7.257   1
  -4  19   3   8.131   2.087   1
   4 -19  -2  -3.627   8.314   1
  -4 -19   2   3.735   5.598   1
  -4 -19   2 -0.2287   2.013   1
   4  19  -2   1.274   1.937   1
   4  19  -2   2.448   14.31   1
  -4  19   2    2.24   1.775   1
   4 -19  -1   1.276   6.393   1
  -4 -19   1    1.62   5.336   1
  -4 -19   1   5.395   2.176   1
   4  19  -1   2.314   2.008   1
   4  19  -1  -3.359   15.02   1
  -4  19   1 -0.4528   7.455   1
   4 -19   0  -3.616   8.698   1
   4 -19   0    4.59   6.544   1
  -4 -19   0   9.731   5.565   1
  -4 -19   0   4.262   2.192   1
   4  19   0   13.82   14.72   1
   4  19   0   3.328   2.068   1
  -4  19   0   4.243   1.768   1
  -4  19   0   5.231   7.285   1
   4 -19   1   3.269   9.347   1
  -4 -19  -1 -0.6402    5.00   1
  -4 -19  -1   1.026   2.205   1
   4  19   1  -1.032   2.145   1
   4  19   1  -2.726   16.36   1
  -4  19  -1  -16.48    8.35   1
  -4  19  -1 -0.7467   1.687   1
   4 -19   2   20.66    8.01   1
   4 -19   2   16.92   10.16   1
  -4 -19  -2   21.69    3.35   1
   4  19   2   24.32   15.66   1
  -4  19  -2   17.91   2.653   1
  -4  19  -2   11.84   8.615   1
   4 -19   3   -8.10   10.42   1
   4 -19   3   -8.22   7.091   1
  -4 -19  -3   2.181   2.162   1
   4  19   3  -2.551   15.59   1
   4  19   3  -1.647    2.49   1
  -4  19  -3  0.9391   7.228   1
  -4  19  -3   1.527   1.685   1
   4 -19   4   5.065    9.28   1
   4 -19   4  -2.414    8.03   1
  -4 -19  -4  -5.774   5.352   1
  -4 -19  -4    5.62   2.322   1
   4  19   4   2.482    3.01   1
   4  19   4   2.973   17.35   1
  -4  19  -4   7.198   8.132   1
  -4  19  -4   4.236   1.705   1
  -4 -19  -5  0.2257   5.431   1
   4  19   5  0.8106   3.966   1
  -4 -19  -6   9.608   7.769   1
   4  19   6  -35.18   20.81   1
   4  19   6   2.735   5.422   1
   4 -20  -6  122.10   22.00   1
   4 -20  -6  107.20   15.51   1
  -4  20   6  126.10   12.74   1
  -4  20   6  110.00   14.20   1
   4 -20  -5   50.79   14.39   1
   4 -20  -5   48.08   10.36   1
  -4 -20   5   41.21   8.339   1
   4  20  -5   49.79   5.567   1
  -4  20   5   48.76   9.855   1
  -4  20   5   45.88   5.437   1
   4 -20  -4   48.41   12.21   1
  -4 -20   4   58.98   6.305   1
  -4 -20   4   43.21    8.48   1
   4  20  -4   61.87   18.36   1
   4  20  -4   56.05   6.089   1
  -4  20   4   56.16   6.132   1
   4 -20  -3  421.50   42.00   1
   4 -20  -3  406.70   42.27   1
  -4 -20   3  443.80   42.01   1
  -4 -20   3  382.60   37.84   1
   4  20  -3  391.80   43.55   1
   4  20  -3  422.40   40.07   1
  -4  20   3  425.60   42.40   1
   4 -20  -2  375.50   39.13   1
   4 -20  -2  441.60   43.97   1
  -4 -20   2  373.00   37.19   1
  -4 -20   2  365.00   34.64   1
   4  20  -2  368.80   35.10   1
   4  20  -2  395.30   44.31   1
  -4  20   2  382.50   36.27   1
  -4  20   2  487.20   48.36   1
   4 -20  -1  158.70   18.86   1
   4 -20  -1  128.10   17.65   1
  -4 -20   1  145.90   16.33   1
   4  20  -1  135.20   24.17   1
   4  20  -1  134.60   13.27   1
  -4  20   1  183.10   20.96   1
  -4  20   1  147.90   14.37   1
   4 -20   0  -2.095   9.052   1
   4 -20   0   3.947   7.398   1
  -4 -20   0  0.3128   2.128   1
  -4 -20   0   3.909   6.028   1
   4  20   0  0.5127   2.195   1
   4  20   0   25.67   16.24   1
  -4  20   0   3.087   1.777   1
  -4  20   0  0.2772   7.561   1
   4 -20   1  231.10   24.56   1
   4 -20   1  206.20   24.44   1
  -4 -20  -1  226.00   21.76   1
  -4 -20  -1  229.40   23.62   1
   4  20   1  206.90   29.05   1
   4  20   1  219.70   21.18   1
  -4  20  -1  227.90   21.80   1
  -4  20  -1  279.80   29.55   1
   4 -20   2  389.70   40.63   1
   4 -20   2  449.00   44.58   1
  -4 -20  -2  396.90   37.72   1
  -4 -20  -2  424.70   41.60   1
   4  20   2  401.10   38.15   1
   4  20   2  422.30   47.96   1
  -4  20  -2  365.60   34.65   1
  -4  20  -2  476.20   47.41   1
   4 -20   3  397.80   41.15   1
   4 -20   3  425.80   42.67   1
  -4 -20  -3  440.30   43.18   1
  -4 -20  -3  413.20   39.24   1
   4  20   3  400.20   38.14   1
   4  20   3  431.00   48.94   1
  -4  20  -3  364.60   34.56   1
  -4  20  -3  505.80   50.34   1
  -4 -20  -4   18.86   6.206   1
  -4 -20  -4   13.20   3.124   1
   4  20   4   17.45   18.95   1
   4  20   4   12.06   3.646   1
  -4 -20  -5   0.278   2.997   1
  -4 -20  -5 -0.3428   7.087   1
   4  20   5  -6.183   20.56   1
   4  20   5  -2.026   4.958   1
   4 -21  -5  -11.88   10.96   1
   4 -21  -5   2.691   9.711   1
  -4  21   5   10.58   7.987   1
   4 -21  -4   1.051   11.41   1
   4 -21  -4   1.183   8.945   1
  -4  21   4   4.391   8.105   1
  -4  21   4 -0.3714   2.348   1
   4 -21  -3   27.59   10.26   1
   4 -21  -3   43.37   12.39   1
  -4 -21   3   32.55   8.031   1
   4  21  -3   48.62   5.512   1
  -4  21   3   54.29   10.88   1
  -4  21   3   53.89   5.983   1
   4 -21  -2  -12.53   9.135   1
   4 -21  -2  -13.40   9.066   1
  -4 -21   2  -8.375   6.353   1
   4  21  -2  -1.159   2.205   1
   4  21  -2 -0.2268   16.24   1
  -4  21   2  0.3816   1.908   1
  -4  21   2  -1.528   8.763   1
   4 -21  -1  -3.668   9.416   1
   4 -21  -1   3.731    9.52   1
  -4 -21   1  -6.068   6.155   1
  -4 -21   1  0.4072   2.181   1
   4  21  -1  -1.017   2.067   1
   4  21  -1  -27.31   15.34   1
  -4  21   1 -0.6784   1.793   1
  -4  21   1   9.026   8.993   1
   4 -21   0  -5.176   8.926   1
   4 -21   0   14.00   8.423   1
  -4 -21   0   1.428    2.02   1
  -4 -21   0   3.777   6.375   1
   4  21   0   12.51   18.23   1
   4  21   0  0.4632   2.174   1
  -4  21   0 -0.7745   1.804   1
  -4  21   0   1.543    8.04   1
   4 -21   1  -8.061   9.687   1
   4 -21   1   7.964   8.568   1
  -4 -21  -1   1.704   2.339   1
   4  21   1   19.79   19.31   1
  -4  21  -1   1.045    1.78   1
  -4  21  -1  -3.468   8.149   1
   4 -21   2   -4.93   10.74   1
  -4 -21  -2   6.692   2.692   1
   4  21   2   7.125   2.806   1
   4  21   2   10.34   17.45   1
  -4 -21  -3   16.74   3.378   1
  -4 -21  -3    9.91   7.081   1
   4  21   3   21.31   4.072   1
  -4 -21  -4   3.668   6.263   1
  -4 -21  -4  0.1803   2.844   1
   4  21   4  -1.931   4.089   1
   4 -22  -5   2.753   9.471   1
   4 -22  -5   4.181   8.546   1
  -4  22   5   6.501   8.028   1
  -4  22   5   2.916   3.044   1
   4 -22  -4   13.79   10.65   1
   4 -22  -4   18.80   9.682   1
  -4  22   4   18.11   3.478   1
   4 -22  -3  161.00   21.60   1
   4 -22  -3  177.90   21.57   1
  -4  22   3  219.80   24.68   1
   4 -22  -2  285.20   30.59   1
   4 -22  -2  262.10   29.92   1
  -4  22   2  280.90   30.06   1
  -4  22   2  249.20   23.95   1
   4 -22  -1  149.10   20.24   1
   4 -22  -1  172.30   20.79   1
  -4 -22   1  125.00   15.52   1
   4  22  -1  132.20   13.08   1
  -4  22   1  174.70   20.59   1
  -4  22   1  156.30   15.25   1
   4 -22   0   10.01   9.782   1
  -4 -22   0  0.2593   6.492   1
   4  22   0   14.12   16.62   1
   4  22   0    2.82   2.358   1
  -4  22   0    1.15    1.94   1
  -4 -22  -1   60.18   10.06   1
  -4 -22  -1   67.36   7.279   1
   4  22   1   80.12   21.90   1
   4  22   1   70.35   7.747   1
  -4 -22  -2  322.80   32.71   1
  -4 -22  -2  310.70   29.77   1
   4  22   2  273.50   35.73   1
   4  22   2  321.60   31.02   1
  -4 -22  -3  153.40   17.96   1
  -4 -22  -3  182.40   17.96   1
   4  22   3  169.80   30.05   1
   4  22   3  166.90   16.92   1
  -4 -22  -4  161.00   16.44   1
   4  22   4  108.00   21.95   1
   4  22   4  137.70   15.02   1
   4 -23  -4  -2.205   4.645   1
   4 -23  -4 -0.8974   3.443   1
  -4  23   4   1.784    5.43   1
  -4  23   4  -4.523   6.739   1
   4 -23  -3  -14.68   9.002   1
  -4  23   3   12.08    7.92   1
  -4  23   3 -0.8564   2.366   1
  -4  23   2   13.42   2.986   1
   5   0 -10   2.317   3.756   1
  -5   0  10  0.5781    1.25   1
  -5   0  10   4.469   4.353   1
   5   0  -9  -2.869   3.613   1
   5   0  -9   6.513   7.161   1
  -5   0   9   2.961   1.374   1
  -5   0   9 -0.3128   4.264   1
   5   0  -8  -2.717   6.467   1
   5   0  -8   2.124    2.78   1
  -5   0   8  -1.723    3.43   1
  -5   0   8  0.5169    1.41   1
   5   0  -7   2.829   5.657   1
   5   0  -7 -0.5432   2.238   1
  -5   0   7  -1.017   1.267   1
  -5   0   7  -1.621   2.654   1
   5   0  -6  -1.467   1.999   1
   5   0  -6 -0.7984   3.548   1
  -5   0   6  0.5556   1.159   1
  -5   0   6  -1.962   2.459   1
   5   0  -5 -0.4673   2.688   1
   5   0  -5  -1.457   1.895   1
  -5   0   5    3.10   2.243   1
  -5   0   5  0.1331    1.10   1
   5   0  -4   1.741   2.165   1
   5   0  -4 -0.1366   2.626   1
  -5   0   4 -0.7544   1.193   1
  -5   0   4  -2.877   2.246   1
   5   0  -3  -1.812   2.438   1
   5   0  -3  -1.811   2.252   1
  -5   0   3  -1.423   2.299   1
  -5   0   3  -1.146   1.391   1
   5   0  -2  -2.993   2.729   1
   5   0  -2    2.29   2.304   1
  -5   0   2   1.572   2.404   1
  -5   0   2  0.4498   1.889   1
   5   0  -1 -0.9967    2.17   1
   5   0  -1    5.53   3.325   1
  -5   0   1  -2.547   1.973   1
  -5   0   1 -0.7204    2.45   1
   5   0   0  -7.652   3.814   1
   5   0   0   1.209   2.177   1
  -5   0   0 -0.8939   2.703   1
  -5   0   0   -1.66   2.064   1
   5   0   1  0.5547   3.781   1
   5   0   1  0.9842    2.26   1
  -5   0  -1  0.4608   2.095   1
  -5   0  -1   3.613   3.009   1
   5   0   2  0.9617   2.257   1
   5   0   2 -0.5638   3.558   1
  -5   0  -2  -4.368   2.909   1
  -5   0  -2  0.4892   2.039   1
   5   0   3  0.7584   3.949   1
   5   0   3  -1.719    2.47   1
  -5   0  -3 -0.1055   2.084   1
  -5   0  -3  -3.515   2.895   1
   5   0   4   1.918   4.858   1
   5   0   4 -0.6893   2.353   1
  -5   0  -4 -0.8175   2.331   1
  -5   0  -4    1.74   3.588   1
   5   0   5  -7.177   5.932   1
  -5   0  -5   3.756   4.956   1
   5   0   6   2.374   3.241   1
  -5   0  -6  -2.081   2.621   1
   5   0   7   3.441   3.535   1
   5   0   7   -2.66   7.053   1
  -5   0  -7  -5.876    6.85   1
  -5   0  -7   5.728   2.982   1
   5   0   8  -2.773   4.407   1
   5   0   8   6.227   8.456   1
  -5   0  -8   9.158   8.356   1
  -5   0  -8  -2.199    3.05   1
   5   0   9 -0.8803   5.576   1
   5   0   9   7.244   11.42   1
  -5   0  -9  -1.102   3.325   1
  -5   0  -9 -0.3986   1.378   1
   5   0  10  -14.37   14.58   1
   5   0  10  -1.072   8.789   1
  -5   0 -10  0.2825   1.537   1
  -5   0 -10   3.213   3.829   1
  -5  -1  11  168.00   17.27   1
  -5  -1  11  158.50   17.72   1
   5   1 -11  167.30   16.85   1
   5   1 -11  208.70   21.39   1
   5  -1 -10   37.77   5.837   1
   5  -1 -10   48.66   6.769   1
  -5  -1  10   43.04   7.092   1
  -5  -1  10   35.66   3.913   1
   5   1 -10   39.38   10.05   1
   5   1 -10   38.51    5.50   1
  -5   1  10   43.28   6.414   1
   5  -1  -9  262.00   25.31   1
  -5  -1   9  318.00   30.49   1
  -5  -1   9  326.90   30.92   1
   5   1  -9  281.60   26.91   1
   5   1  -9  332.50   34.38   1
  -5   1   9  261.30   25.24   1
   5  -1  -8 1587.00  150.10   1
   5  -1  -8 1623.00  152.60   1
  -5  -1   8 1552.00  145.60   1
  -5  -1   8 1688.00  158.60   1
   5   1  -8 1506.00  141.50   1
   5   1  -8 1449.00  137.40   1
  -5   1   8 1975.00  185.50   1
  -5   1   8 1486.00  139.40   1
   5  -1  -7 2562.00  241.00   1
   5  -1  -7 2558.00  240.00   1
  -5  -1   7 2402.00  225.30   1
  -5  -1   7 2281.00  213.90   1
   5   1  -7 2196.00  206.00   1
   5   1  -7 2891.00  272.40   1
  -5   1   7 2629.00  246.80   1
  -5   1   7 2288.00  214.60   1
   5  -1  -6 1072.00  101.00   1
   5  -1  -6 1145.00  107.70   1
  -5  -1   6 1077.00  101.10   1
  -5  -1   6 1162.00  109.30   1
   5   1  -6 1172.00  110.80   1
   5   1  -6 1067.00  100.30   1
  -5   1   6 1138.00  106.80   1
  -5   1   6 1262.00  118.70   1
   5  -1  -5   85.33   8.955   1
   5  -1  -5   78.13   8.183   1
  -5  -1   5   77.13   7.538   1
  -5  -1   5   73.43   7.629   1
   5   1  -5   75.43   8.325   1
   5   1  -5   72.59   7.421   1
  -5   1   5   88.15   9.029   1
  -5   1   5   76.98   7.498   1
   5  -1  -4   13.89   3.309   1
  -5  -1   4   15.98   2.877   1
  -5  -1   4   9.809   1.585   1
   5   1  -4   12.35    2.39   1
   5   1  -4   14.32   3.269   1
   5  -1  -3 1567.00  147.20   1
   5  -1  -3 1722.00  161.70   1
  -5  -1   3 1673.00  157.00   1
  -5  -1   3 1611.00  151.20   1
   5   1  -3 1516.00  142.30   1
   5   1  -3 1733.00  162.90   1
  -5   1   3 1850.00  173.60   1
  -5   1   3 1831.00  171.90   1
   5  -1  -2  498.70   47.32   1
   5  -1  -2  493.00   46.59   1
  -5  -1   2  541.10   51.09   1
  -5  -1   2  465.10   43.85   1
   5   1  -2  474.10   44.90   1
   5   1  -2  476.40   45.15   1
  -5   1   2  490.30   46.29   1
  -5   1   2  608.40   57.43   1
   5  -1  -1  313.00   30.10   1
   5  -1  -1  264.10   25.20   1
  -5  -1   1  352.10   33.34   1
  -5  -1   1  260.30   24.85   1
   5   1  -1  285.00   27.22   1
   5   1  -1  263.10   25.20   1
  -5   1   1  280.00   26.77   1
  -5   1   1  318.40   30.23   1
   5  -1   0  110.10   10.97   1
   5  -1   0   92.35   9.932   1
  -5  -1   0  108.50   10.70   1
  -5  -1   0  109.30   10.96   1
   5   1   0  104.70   10.75   1
   5   1   0   98.25   9.913   1
  -5   1   0  106.20   10.73   1
  -5   1   0   93.55   9.368   1
   5  -1   1   1.773    3.84   1
   5  -1   1   8.328   2.561   1
  -5  -1  -1   6.475   2.145   1
  -5  -1  -1   4.834   3.031   1
   5   1   1   5.909   3.555   1
   5   1   1    3.54   2.432   1
  -5   1  -1   0.566   2.288   1
  -5   1  -1   3.732   2.839   1
   5  -1   2 2941.00  276.20   1
   5  -1   2 2948.00  276.50   1
  -5  -1  -2 2931.00  274.80   1
  -5  -1  -2 3011.00  282.40   1
   5   1   2 2874.00  269.60   1
   5   1   2 2677.00  251.30   1
  -5   1  -2 2620.00  245.80   1
  -5   1  -2 2725.00  255.70   1
   5  -1   3 8036.00  753.60   1
   5  -1   3 7324.00  686.50   1
  -5  -1  -3 6527.00  611.80   1
  -5  -1  -3 7085.00  664.00   1
   5   1   3 6464.00  606.00   1
   5   1   3 7177.00  672.60   1
  -5   1  -3 6508.00  610.10   1
  -5   1  -3 7149.00  670.20   1
   5  -1   4 3722.00  349.10   1
   5  -1   4 4548.00  427.30   1
  -5  -1  -4 3362.00  315.30   1
  -5  -1  -4 3539.00  332.00   1
   5   1   4 3580.00  335.90   1
   5   1   4 3883.00  364.70   1
  -5   1  -4 3487.00  327.10   1
   5  -1   5  278.00   28.19   1
   5  -1   5  264.40   25.44   1
  -5  -1  -5  326.10   31.65   1
   5   1   5  299.50   29.84   1
  -5   1  -5  296.70   29.24   1
   5  -1   6   61.84   7.138   1
   5  -1   6   61.89   9.757   1
  -5  -1  -6   74.32    7.89   1
  -5  -1  -6   73.26   10.08   1
   5   1   6   76.18   10.87   1
   5   1   6   52.75   6.647   1
  -5   1  -6   68.64   7.434   1
  -5   1  -6   58.11   8.734   1
   5  -1   7  701.60   67.62   1
   5  -1   7  801.40   75.80   1
  -5  -1  -7 1002.00   94.30   1
  -5  -1  -7  804.50   77.02   1
   5   1   7  816.80   77.36   1
  -5   1  -7  761.50   73.01   1
  -5   1  -7  877.80   82.74   1
   5  -1   8  803.80   76.27   1
   5  -1   8  724.00   70.45   1
  -5  -1  -8  994.10   93.65   1
  -5  -1  -8  710.70   68.84   1
   5   1   8  692.80   67.16   1
   5   1   8  762.30   72.53   1
  -5   1  -8  807.50   76.25   1
  -5   1  -8  644.20   62.66   1
   5  -1   9  148.60   20.96   1
   5  -1   9  118.70   13.26   1
  -5  -1  -9  112.10   10.84   1
  -5  -1  -9  136.40   13.69   1
   5   1   9  112.10   13.58   1
   5   1   9  117.00   17.84   1
  -5   1  -9  127.70   13.23   1
  -5   1  -9  126.20   12.19   1
   5  -1  10    7.88   8.191   1
   5  -1  10   16.02   15.59   1
  -5  -1 -10   4.906   3.419   1
  -5  -1 -10   16.07   2.452   1
   5   1  10  -1.462   15.73   1
   5   1  10   7.552   10.23   1
  -5   1 -10   11.01   5.084   1
  -5   1 -10   19.10   2.652   1
  -5  -2  11  -6.011   5.966   1
  -5  -2  11   7.279    9.83   1
   5   2 -11  -5.537   4.436   1
   5   2 -11   3.587   7.004   1
  -5  -2  10  0.9473   1.529   1
  -5  -2  10 -0.7403   4.049   1
   5   2 -10  -2.497   2.525   1
   5   2 -10  -6.265   9.089   1
   5  -2  -9  -1.785   4.543   1
   5  -2  -9  -5.672   5.983   1
  -5  -2   9  -0.614   3.503   1
  -5  -2   9   1.379   1.724   1
   5   2  -9   2.765   2.459   1
   5   2  -9  -4.433   8.056   1
  -5   2   9   1.249   1.119   1
  -5   2   9  0.3708   4.363   1
   5  -2  -8   6.796   5.674   1
  -5  -2   8   15.74   2.374   1
  -5  -2   8   11.15   3.471   1
   5   2  -8   13.01   2.775   1
   5   2  -8   10.43   7.585   1
  -5   2   8   4.704   3.633   1
  -5   2   8   12.10    1.83   1
   5  -2  -7   4.933   4.103   1
   5  -2  -7    1.84   3.408   1
  -5  -2   7   1.901   2.779   1
  -5  -2   7  0.6263   1.441   1
   5   2  -7   8.959    7.28   1
   5   2  -7   1.345   2.288   1
  -5   2   7  -2.861   3.194   1
  -5   2   7   1.744   1.197   1
   5  -2  -6   1.964   2.861   1
   5  -2  -6   4.713   3.276   1
  -5  -2   6   6.256   1.512   1
  -5  -2   6   3.703   2.557   1
   5   2  -6 -0.8626   5.446   1
   5   2  -6   2.339    2.02   1
  -5   2   6   3.725   3.067   1
  -5   2   6   5.628    1.36   1
   5  -2  -5 -0.7352   3.056   1
   5  -2  -5  0.6013   2.543   1
  -5  -2   5   1.931   2.423   1
  -5  -2   5 -0.5339   1.186   1
   5   2  -5  0.1417   3.296   1
   5   2  -5   1.061   1.937   1
  -5   2   5   1.219   2.786   1
  -5   2   5 -0.6088   1.164   1
   5  -2  -4  -0.566   2.101   1
   5  -2  -4  -5.241   3.188   1
  -5  -2   4 -0.2984   1.204   1
  -5  -2   4  -0.362    2.27   1
   5   2  -4   2.284   2.835   1
   5   2  -4  -2.229    2.06   1
  -5   2   4   1.101   1.448   1
  -5   2   4   5.995   2.769   1
   5  -2  -3   4.966   2.226   1
   5  -2  -3   5.884    3.48   1
  -5  -2   3   12.64   1.887   1
  -5  -2   3   2.719    2.37   1
   5   2  -3   11.74   2.479   1
   5   2  -3   8.521   2.998   1
  -5   2   3    1.25    2.88   1
  -5   2   3   10.45   2.255   1
   5  -2  -2   8.479   3.768   1
   5  -2  -2   2.999   2.247   1
  -5  -2   2   5.996   2.369   1
   5   2  -2   9.695   3.125   1
   5   2  -2   11.25   2.619   1
  -5   2   2   6.943   2.285   1
  -5   2   2  -1.385   2.733   1
   5  -2  -1   2.378    2.06   1
   5  -2  -1   1.793   3.654   1
  -5  -2   1  0.1163   2.333   1
  -5  -2   1   2.788   1.623   1
   5   2  -1   4.773   2.411   1
   5   2  -1   5.407   2.786   1
  -5   2   1   3.189   2.785   1
  -5   2   1   3.271   2.195   1
   5  -2   0  0.7759   4.237   1
   5  -2   0   2.415   2.167   1
  -5  -2   0   1.373   1.705   1
  -5  -2   0    1.20   2.346   1
   5   2   0   1.788   2.476   1
   5   2   0   1.348   2.431   1
  -5   2   0 0.06651    2.20   1
  -5   2   0  0.6882   2.645   1
   5  -2   1   7.367    4.19   1
   5  -2   1  0.7099   2.196   1
  -5  -2  -1   4.891   1.928   1
  -5  -2  -1   5.601   2.713   1
   5   2   1   2.187   3.008   1
   5   2   1   2.226   2.488   1
  -5   2  -1  -2.153   2.761   1
  -5   2  -1   3.421   2.428   1
   5  -2   2   18.60   5.159   1
   5  -2   2   18.58   3.285   1
  -5  -2  -2   15.71   3.429   1
  -5  -2  -2   32.68   3.959   1
   5   2   2   22.53   3.576   1
   5   2   2   28.01   4.628   1
  -5   2  -2   28.40   3.952   1
   5  -2   3   37.38    6.91   1
   5  -2   3   35.85   4.688   1
  -5  -2  -3   25.34   4.113   1
   5   2   3   42.89    5.74   1
   5   2   3   33.34   4.538   1
  -5   2  -3   25.34   4.514   1
  -5   2  -3   36.98   4.692   1
  -5  -2  -4   34.15   4.798   1
   5   2   4   50.48   6.054   1
  -5   2  -4   23.73   4.966   1
   5  -2   5   6.615   3.147   1
  -5  -2  -5   4.343   4.021   1
  -5  -2  -5   5.541   2.654   1
   5   2   5   7.478   5.265   1
   5   2   5  -3.441   3.212   1
  -5   2  -5   6.516    2.95   1
   5  -2   6   6.109   6.394   1
   5  -2   6   1.716   3.266   1
  -5  -2  -6  -7.347   5.853   1
   5   2   6  0.1978   6.276   1
  -5   2  -6   7.775   5.986   1
  -5   2  -6   3.755   2.944   1
   5  -2   7   7.444   3.635   1
   5  -2   7   10.80   7.668   1
  -5  -2  -7   18.16   3.301   1
   5   2   7   4.759   4.471   1
  -5   2  -7   3.184   6.581   1
  -5   2  -7   13.19   3.385   1
   5  -2   8   14.85   9.155   1
   5  -2   8   29.91   5.642   1
  -5  -2  -8   42.18   5.119   1
  -5  -2  -8   23.56   9.347   1
   5   2   8   28.55   6.671   1
  -5   2  -8   27.58    4.51   1
   5  -2   9  -23.15   12.63   1
   5  -2   9 -0.6716   4.683   1
  -5  -2  -9   1.797   2.467   1
  -5  -2  -9 -0.3348   1.174   1
   5   2   9   11.45   7.481   1
   5   2   9  -5.925   9.861   1
  -5   2  -9-0.01782   1.407   1
  -5   2  -9   2.119    3.61   1
   5  -2  10   20.04   15.85   1
  -5  -2 -10   22.12   3.034   1
   5   2  10   9.126   9.749   1
  -5   2 -10   19.07    2.67   1
  -5  -3  12   57.45   15.21   1
   5   3 -12   55.24   8.482   1
   5   3 -12   63.54   11.82   1
  -5  -3  11   90.79   10.83   1
   5   3 -11   88.60   13.59   1
   5   3 -11   72.24   8.154   1
  -5  -3  10   13.24   4.705   1
  -5  -3  10   14.84   2.518   1
   5   3 -10   19.46   10.27   1
   5   3 -10   14.09   3.027   1
   5  -3  -9  129.90   14.17   1
   5  -3  -9  104.00   11.23   1
  -5  -3   9  128.10   12.44   1
  -5  -3   9  118.80   12.38   1
   5   3  -9  116.50   11.64   1
   5   3  -9  127.10   17.03   1
   5  -3  -8  158.60   16.40   1
   5  -3  -8  165.90   17.95   1
  -5  -3   8  124.50   12.06   1
  -5  -3   8  150.30   15.05   1
   5   3  -8  149.60   14.62   1
   5   3  -8  157.70   18.55   1
  -5   3   8  153.20   15.61   1
  -5   3   8  121.50   11.60   1
   5  -3  -7  261.80   25.37   1
  -5  -3   7  267.90   25.40   1
  -5  -3   7  303.50   29.13   1
   5   3  -7  301.70   28.72   1
   5   3  -7  278.70   28.78   1
  -5   3   7  257.40   24.30   1
   5  -3  -6  844.90   79.68   1
   5  -3  -6  688.70   65.17   1
  -5  -3   6  817.30   77.09   1
  -5  -3   6  772.40   72.60   1
   5   3  -6  835.10   79.97   1
   5   3  -6  868.40   81.70   1
  -5   3   6  740.60   69.55   1
  -5   3   6  726.80   68.55   1
   5  -3  -5  400.50   38.00   1
   5  -3  -5  339.60   32.49   1
  -5  -3   5  364.60   34.41   1
  -5  -3   5  390.20   37.11   1
   5   3  -5  370.70   36.04   1
   5   3  -5  422.50   39.97   1
  -5   3   5  364.70   34.65   1
  -5   3   5  375.90   35.45   1
   5  -3  -4   1.744   3.287   1
   5  -3  -4   3.361   2.001   1
  -5  -3   4   9.503   1.668   1
  -5  -3   4   3.581   2.615   1
   5   3  -4   10.59   2.329   1
   5   3  -4   7.162   3.408   1
  -5   3   4   8.537   1.975   1
  -5   3   4   5.292   2.823   1
   5  -3  -3  263.70   25.48   1
   5  -3  -3  244.50   23.34   1
  -5  -3   3  233.00   22.38   1
  -5  -3   3  308.10   29.12   1
   5   3  -3  310.30   29.49   1
   5   3  -3  264.60   25.60   1
  -5   3   3  216.70   20.88   1
  -5   3   3  282.20   26.81   1
   5  -3  -2 1691.00  159.00   1
   5  -3  -2 1787.00  167.80   1
  -5  -3   2 1759.00  165.20   1
  -5  -3   2 1553.00  145.70   1
   5   3  -2 1731.00  162.50   1
   5   3  -2 1858.00  174.60   1
  -5   3   2 1832.00  172.00   1
  -5   3   2 1505.00  141.30   1
   5  -3  -1 2035.00  191.00   1
   5  -3  -1 2020.00  190.00   1
  -5  -3   1 1892.00  177.60   1
  -5  -3   1 1980.00  185.70   1
   5   3  -1 1928.00  181.00   1
   5   3  -1 2067.00  194.10   1
  -5   3   1 1816.00  170.50   1
  -5   3   1 1758.00  165.00   1
   5  -3   0  758.00   71.95   1
   5  -3   0  752.60   70.91   1
  -5  -3   0  724.50   68.26   1
  -5  -3   0  656.60   61.78   1
   5   3   0  757.10   71.50   1
   5   3   0  643.40   60.66   1
  -5   3   0  677.30   63.93   1
  -5   3   0  658.30   62.13   1
   5  -3   1  830.40   78.87   1
   5  -3   1  718.70   67.76   1
  -5  -3  -1  664.10   62.50   1
  -5  -3  -1  648.40   61.15   1
   5   3   1  640.10   60.52   1
   5   3   1  573.80   54.19   1
  -5   3  -1  644.60   60.88   1
  -5   3  -1  692.70   65.48   1
   5  -3   2 2594.00  244.10   1
   5  -3   2 2229.00  209.30   1
  -5  -3  -2 2161.00  202.80   1
  -5  -3  -2 2100.00  197.00   1
   5   3   2 1943.00  182.60   1
   5   3   2 1922.00  180.50   1
  -5   3  -2 1942.00  182.40   1
  -5   3  -2 2048.00  192.40   1
   5  -3   3 1766.00  166.80   1
  -5  -3  -3 1451.00  136.20   1
  -5  -3  -3 1570.00  147.60   1
   5   3   3 1359.00  127.80   1
   5   3   3 1374.00  129.30   1
  -5   3  -3 1537.00  144.70   1
   5  -3   4  940.10   88.62   1
   5  -3   4  815.70   77.89   1
  -5  -3  -4  844.80   79.67   1
  -5  -3  -4  810.40   76.26   1
   5   3   4  771.60   72.98   1
   5   3   4  823.80   77.79   1
  -5   3  -4  822.90   77.68   1
   5  -3   5   69.40   7.782   1
   5  -3   5   50.44   8.309   1
  -5  -3  -5   68.15   7.896   1
   5   3   5   57.26   7.755   1
   5   3   5   59.17   7.201   1
  -5   3  -5   88.84   10.56   1
   5  -3   6   38.32    5.69   1
   5  -3   6   23.57   7.236   1
  -5  -3  -6   55.15   8.169   1
   5   3   6   49.98   8.506   1
  -5   3  -6   39.84   7.612   1
  -5   3  -6   32.48    4.79   1
   5  -3   7  256.00   27.04   1
   5  -3   7  285.90   27.74   1
  -5  -3  -7  328.00   31.14   1
   5   3   7  292.80   28.78   1
   5   3   7  347.60   35.17   1
  -5   3  -7  306.30   29.43   1
   5  -3   8  125.30   13.37   1
   5  -3   8  122.70   16.75   1
  -5   3  -8  100.90   10.61   1
  -5   3  -8  112.00   10.85   1
   5  -3   9  219.10   26.97   1
  -5  -3  -9  195.60   18.89   1
   5   3   9  144.70   19.86   1
   5   3   9  224.50   24.14   1
  -5   3  -9  193.40   18.47   1
   5  -3  10   14.02   7.055   1
  -5  -3 -10   12.69    2.47   1
   5   3  10   11.90   16.92   1
  -5   3 -10   17.11   2.527   1
  -5   3 -10   10.02   5.131   1
  -5  -4  12  -7.863   7.571   1
  -5  -4  12   1.665   16.18   1
   5   4 -12  -6.426   9.618   1
   5   4 -12  -2.512   4.576   1
  -5  -4  11  -1.608   1.792   1
  -5  -4  11   10.76   5.694   1
   5   4 -11  -1.721   3.304   1
  -5  -4  10   5.756   4.574   1
   5   4 -10   4.256   2.604   1
  -5  -4   9 -0.1387   3.766   1
   5   4  -9   1.038   2.366   1
   5  -4  -8   5.037   5.657   1
   5  -4  -8 -0.4501   4.688   1
  -5  -4   8   5.951   3.455   1
   5   4  -8   9.634   2.451   1
  -5   4   8   4.382   4.604   1
  -5   4   8   4.011   1.222   1
   5  -4  -7  -1.974   2.789   1
  -5  -4   7   1.758   3.186   1
  -5  -4   7   4.946   1.722   1
   5   4  -7   6.133   2.129   1
   5   4  -7  -2.985    7.19   1
  -5   4   7  0.7682   4.023   1
  -5   4   7   4.247   1.263   1
   5  -4  -6   5.716    2.74   1
   5  -4  -6   2.802   4.832   1
  -5  -4   6   4.722   1.581   1
  -5  -4   6  -1.018   2.818   1
   5   4  -6   7.612   2.035   1
   5   4  -6   -5.87   6.453   1
  -5   4   6   3.095   3.769   1
  -5   4   6   7.232   1.532   1
   5  -4  -5   7.376   3.942   1
   5  -4  -5  -2.002   2.135   1
  -5  -4   5  0.1977   2.603   1
  -5  -4   5   1.491   1.347   1
   5   4  -5   1.058   1.864   1
   5   4  -5   3.811   5.441   1
  -5   4   5  -1.202   1.577   1
  -5   4   5    1.38   2.865   1
   5  -4  -4   5.619   2.205   1
   5  -4  -4   3.699   3.722   1
  -5  -4   4 -0.9154   2.482   1
  -5  -4   4   3.747   1.425   1
   5   4  -4   4.144   3.657   1
   5   4  -4   6.402   2.057   1
  -5   4   4   2.303   1.868   1
  -5   4   4  -2.671   2.713   1
   5  -4  -3   8.556   4.028   1
   5  -4  -3   3.787   2.146   1
  -5  -4   3   7.429   1.611   1
  -5  -4   3   5.274   2.637   1
   5   4  -3   10.44   2.366   1
   5   4  -3   6.896   3.439   1
  -5   4   3   6.578   2.888   1
  -5   4   3   6.678   2.179   1
   5  -4  -2   9.865   4.087   1
   5  -4  -2   5.052   2.209   1
  -5  -4   2   3.058   2.485   1
  -5  -4   2   11.31   1.811   1
   5   4  -2   7.553   2.274   1
   5   4  -2   6.866   3.076   1
  -5   4   2   1.228   2.906   1
  -5   4   2    7.49   2.349   1
   5  -4  -1   4.383   2.522   1
   5  -4  -1   11.64   4.882   1
  -5  -4   1   12.96   1.933   1
  -5  -4   1   1.047   2.406   1
   5   4  -1   4.917   3.252   1
   5   4  -1    8.03   2.419   1
  -5   4   1   1.871   2.881   1
  -5   4   1   8.605    3.05   1
   5  -4   0   2.619   2.784   1
   5  -4   0    8.59   4.951   1
  -5  -4   0   3.565   2.448   1
  -5  -4   0   14.12   2.081   1
   5   4   0   9.076   2.417   1
   5   4   0   11.38   3.307   1
  -5   4   0   0.921   2.965   1
  -5   4   0   9.005   3.441   1
   5  -4   1  118.00   13.34   1
  -5  -4  -1  137.30   13.20   1
   5   4   1  107.80   11.15   1
   5   4   1  111.30   11.05   1
  -5   4  -1  123.60   12.60   1
   5  -4   2   4.051    2.91   1
   5  -4   2   2.878   5.259   1
  -5  -4  -2   11.45   1.941   1
  -5  -4  -2   4.226   2.406   1
   5   4   2   2.119    3.01   1
   5   4   2    4.70   2.436   1
  -5   4  -2  -2.113   3.355   1
  -5   4  -2   9.695   3.598   1
   5  -4   3   5.732   5.193   1
   5  -4   3   3.805   3.365   1
   5   4   3   2.496   3.022   1
   5   4   3   6.468   3.311   1
  -5   4  -3 -0.8388   3.651   1
  -5   4  -3 -0.8353   3.629   1
   5  -4   4   -2.35   2.823   1
  -5  -4  -4 -0.5134   3.259   1
  -5  -4  -4   2.589   1.845   1
   5   4   4   1.401   3.896   1
   5   4   4   3.595   3.351   1
  -5   4  -4  -11.42   4.202   1
  -5   4  -4   1.808   3.438   1
   5  -4   5  0.8053   3.453   1
   5  -4   5   6.404   5.668   1
  -5  -4  -5  0.5334   1.746   1
  -5  -4  -5  0.1175   3.711   1
   5   4   5    5.73   4.379   1
   5   4   5  0.5327   3.969   1
  -5   4  -5 -0.2901   3.554   1
  -5   4  -5  -2.133   4.999   1
   5  -4   6  -6.858   6.463   1
   5  -4   6   2.323   4.049   1
  -5  -4  -6   2.487   5.133   1
   5   4   6   7.476   5.806   1
  -5   4  -6  0.5246   5.883   1
  -5   4  -6   9.469   3.996   1
   5  -4   7   1.015   3.789   1
   5  -4   7   7.456   8.249   1
  -5  -4  -7  -11.54   7.143   1
   5   4   7   5.283   7.976   1
  -5   4  -7  0.6148    1.23   1
  -5   4  -7   5.431   3.592   1
   5  -4   8   36.04   11.03   1
   5  -4   8   25.88   5.877   1
  -5  -4  -8   39.35   4.576   1
   5   4   8   23.94   7.241   1
   5   4   8   25.71   9.297   1
   5  -4   9  -4.459   4.604   1
  -5  -4  -9  -7.281   10.82   1
   5   4   9   6.392   11.45   1
  -5   4  -9   1.915   1.397   1
  -5   4  -9  -3.225   3.662   1
   5  -4  10  -17.41   6.868   1
   5  -4  10    4.84   15.49   1
  -5  -4 -10-0.03158   2.694   1
  -5  -4 -10   5.047   1.922   1
   5   4  10   -3.83   10.29   1
   5   4  10  -1.561   16.65   1
  -5   4 -10    3.57   1.677   1
  -5   4 -10   2.084   4.829   1
  -5  -5  12   84.67   22.21   1
   5   5 -12   97.78   11.64   1
   5   5 -12   96.60   15.59   1
  -5  -5  11  150.30   14.63   1
  -5  -5  11  148.40   16.19   1
   5   5 -11  131.90   18.35   1
   5   5 -11  138.80   14.02   1
  -5  -5  10  242.20   24.08   1
  -5  -5  10  267.20   25.47   1
   5   5 -10  219.30   26.07   1
   5   5 -10  257.10   24.71   1
  -5  -5   9   24.99   3.274   1
  -5  -5   9   19.70   4.674   1
   5   5  -9   12.82   10.61   1
   5   5  -9   20.03   3.223   1
   5  -5  -8  216.10   21.64   1
   5  -5  -8  141.70   14.69   1
  -5  -5   8  162.80   15.65   1
   5   5  -8  190.20   21.99   1
  -5   5   8  165.70   16.76   1
  -5   5   8  183.40   17.35   1
   5  -5  -7  400.10   38.85   1
   5  -5  -7  340.50   32.49   1
  -5  -5   7  401.80   38.46   1
  -5  -5   7  352.40   33.34   1
   5   5  -7  384.20   38.86   1
   5   5  -7  386.00   36.55   1
  -5   5   7  333.60   31.44   1
  -5   5   7  391.60   37.68   1
   5  -5  -6  817.30   77.82   1
   5  -5  -6  671.50   63.36   1
  -5  -5   6  665.90   63.07   1
   5   5  -6  695.60   65.49   1
  -5   5   6  706.20   66.37   1
  -5   5   6  650.50   61.73   1
   5  -5  -5  286.40   27.26   1
   5  -5  -5  370.20   36.12   1
  -5  -5   5  322.60   31.06   1
   5   5  -5  302.60   28.72   1
  -5   5   5  316.00   30.43   1
  -5   5   5  312.40   29.60   1
   5  -5  -4   26.61   3.526   1
   5  -5  -4   37.99    6.55   1
  -5  -5   4   29.78   3.359   1
  -5  -5   4   35.45   4.765   1
   5   5  -4   32.97   3.781   1
   5   5  -4   33.10   6.449   1
  -5   5   4   22.44   3.078   1
  -5   5   4   38.37   5.327   1
   5  -5  -3 7834.00  734.70   1
   5  -5  -3 6115.00  573.10   1
  -5  -5   3 6075.00  569.50   1
  -5  -5   3 6303.00  590.50   1
   5   5  -3 5347.00  501.70   1
   5   5  -3 6631.00  621.40   1
  -5   5   3 6279.00  588.70   1
  -5   5   3 5357.00  502.10   1
   5  -5  -2 4399.00  412.40   1
   5  -5  -2 5024.00  471.70   1
  -5  -5   2 3917.00  367.40   1
  -5  -5   2 3749.00  351.40   1
   5   5  -2 3458.00  324.50   1
   5   5  -2 4288.00  402.00   1
  -5   5   2 3695.00  346.50   1
  -5   5   2 4437.00  416.20   1
   5  -5  -1 1997.00  187.50   1
   5  -5  -1 2340.00  220.30   1
  -5  -5   1 1834.00  172.00   1
  -5  -5   1 1861.00  174.70   1
   5   5  -1 2086.00  195.80   1
   5   5  -1 1759.00  165.50   1
  -5   5   1 1850.00  173.80   1
  -5   5   1 1938.00  182.20   1
   5  -5   0 1077.00  102.20   1
   5  -5   0  881.90   83.08   1
  -5  -5   0  785.20   73.79   1
  -5  -5   0  827.90   78.00   1
   5   5   0  836.30   78.73   1
   5   5   0  803.30   75.95   1
  -5   5   0  798.40   75.37   1
  -5   5   0  805.90   76.17   1
   5  -5   1  116.90   11.81   1
   5  -5   1   84.06   10.48   1
  -5  -5  -1   71.43    7.07   1
  -5  -5  -1   98.69   9.939   1
   5   5   1   74.94   7.732   1
   5   5   1   91.15   9.699   1
  -5   5  -1   76.90   8.538   1
   5  -5   2  862.60   82.20   1
  -5  -5  -2  772.20   72.76   1
  -5  -5  -2  788.60   74.13   1
   5   5   2  745.40   70.27   1
   5   5   2  839.70   79.39   1
  -5   5  -2  794.40   75.24   1
   5  -5   3 1760.00  165.40   1
  -5  -5  -3 1489.00  139.70   1
  -5  -5  -3 1557.00  146.30   1
   5   5   3 1507.00  141.60   1
   5   5   3 1726.00  162.40   1
  -5   5  -3 1485.00  139.70   1
   5  -5   4  501.70   47.64   1
   5  -5   4  399.90   39.20   1
  -5  -5  -4  489.90   46.54   1
  -5  -5  -4  389.90   36.82   1
   5   5   4  475.20   45.40   1
   5   5   4  430.80   41.11   1
  -5   5  -4  430.70   41.49   1
  -5   5  -4  414.80   39.66   1
   5  -5   5    9.09   6.448   1
   5  -5   5   14.06   4.106   1
  -5  -5  -5   2.002   1.791   1
  -5  -5  -5   14.38   4.238   1
   5   5   5  -2.858   4.595   1
   5   5   5    6.04   4.042   1
  -5   5  -5   1.663   3.754   1
  -5   5  -5   5.517   5.401   1
   5  -5   6   6.806   4.216   1
   5  -5   6   17.89   7.653   1
  -5  -5  -6   3.224   4.557   1
   5   5   6   3.473   5.184   1
  -5   5  -6   3.016    6.16   1
  -5   5  -6   8.746   4.305   1
   5  -5   7  158.30   19.54   1
   5  -5   7  163.40   16.79   1
  -5  -5  -7  158.80   17.53   1
   5   5   7  199.80   21.91   1
  -5   5  -7  171.90   16.43   1
  -5   5  -7  173.90   17.54   1
   5  -5   8  643.20   61.28   1
   5  -5   8  625.20   62.46   1
  -5  -5  -8  693.60   67.49   1
   5   5   8  663.40   64.59   1
  -5   5  -8  672.60   63.89   1
   5  -5   9  224.70   22.67   1
   5  -5   9  241.30   29.13   1
  -5  -5  -9  212.50   25.52   1
   5   5   9  186.60   22.93   1
   5   5   9  195.50   22.46   1
  -5   5  -9  236.60   22.51   1
  -5   5  -9  226.10   22.44   1
   5  -5  10   18.55   7.477   1
   5  -5  10   39.55   16.61   1
  -5  -5 -10   7.961   3.033   1
  -5  -5 -10   18.03   2.671   1
   5   5  10   36.43   17.48   1
   5   5  10   28.07   15.52   1
  -5   5 -10   19.20    6.08   1
  -5   5 -10   22.56   2.961   1
  -5  -6  12  -5.394   19.05   1
  -5  -6  12   5.633   8.363   1
   5   6 -12   5.278   10.63   1
   5   6 -12  0.1486   4.749   1
  -5  -6  11    3.55    5.73   1
  -5  -6  11   1.629   2.055   1
   5   6 -11   4.361    3.18   1
   5   6 -11  -5.286   10.65   1
  -5  -6  10  -2.736   4.722   1
  -5  -6  10  0.5481   2.147   1
   5   6 -10   13.88   11.68   1
   5   6 -10   3.355   2.559   1
  -5  -6   9   3.456   4.162   1
  -5  -6   9   10.03   2.314   1
   5   6  -9  -2.517   10.25   1
   5   6  -9   4.636   2.022   1
   5  -6  -8   7.088   4.289   1
   5  -6  -8  -1.639   5.226   1
  -5  -6   8   5.584   3.776   1
  -5  -6   8   2.921   1.801   1
   5   6  -8   12.06   9.779   1
   5   6  -8   2.695   1.885   1
  -5   6   8  0.9822  0.9315   1
  -5   6   8   1.052   1.051   1
   5  -6  -7   2.622   2.709   1
   5  -6  -7   4.323   4.756   1
  -5  -6   7  0.4965   3.546   1
  -5  -6   7   5.351   1.833   1
   5   6  -7   4.819   1.771   1
   5   6  -7   5.248   8.325   1
  -5   6   7  -2.017   4.369   1
  -5   6   7   3.845   1.272   1
   5  -6  -6    4.38   5.216   1
   5  -6  -6   6.744   2.755   1
  -5  -6   6    8.97   1.908   1
   5   6  -6-0.07237   7.762   1
  -5   6   6-0.08117   4.403   1
  -5   6   6   10.04   2.131   1
   5  -6  -5   3.443   2.135   1
   5  -6  -5    3.74   5.066   1
  -5  -6   5   2.717   3.324   1
  -5  -6   5  -2.235   1.557   1
   5   6  -5   2.473   1.535   1
   5   6  -5  -1.222   6.753   1
  -5   6   5  0.5299   1.897   1
  -5   6   5  -7.222   4.407   1
   5  -6  -4   1.061   2.088   1
   5  -6  -4  -2.806   4.863   1
  -5  -6   4   1.377   2.843   1
   5   6  -4   2.109    1.65   1
  -5   6   4   2.171   3.687   1
  -5   6   4    3.12   2.367   1
  -5  -6   3   9.624   1.883   1
  -5  -6   3   4.792   3.011   1
   5   6  -3 -0.2516   4.497   1
   5   6  -3   15.01   2.358   1
  -5   6   3   4.739   3.774   1
  -5   6   3   7.962   2.733   1
   5  -6  -2   2.581   2.778   1
   5  -6  -2   3.901   5.085   1
  -5  -6   2   2.327   2.596   1
  -5  -6   2   4.333    1.50   1
   5   6  -2   6.607   1.946   1
   5   6  -2    1.19   3.472   1
  -5   6   2   5.187   3.476   1
  -5   6   2   4.174   3.146   1
   5  -6  -1   6.674   2.949   1
   5  -6  -1   4.961   5.089   1
  -5  -6   1   4.558   2.749   1
  -5  -6   1   8.761   1.719   1
   5   6  -1   8.274    2.23   1
   5   6  -1   4.178    3.69   1
  -5   6   1   4.453   3.329   1
  -5   6   1  -1.967   3.361   1
   5  -6   0   55.31   7.975   1
   5  -6   0   40.31   5.089   1
  -5  -6   0   49.46   5.807   1
   5   6   0   43.76   5.861   1
  -5   6   0   61.54   7.183   1
   5  -6   1  -1.174   5.162   1
  -5  -6  -1 -0.6036   1.308   1
  -5  -6  -1  0.4811   2.472   1
   5   6   1 -0.6252   2.247   1
   5   6   1   2.229    3.12   1
  -5   6  -1  -1.673   3.653   1
   5  -6   2  101.80   10.52   1
  -5  -6  -2  126.50   12.56   1
   5   6   2  144.00   14.66   1
   5  -6   3   12.94   3.523   1
   5  -6   3   15.31   5.574   1
  -5  -6  -3   14.34   3.167   1
   5   6   3   17.73   4.328   1
   5   6   3   28.48   3.935   1
  -5   6  -3   6.016   4.057   1
  -5   6  -3   24.05   4.546   1
   5  -6   4   5.333   3.325   1
   5  -6   4   22.24   6.603   1
  -5  -6  -4   14.13   2.292   1
  -5  -6  -4   10.46   3.672   1
   5   6   4   6.957   4.047   1
   5   6   4   13.29   3.806   1
  -5   6  -4  -3.928    4.84   1
  -5   6  -4   14.55   4.185   1
   5  -6   5   4.961   3.821   1
   5  -6   5  -3.113   6.614   1
  -5  -6  -5  0.5864   4.026   1
   5   6   5 -0.2166   4.092   1
  -5   6  -5  -6.332   3.769   1
  -5   6  -5   9.202   5.688   1
   5  -6   6 -0.2791   4.138   1
   5  -6   6   -2.02   7.664   1
  -5  -6  -6  0.8328   4.579   1
   5   6   6   4.982   4.823   1
  -5   6  -6   2.533   4.118   1
  -5   6  -6   1.347   1.305   1
   5  -6   7   1.986   4.899   1
   5  -6   7    3.46   9.517   1
  -5  -6  -7   2.288   6.417   1
   5   6   7   5.654   7.066   1
  -5   6  -7   3.987   4.618   1
  -5   6  -7   3.254   1.467   1
   5  -6   8   12.72   5.142   1
   5  -6   8  -6.176   10.93   1
  -5  -6  -8   8.115   9.836   1
   5   6   8   1.363   8.703   1
  -5   6  -8   5.571   4.608   1
  -5   6  -8   12.42   2.018   1
   5  -6   9   2.768   12.86   1
   5  -6   9   7.116   5.461   1
  -5  -6  -9   6.689   12.44   1
  -5  -6  -9   0.898   2.303   1
   5   6   9   11.99   12.01   1
   5   6   9  -7.698   10.32   1
  -5   6  -9  -1.338   4.327   1
  -5   6  -9   1.573   1.422   1
   5  -6  10  -5.633   14.81   1
  -5   6 -10   2.003   1.523   1
  -5  -7  12   78.64   13.48   1
   5   7 -12   94.84   11.21   1
  -5  -7  11  129.10   14.75   1
  -5  -7  11  102.30   10.28   1
   5   7 -11  130.30   13.23   1
   5   7 -11  115.10   18.37   1
  -5  -7  10  207.30   19.92   1
  -5  -7  10  208.60   21.23   1
   5   7 -10  203.10   19.62   1
   5   7 -10  186.50   24.23   1
  -5  -7   9   40.64   6.456   1
  -5  -7   9   38.14   4.435   1
   5   7  -9   34.77   12.50   1
   5   7  -9   39.24   4.454   1
   5  -7  -8   52.20   6.446   1
   5  -7  -8   63.14   8.863   1
  -5  -7   8   60.11   7.708   1
  -5  -7   8   55.45   5.841   1
   5   7  -8   54.80   5.729   1
   5   7  -8   68.03   13.84   1
  -5   7   8   53.58   5.225   1
  -5   7   8   55.80   5.417   1
   5  -7  -7  261.80   25.16   1
  -5  -7   7  254.00   24.92   1
  -5  -7   7  220.10   21.00   1
   5   7  -7  217.00   24.20   1
   5   7  -7  227.30   21.66   1
  -5   7   7  220.50   20.87   1
  -5   7   7  192.50   18.23   1
   5  -7  -6  382.00   36.25   1
   5  -7  -6  326.70   32.08   1
  -5  -7   6  386.40   37.13   1
  -5  -7   6  385.20   36.41   1
   5   7  -6  412.50   41.76   1
   5   7  -6  375.10   35.45   1
  -5   7   6  351.30   34.02   1
  -5   7   6  464.50   43.87   1
   5  -7  -5  138.00   15.02   1
   5  -7  -5  148.50   14.43   1
  -5  -7   5  163.10   16.35   1
  -5  -7   5  160.40   15.39   1
   5   7  -5  167.00   19.23   1
   5   7  -5  154.00   14.80   1
  -5   7   5  143.70   13.93   1
  -5   7   5  158.80   16.23   1
   5  -7  -4  468.80   45.27   1
   5  -7  -4  549.20   51.86   1
  -5  -7   4  549.40   51.76   1
   5   7  -4  533.00   52.14   1
  -5   7   4  508.40   48.05   1
  -5   7   4  461.30   44.11   1
   5  -7  -3 1820.00  171.70   1
   5  -7  -3 1760.00  165.30   1
  -5  -7   3 1819.00  171.00   1
  -5  -7   3 1754.00  164.60   1
   5   7  -3 1774.00  167.80   1
   5   7  -3 1764.00  165.50   1
  -5   7   3 1784.00  167.60   1
  -5   7   3 1777.00  167.30   1
   5  -7  -2 5594.00  525.00   1
   5  -7  -2 6364.00  596.50   1
  -5  -7   2 6168.00  578.20   1
   5   7  -2 5824.00  545.90   1
  -5   7   2 6209.00  582.20   1
  -5   7   2 5372.00  503.60   1
   5  -7  -1 1062.00  100.80   1
   5  -7  -1 1223.00  115.00   1
  -5  -7   1 1178.00  110.90   1
   5   7  -1 1199.00  112.60   1
  -5   7   1 1205.00  113.60   1
  -5   7   1  990.70   93.37   1
   5  -7   0  162.60   17.13   1
  -5  -7   0  185.10   18.06   1
   5   7   0  213.50   20.49   1
  -5   7   0  168.80   16.96   1
   5  -7   1   20.83   3.725   1
  -5  -7  -1   9.044   2.819   1
   5   7   1   4.938   2.277   1
  -5   7  -1   11.83   3.888   1
   5  -7   2  467.50   45.35   1
   5  -7   2  482.50   45.77   1
  -5  -7  -2  499.60   47.31   1
   5   7   2  556.30   52.54   1
  -5   7  -2  543.50   51.67   1
  -5   7  -2  430.10   41.33   1
   5  -7   3  426.80   40.63   1
   5  -7   3  387.20   38.16   1
  -5  -7  -3  389.00   36.99   1
   5   7   3  333.30   31.72   1
  -5   7  -3  351.80   33.83   1
  -5   7  -3  445.90   42.97   1
   5  -7   4   92.37   9.879   1
   5  -7   4   66.36    9.96   1
  -5  -7  -4   92.13   9.786   1
   5   7   4   73.09   8.032   1
  -5   7  -4   94.97   11.34   1
  -5   7  -4   58.41   7.174   1
   5  -7   5    7.86   4.041   1
   5  -7   5   1.331   7.365   1
  -5  -7  -5   5.724   4.284   1
   5   7   5   6.414   4.148   1
  -5   7  -5 -0.2827   1.247   1
  -5   7  -5   4.093   4.038   1
   5  -7   6   9.425   8.723   1
  -5  -7  -6   4.736   1.785   1
  -5  -7  -6   3.267   4.599   1
   5   7   6    5.72   4.653   1
   5   7   6   8.947   6.049   1
  -5   7  -6   6.675   1.622   1
   5  -7   7  447.80   45.99   1
   5  -7   7  433.50   41.76   1
  -5  -7  -7  376.40   36.76   1
  -5  -7  -7  417.20   39.43   1
   5   7   7  503.90   48.95   1
  -5   7  -7  411.30   39.65   1
  -5   7  -7  467.20   44.08   1
   5  -7   8  297.10   29.21   1
   5  -7   8  272.80   30.83   1
  -5  -7  -8  329.00   33.99   1
   5   7   8  363.00   37.37   1
  -5   7  -8  298.80   29.33   1
  -5   7  -8  288.30   27.36   1
   5  -7   9  286.10   28.68   1
   5  -7   9  262.10   31.19   1
  -5  -7  -9  235.10   22.56   1
  -5  -7  -9  229.00   27.03   1
   5   7   9  201.80   23.52   1
   5   7   9  275.70   33.38   1
  -5   7  -9  235.70   22.45   1
  -5   7  -9  232.00   23.27   1
   5  -7  10   10.40   14.37   1
   5  -7  10   32.38   9.097   1
  -5   7 -10   34.78   7.921   1
  -5   7 -10   27.33    3.30   1
  -5  -8  12  -15.92   19.35   1
  -5  -8  12   2.467   8.634   1
   5   8 -12   5.853   5.125   1
  -5  -8  11 -0.8143   2.275   1
  -5  -8  11   7.022   6.537   1
   5   8 -11   8.034   13.04   1
   5   8 -11   3.444   2.868   1
  -5  -8  10 -0.4524   5.033   1
  -5  -8  10  -2.891   2.073   1
   5   8 -10   16.59   13.23   1
  -5  -8   9   1.652   1.914   1
  -5  -8   9  0.5039   4.657   1
   5   8  -9   6.073   11.63   1
   5   8  -9   5.808   1.922   1
   5  -8  -8   9.266   5.925   1
  -5  -8   8   15.62   4.951   1
  -5  -8   8   16.59    2.69   1
   5   8  -8   15.07   2.355   1
   5   8  -8   17.55   11.73   1
   5  -8  -7  0.9855    2.77   1
  -5  -8   7   8.189   2.074   1
  -5  -8   7   -3.84   3.746   1
   5   8  -7   4.354   9.167   1
   5   8  -7   7.914    1.87   1
  -5   8   7   5.738   1.624   1
  -5   8   7   9.563   1.669   1
   5  -8  -6   2.791   2.336   1
   5  -8  -6    8.57   5.986   1
  -5  -8   6   7.013   1.919   1
  -5  -8   6   4.804   3.846   1
   5   8  -6   2.191   7.846   1
   5   8  -6   4.751   1.678   1
  -5   8   6   6.523   2.215   1
  -5   8   6   6.961   1.332   1
   5  -8  -5   1.699   2.257   1
   5  -8  -5   1.055   5.416   1
  -5  -8   5   3.215   1.659   1
  -5  -8   5   2.339   3.616   1
   5   8  -5   2.371   1.556   1
   5   8  -5  -4.809   8.008   1
  -5   8   5   3.411   4.737   1
  -5   8   5    5.01   2.232   1
   5  -8  -4   6.665    5.62   1
   5  -8  -4   13.95   3.066   1
  -5  -8   4   26.59   3.191   1
  -5  -8   4   16.36   3.964   1
   5   8  -4   14.39   8.338   1
   5   8  -4   24.45   2.987   1
  -5   8   4   23.07   3.742   1
  -5   8   4   11.31   4.888   1
   5  -8  -3   29.59   6.126   1
   5  -8  -3   30.18   4.477   1
  -5  -8   3   40.27   5.484   1
   5   8  -3   33.49   8.181   1
  -5   8   3   49.96   6.006   1
   5  -8  -2  0.2768   2.862   1
   5  -8  -2  0.1615   4.611   1
  -5  -8   2    8.03   1.822   1
   5   8  -2   7.403   6.221   1
  -5   8   2   11.64   3.587   1
  -5   8   2 -0.8454   3.873   1
   5  -8  -1   5.025   4.952   1
   5   8  -1 -0.8829   5.383   1
  -5   8   1  -1.483   3.635   1
   5  -8   0  0.7131   2.841   1
  -5  -8   0    6.33   1.634   1
  -5  -8   0   5.206   2.928   1
   5   8   0   5.656   2.082   1
   5   8   0  -4.318   4.483   1
  -5   8   0   3.536   3.458   1
   5  -8   1   11.56   5.705   1
   5  -8   1   1.198    2.80   1
  -5  -8  -1 -0.0836   2.852   1
  -5  -8  -1    1.65   1.472   1
   5   8   1   6.122   4.473   1
   5   8   1   1.647   2.119   1
  -5   8  -1   2.358   4.083   1
  -5   8  -1  0.8541   3.587   1
   5  -8   2   78.30   8.429   1
   5  -8   2  101.20   12.19   1
  -5  -8  -2   90.56   9.577   1
  -5   8  -2   57.69   7.954   1
   5  -8   3  -6.312    6.43   1
   5  -8   3   2.224   3.275   1
  -5  -8  -3   6.278   1.769   1
  -5  -8  -3   4.565   2.895   1
   5   8   3    2.36   2.517   1
   5   8   3  0.6958   4.464   1
  -5   8  -3   8.465   5.297   1
  -5   8  -3   1.771   4.001   1
   5  -8   4  -6.915   7.316   1
   5  -8   4  -1.786   3.508   1
  -5  -8  -4   9.569   2.011   1
   5   8   4   2.995   2.872   1
   5   8   4   3.816   4.911   1
  -5   8  -4  0.6706   4.185   1
   5  -8   5   3.629   3.974   1
   5  -8   5  -13.21   8.019   1
  -5  -8  -5   1.338   1.638   1
   5   8   5   2.567   5.453   1
  -5   8  -5  -5.711   4.276   1
   5  -8   6   3.323   3.913   1
  -5  -8  -6   3.819   1.746   1
   5   8   6  0.6281   6.784   1
  -5   8  -6   5.907   4.313   1
   5  -8   7    7.52   4.727   1
   5  -8   7   4.073   9.932   1
  -5   8  -7  -1.661   4.569   1
  -5   8  -7    0.40   1.411   1
   5  -8   8  -14.33   11.49   1
   5  -8   8    2.96   5.188   1
  -5  -8  -8  -2.096   10.58   1
   5   8   8   15.40   10.71   1
  -5   8  -8 -0.6048   4.892   1
  -5   8  -8  0.9452   1.409   1
   5  -8   9  -4.368   6.125   1
   5  -8   9   5.783   13.13   1
  -5  -8  -9   8.211   14.41   1
  -5  -8  -9  0.9996   2.292   1
   5   8   9   19.01   12.35   1
   5   8   9 -0.4998   15.15   1
  -5   8  -9  -1.031   5.195   1
   5  -8  10  -2.103   13.94   1
   5  -8  10  0.3324   8.274   1
  -5   8 -10  -1.176   1.455   1
  -5   8 -10   2.091   6.673   1
  -5  -9  11  132.20   15.76   1
  -5  -9  11  107.30   10.83   1
   5   9 -11  137.60   13.76   1
   5   9 -11  138.60   22.03   1
  -5  -9  10   22.79   6.787   1
  -5  -9  10   30.80    3.90   1
   5   9 -10   31.24   3.867   1
   5   9 -10   17.49   13.73   1
  -5  -9   9   5.174   1.977   1
   5   9  -9   23.05   13.32   1
   5  -9  -8  221.20   21.34   1
   5  -9  -8  219.70   22.21   1
  -5  -9   8  234.70   23.56   1
   5   9  -8  229.70   21.90   1
  -5   9   8  234.70   22.13   1
  -5   9   8  239.90   22.61   1
   5  -9  -7  177.00   17.25   1
   5  -9  -7  194.50   21.34   1
  -5  -9   7  150.20   14.54   1
  -5  -9   7  183.70   18.74   1
   5   9  -7  153.30   14.77   1
   5   9  -7  158.40   20.31   1
  -5   9   7  190.30   18.20   1
   5  -9  -6  500.40   48.96   1
   5  -9  -6  513.10   48.51   1
  -5  -9   6  523.50   50.06   1
  -5  -9   6  531.50   50.12   1
   5   9  -6  505.50   47.67   1
   5   9  -6  459.10   46.34   1
  -5   9   6  484.40   45.59   1
  -5   9   6  496.40   46.87   1
   5  -9  -5  433.80   41.14   1
   5  -9  -5  371.60   36.72   1
  -5  -9   5  447.90   42.96   1
  -5  -9   5  450.20   42.50   1
   5   9  -5  382.20   39.08   1
   5   9  -5  425.10   40.14   1
  -5   9   5  431.50   40.90   1
  -5   9   5  412.50   38.88   1
   5  -9  -4   93.63   11.60   1
   5  -9  -4  114.40   11.57   1
  -5  -9   4  121.70   12.85   1
  -5  -9   4  142.00   13.70   1
   5   9  -4  117.40   11.39   1
   5   9  -4   94.67   14.20   1
  -5   9   4  119.70   12.10   1
   5  -9  -3 3040.00  286.00   1
   5  -9  -3 3700.00  347.00   1
  -5  -9   3 3560.00  334.20   1
  -5  -9   3 3558.00  333.50   1
   5   9  -3 3602.00  339.30   1
   5   9  -3 3394.00  318.20   1
  -5   9   3 3427.00  321.90   1
  -5   9   3 3298.00  309.40   1
   5  -9  -2 1408.00  133.20   1
  -5  -9   2 1624.00  152.40   1
  -5  -9   2 1705.00  160.40   1
   5   9  -2 1733.00  164.20   1
   5   9  -2 1599.00  150.10   1
  -5   9   2 1610.00  151.80   1
   5  -9  -1 1964.00  184.40   1
  -5  -9   1 2260.00  212.30   1
  -5  -9   1 2113.00  198.20   1
   5   9  -1 2149.00  201.60   1
   5   9  -1 2213.00  209.00   1
  -5   9   1 1896.00  178.20   1
   5  -9   0  326.90   32.37   1
   5  -9   0  367.90   35.08   1
  -5  -9   0  372.70   35.64   1
  -5  -9   0  323.00   30.59   1
   5   9   0  360.50   34.15   1
   5   9   0  349.70   34.74   1
  -5   9   0  418.20   40.32   1
  -5   9   0  369.50   35.52   1
   5  -9   1   51.09   8.816   1
   5  -9   1   61.39   6.971   1
  -5  -9  -1   39.73   4.302   1
  -5  -9  -1   35.10   4.915   1
   5   9   1   42.15   4.926   1
   5   9   1   32.25   7.108   1
  -5   9  -1   53.05   6.955   1
  -5   9  -1   47.22   6.855   1
   5  -9   2 1478.00  139.00   1
   5  -9   2 1469.00  139.30   1
  -5  -9  -2 1614.00  151.70   1
  -5  -9  -2 1772.00  166.30   1
   5   9   2 1615.00  152.70   1
  -5   9  -2 1474.00  139.10   1
  -5   9  -2 1577.00  148.60   1
   5  -9   3  573.40   54.42   1
   5  -9   3  513.60   50.27   1
  -5  -9  -3  613.60   58.08   1
  -5  -9  -3  622.90   58.65   1
   5   9   3  604.60   58.30   1
  -5   9  -3  529.10   49.84   1
  -5   9  -3  562.40   53.68   1
   5  -9   4  426.00   42.58   1
   5  -9   4  425.60   40.69   1
  -5  -9  -4  461.90   43.92   1
  -5  -9  -4  435.20   41.10   1
   5   9   4  400.00   39.43   1
  -5   9  -4  404.00   38.94   1
  -5   9  -4  335.70   31.75   1
   5  -9   5   27.14   5.303   1
   5  -9   5   26.00   9.958   1
  -5  -9  -5   23.52   3.086   1
  -5  -9  -5   25.18    5.14   1
   5   9   5   21.54   7.715   1
   5  -9   6   95.10   10.60   1
   5  -9   6  105.30   15.96   1
  -5  -9  -6   95.04   11.05   1
  -5  -9  -6   91.36   9.048   1
   5   9   6   91.92   14.61   1
  -5   9  -6   88.73   10.20   1
  -5   9  -6   93.57   9.206   1
   5  -9   7  266.70   26.31   1
   5  -9   7  293.80   32.20   1
  -5  -9  -7  281.70   26.77   1
   5   9   7  311.90   34.36   1
  -5   9  -7  256.10   25.33   1
  -5   9  -7  303.90   28.81   1
   5  -9   8  627.20   63.38   1
  -5  -9  -8  697.20   67.91   1
   5   9   8  887.70   86.21   1
  -5   9  -8  669.60   63.06   1
   5  -9   9  212.10   22.17   1
   5  -9   9  191.20   25.39   1
  -5  -9  -9  195.40   18.92   1
  -5  -9  -9  229.20   29.11   1
   5   9   9  152.60   20.88   1
   5   9   9  191.20   26.69   1
  -5   9  -9  208.50   19.95   1
  -5   9  -9  226.40   23.23   1
   5  -9  10   37.06   15.33   1
  -5   9 -10   32.31   3.734   1
  -5   9 -10   28.31    8.17   1
  -5 -10  11  -2.174   6.911   1
   5  10 -11   3.639   2.403   1
  -5 -10  10  -2.227   2.008   1
  -5 -10  10   5.397   6.067   1
   5  10 -10   13.12   14.21   1
   5  10 -10  -3.486   1.951   1
  -5 -10   9   1.548   1.786   1
  -5 -10   9   7.984   5.451   1
   5  10  -9 0.00132   13.38   1
   5  10  -9  0.4952   1.741   1
   5 -10  -8    4.56   5.281   1
   5 -10  -8 -0.1876   2.931   1
  -5 -10   8   5.284   4.982   1
  -5 -10   8   -0.59   1.953   1
   5  10  -8  -30.28   11.72   1
   5  10  -8  0.7741   1.659   1
  -5  10   8   1.753   1.051   1
  -5  10   8   1.806    1.01   1
   5 -10  -7   5.242   7.624   1
   5 -10  -7  0.2797   2.589   1
  -5 -10   7   2.889   4.513   1
   5  10  -7   -0.25    1.55   1
   5  10  -7   17.03   11.59   1
  -5  10   7-0.01788   2.059   1
  -5  10   7  -1.011   1.343   1
   5 -10  -6  -2.135   2.602   1
   5 -10  -6   9.266   7.653   1
  -5 -10   6   2.182    1.80   1
  -5 -10   6  -4.441   3.918   1
   5  10  -6   3.162   1.557   1
   5  10  -6  -1.645   9.209   1
  -5  10   6   1.352   1.184   1
  -5  10   6 -0.1111   2.289   1
   5 -10  -5   7.769   7.224   1
   5 -10  -5  -1.533   3.047   1
  -5 -10   5  0.7961   4.004   1
  -5 -10   5   1.953   1.716   1
   5  10  -5   10.20   9.834   1
   5  10  -5 -0.6121   1.451   1
  -5  10   5   2.009   1.296   1
  -5  10   5   1.638   3.079   1
   5 -10  -4   10.61   6.614   1
   5 -10  -4   7.403   3.354   1
  -5 -10   4   6.883   4.292   1
  -5 -10   4   8.698   1.982   1
   5  10  -4   3.204   9.725   1
   5  10  -4   9.452   1.933   1
  -5  10   4   9.012   1.706   1
  -5  10   4   8.289   3.449   1
   5 -10  -3   20.21   6.978   1
  -5 -10   3   26.04   4.853   1
  -5 -10   3   38.47   4.289   1
   5  10  -3   25.17    9.18   1
   5  10  -3   37.27    4.10   1
   5 -10  -2   1.895   3.113   1
  -5 -10   2  0.9144   1.582   1
  -5 -10   2 -0.6903    3.29   1
   5  10  -2 -0.4408   1.493   1
   5  10  -2  -5.096   7.728   1
  -5  10   2  0.5381   3.407   1
   5 -10  -1  -3.237   5.845   1
   5 -10  -1 -0.5518   2.759   1
  -5 -10   1  -0.292   3.156   1
  -5 -10   1   10.04   2.015   1
   5  10  -1  -2.722   7.493   1
   5  10  -1   9.775   2.004   1
  -5  10   1   1.861   4.529   1
  -5  10   1   2.759   3.731   1
   5 -10   0  0.9544   6.553   1
   5 -10   0    4.68   3.028   1
  -5 -10   0   1.195   3.017   1
  -5 -10   0   1.556   1.602   1
   5  10   0   3.198   1.845   1
   5  10   0   5.354   7.521   1
  -5  10   0  -2.213   3.945   1
  -5  10   0  -2.593   4.976   1
   5 -10   1   17.18   7.103   1
  -5 -10  -1   8.647   3.312   1
  -5 -10  -1   9.895   2.039   1
   5  10   1   14.99   8.326   1
   5  10   1   8.074   2.318   1
  -5  10  -1   3.179   4.364   1
  -5  10  -1   13.71   2.016   1
   5 -10   2   31.17    8.18   1
   5 -10   2   18.73   4.184   1
  -5 -10  -2   32.70    4.74   1
   5  10   2   27.65   8.968   1
  -5  10  -2   48.22   6.987   1
   5 -10   3  154.90   18.18   1
  -5 -10  -3  136.60   13.80   1
   5  10   3  123.40   15.69   1
  -5  10  -3  174.70   17.87   1
   5 -10   4   5.094   4.322   1
   5 -10   4   23.74    9.04   1
  -5 -10  -4   15.87   2.483   1
  -5 -10  -4   10.24   3.452   1
   5  10   4   7.622   8.399   1
   5  10   4   12.81   2.913   1
  -5  10  -4   14.92   2.133   1
  -5  10  -4   15.67   4.973   1
  -5 -10  -5  0.5396   1.762   1
  -5 -10  -5  -3.324   3.847   1
   5  10   5   4.388   3.255   1
   5  10   5   1.183   9.673   1
  -5  10  -5   5.559   4.705   1
  -5  10  -5 -0.4458    1.45   1
   5 -10   6   2.411   9.321   1
   5 -10   6    0.51    4.33   1
  -5 -10  -6   1.345   1.767   1
  -5 -10  -6  -1.174   5.016   1
   5  10   6  -3.814   11.49   1
   5  10   6  -2.638   4.596   1
  -5  10  -6   2.232   4.505   1
  -5  10  -6   1.133   1.455   1
   5 -10   7   3.108   4.869   1
   5 -10   7  -3.214   10.26   1
  -5 -10  -7  0.9193   1.773   1
  -5 -10  -7   1.932   5.661   1
   5  10   7  -1.835   5.484   1
   5  10   7  -16.46   14.01   1
  -5  10  -7  0.2351   1.428   1
  -5  10  -7  -2.248   4.664   1
   5 -10   8   9.445   5.865   1
   5 -10   8   2.368   12.59   1
  -5 -10  -8   1.826   2.152   1
   5  10   8   5.291   10.35   1
   5  10   8    1.56   17.23   1
  -5  10  -8   3.749   5.099   1
  -5  10  -8   3.043   1.554   1
   5 -10   9   1.858   13.76   1
   5 -10   9   1.669    7.27   1
  -5 -10  -9   11.86   16.95   1
  -5  10  -9   3.288   5.966   1
  -5  10  -9   5.848   1.749   1
   5 -10  10   9.654   10.23   1
   5 -10  10   3.252   12.19   1
  -5  10 -10    7.57   2.059   1
  -5  10 -10   9.492   7.034   1
  -5 -11  11   90.21   9.252   1
  -5 -11  11   90.80   12.71   1
   5  11 -11  123.90   22.00   1
   5  11 -11   86.82   9.011   1
  -5 -11  10   30.20   7.623   1
   5  11 -10   35.21   16.74   1
   5  11 -10   23.24   3.397   1
  -5 -11   9   42.67   7.574   1
  -5 -11   9   29.40    3.69   1
   5  11  -9   19.76   14.35   1
   5  11  -9   32.20   3.835   1
   5 -11  -8  707.20   67.68   1
   5 -11  -8  807.80   76.21   1
  -5 -11   8  767.30   73.20   1
  -5 -11   8  811.50   76.39   1
   5  11  -8  751.00   75.30   1
   5  11  -8  669.00   63.04   1
  -5  11   8  688.50   64.67   1
  -5  11   8  718.50   67.48   1
   5 -11  -7  878.50   82.78   1
   5 -11  -7  968.20   93.12   1
  -5 -11   7  935.50   87.98   1
  -5 -11   7  909.00   86.37   1
   5  11  -7  918.50   90.16   1
   5  11  -7  863.60   81.24   1
  -5  11   7  937.10   88.16   1
  -5  11   7  880.60   82.73   1
   5 -11  -6  253.20   24.38   1
   5 -11  -6  262.60   28.05   1
  -5 -11   6  251.50   23.97   1
  -5 -11   6  256.30   25.79   1
   5  11  -6  251.40   28.59   1
  -5  11   6  225.90   21.74   1
  -5  11   6  241.50   22.92   1
   5 -11  -5  315.20   32.66   1
   5 -11  -5  323.60   31.11   1
  -5 -11   5  332.20   32.41   1
   5  11  -5  319.50   30.28   1
  -5  11   5  334.00   32.06   1
  -5  11   5  311.30   29.44   1
   5 -11  -4   94.95   13.23   1
  -5 -11   4   76.71    9.06   1
  -5 -11   4   93.59   9.252   1
   5  11  -4   73.25   12.88   1
   5  11  -4   83.76   8.321   1
  -5  11   4  104.00   10.11   1
   5 -11  -3  669.70   63.33   1
  -5 -11   3  727.00   69.06   1
  -5 -11   3  697.90   65.69   1
   5  11  -3  680.70   64.07   1
   5  11  -3  771.10   75.13   1
  -5  11   3  629.00   59.66   1
   5 -11  -2 3045.00  285.70   1
   5 -11  -2 3051.00  287.60   1
  -5 -11   2 3143.00  294.70   1
  -5 -11   2 3406.00  319.90   1
   5  11  -2 2795.00  262.10   1
   5  11  -2 3395.00  320.40   1
  -5  11   2 2819.00  264.70   1
  -5  11   2 2768.00  259.50   1
   5 -11  -1  469.30   44.63   1
   5 -11  -1  484.10   47.63   1
  -5 -11   1  499.90   47.73   1
  -5 -11   1  502.60   47.42   1
   5  11  -1  451.60   42.64   1
   5  11  -1  533.40   53.05   1
  -5  11   1  482.00   46.17   1
  -5  11   1  421.60   39.79   1
   5 -11   0   1.704   3.247   1
   5 -11   0   1.345   7.505   1
  -5 -11   0    6.45   1.937   1
  -5 -11   0   5.727   3.478   1
   5  11   0    5.85   1.941   1
   5  11   0  -9.312   9.053   1
  -5  11   0   7.328   1.679   1
  -5  11   0   9.668   4.331   1
   5 -11   1   46.49   9.471   1
  -5 -11  -1   33.95   4.984   1
  -5 -11  -1   25.48   3.208   1
   5  11   1   54.51   11.84   1
   5  11   1   26.38   3.491   1
  -5  11  -1   40.22   6.519   1
   5 -11   2 1292.00  121.70   1
   5 -11   2 1559.00  148.20   1
  -5 -11  -2 1555.00  146.30   1
  -5 -11  -2 1834.00  172.10   1
   5  11   2 1962.00  184.30   1
   5  11   2 1724.00  163.80   1
  -5  11  -2 1832.00  171.90   1
  -5  11  -2 1712.00  161.40   1
   5 -11   3 2079.00  195.50   1
   5 -11   3 2133.00  202.10   1
  -5 -11  -3 2014.00  189.00   1
  -5 -11  -3 2091.00  196.50   1
   5  11   3 2327.00  220.30   1
   5  11   3 2026.00  190.30   1
  -5  11  -3 1687.00  158.30   1
  -5  11  -3 2118.00  199.50   1
   5 -11   4  436.90   44.33   1
   5 -11   4  403.00   38.74   1
  -5 -11  -4  397.20   37.93   1
  -5 -11  -4  426.30   40.29   1
   5  11   4  356.20   33.93   1
   5  11   4  503.20   50.71   1
  -5  11  -4  358.70   33.93   1
  -5  11  -4  421.80   40.88   1
   5 -11   5   18.41   4.992   1
   5 -11   5   17.18   9.766   1
  -5 -11  -5   17.89   4.563   1
  -5 -11  -5   21.46   2.952   1
   5  11   5   17.86   3.718   1
   5  11   5   26.28   12.19   1
  -5  11  -5   11.64   5.217   1
  -5  11  -5   19.74   2.544   1
   5 -11   6   43.82   12.08   1
   5 -11   6   31.15   5.838   1
  -5 -11  -6   35.53   4.103   1
  -5 -11  -6   30.12    6.25   1
   5  11   6   47.38   14.96   1
   5  11   6   30.89   5.942   1
  -5  11  -6   32.98   6.153   1
  -5  11  -6   44.91   4.773   1
   5 -11   7  382.50   37.14   1
  -5 -11  -7  425.90   40.30   1
  -5 -11  -7  422.40   41.06   1
   5  11   7  423.30   45.97   1
   5  11   7  434.20   42.21   1
  -5  11  -7  411.30   38.88   1
  -5  11  -7  419.20   40.62   1
   5 -11   8  493.30   51.35   1
   5 -11   8  522.80   50.53   1
  -5 -11  -8  547.50   51.77   1
   5  11   8  520.60   55.92   1
  -5  11  -8  543.30   51.24   1
  -5  11  -8  555.00   53.43   1
   5 -11   9  284.90   29.21   1
  -5  11  -9  233.20   22.31   1
  -5  11  -9  263.40   26.86   1
   5 -11  10   2.624   6.885   1
  -5  11 -10  -1.522   2.747   1
  -5 -12  11  -2.746   7.697   1
  -5 -12  11  0.1811   2.243   1
   5  12 -11  -1.682   14.50   1
   5  12 -11   4.275   2.441   1
  -5 -12  10   2.352   6.764   1
  -5 -12  10  0.6141   1.998   1
   5  12 -10   1.399   2.024   1
   5  12 -10   -7.67   15.21   1
  -5 -12   9  0.7094   5.798   1
  -5 -12   9  0.9052   1.988   1
   5  12  -9   7.054   14.50   1
   5 -12  -8  -6.649   6.924   1
  -5 -12   8   7.678   5.507   1
  -5 -12   8    3.90   1.977   1
   5  12  -8  -1.765   12.97   1
   5  12  -8   7.189   1.905   1
  -5  12   8   6.562   1.522   1
  -5  12   8    4.40   1.593   1
   5 -12  -7   1.664   7.567   1
   5 -12  -7 -0.9078   2.959   1
  -5 -12   7   4.101   1.978   1
  -5 -12   7  0.2971   4.535   1
   5  12  -7   3.795    1.74   1
   5  12  -7  -1.174   12.16   1
  -5  12   7 -0.9078   2.372   1
  -5  12   7  0.9719   1.418   1
   5 -12  -6   6.028   3.407   1
   5 -12  -6   12.63   9.019   1
  -5 -12   6   12.25   4.846   1
  -5 -12   6   19.05   2.932   1
   5  12  -6   8.482   11.85   1
   5  12  -6   16.68   2.535   1
  -5  12   6   17.25    2.46   1
  -5  12   6   16.13   3.655   1
   5 -12  -5  -10.77   9.079   1
  -5 -12   5 -0.5434   1.843   1
   5  12  -5  -8.166   10.79   1
   5  12  -5  -1.489   1.605   1
  -5  12   5  -0.768   1.382   1
   5 -12  -4  -1.224   3.683   1
   5 -12  -4  0.6372   8.658   1
  -5 -12   4  0.9195   1.883   1
  -5 -12   4 -0.6228   4.176   1
   5  12  -4   3.559   1.665   1
   5  12  -4  -17.48   9.927   1
  -5  12   4  -1.133   3.916   1
   5 -12  -3  -5.096   3.447   1
   5 -12  -3  -2.811   7.988   1
  -5 -12   3   0.928    1.75   1
  -5 -12   3   -2.61   3.835   1
   5  12  -3   3.114   1.728   1
   5  12  -3  -6.736   8.717   1
  -5  12   3  -1.139   4.011   1
  -5  12   3   6.894   1.665   1
   5 -12  -2   6.121   3.597   1
   5 -12  -2 -0.8778   7.662   1
  -5 -12   2   9.582   2.066   1
  -5 -12   2    7.10   4.128   1
   5  12  -2   12.84   9.827   1
   5  12  -2   8.338   1.944   1
  -5  12   2    2.97   4.239   1
  -5  12   2   10.95   1.905   1
   5 -12  -1  0.1731   3.566   1
   5 -12  -1   11.05   7.993   1
  -5 -12   1  -3.098   3.617   1
  -5 -12   1  0.9778   1.709   1
   5  12  -1   9.257   9.581   1
   5  12  -1   3.081    1.71   1
  -5  12   1   2.071   1.424   1
  -5  12   1  -2.417   4.462   1
   5 -12   0   -4.15   8.338   1
   5 -12   0 -0.4122   3.532   1
  -5 -12   0  0.2085   1.714   1
  -5 -12   0    7.76   3.818   1
   5  12   0  0.6004   1.872   1
   5  12   0   12.37   10.35   1
  -5  12   0 -0.3793   4.644   1
  -5  12   0   1.138   1.457   1
   5 -12   1  -1.824   3.779   1
   5 -12   1   3.251   8.389   1
   5  12   1  -8.912   9.528   1
   5  12   1   1.482   2.036   1
  -5  12  -1   7.886   5.056   1
  -5  12  -1  -1.614   1.422   1
   5 -12   2   1.405   4.097   1
   5 -12   2   4.386   8.842   1
  -5 -12  -2   5.353   1.865   1
  -5 -12  -2    5.71   3.414   1
   5  12   2    3.44   2.356   1
   5  12   2  -0.612   9.876   1
  -5  12  -2   5.102   4.793   1
  -5  12  -2    5.79   1.659   1
   5 -12   3   32.60   10.10   1
  -5 -12  -3   67.31   6.911   1
   5  12   3   66.06   7.199   1
   5  12   3   28.44   11.50   1
  -5  12  -3   53.61   7.888   1
   5 -12   4   5.108   4.321   1
   5 -12   4   11.83    9.16   1
  -5 -12  -4   3.884   3.451   1
  -5 -12  -4   8.634   2.155   1
   5  12   4   9.816   11.45   1
   5  12   4   12.15   3.089   1
  -5  12  -4   16.48   5.404   1
  -5  12  -4   13.23   2.009   1
   5 -12   5   8.473   4.897   1
   5 -12   5   22.98   10.13   1
  -5 -12  -5   20.57   2.918   1
  -5 -12  -5   7.843   3.872   1
   5  12   5   13.45   12.19   1
   5  12   5   14.19   3.429   1
  -5  12  -5   20.81   2.647   1
  -5  12  -5   17.81   5.586   1
   5 -12   6  -2.541   10.70   1
   5 -12   6  -2.086   4.647   1
  -5 -12  -6 -0.9573   1.765   1
  -5 -12  -6   2.637   5.791   1
   5  12   6  -2.607   14.11   1
   5  12   6   1.773   4.418   1
  -5  12  -6  -2.687   4.886   1
   5 -12   7  -5.243   4.954   1
   5 -12   7  -1.136   11.97   1
  -5 -12  -7  -4.136   6.555   1
  -5 -12  -7  0.7001   2.196   1
   5  12   7   18.82   15.26   1
   5  12   7  -7.911   5.972   1
  -5  12  -7   1.083   5.334   1
  -5  12  -7   -1.89   1.438   1
   5 -12   8   -5.04   12.23   1
  -5 -12  -8  -5.793   8.983   1
  -5 -12  -8 -0.2084   2.448   1
   5  12   8   -3.40   17.53   1
  -5  12  -8   1.154   1.514   1
   5 -12   9  -5.779   13.16   1
   5 -12   9  -3.582   7.697   1
  -5  12  -9  -6.788   6.545   1
  -5  12  -9   4.695   1.747   1
  -5 -13  11   87.56   9.479   1
  -5 -13  11   92.25   13.31   1
   5  13 -11  113.00   11.65   1
   5  13 -11   80.50   15.30   1
  -5 -13  10   7.227   2.324   1
  -5 -13  10   20.87   7.851   1
   5  13 -10   16.31   16.97   1
   5  13 -10   17.76   2.956   1
  -5 -13   9   67.25   9.945   1
  -5 -13   9   72.95   7.571   1
   5  13  -9   59.43   6.328   1
   5  13  -9   76.76   19.02   1
   5 -13  -8  655.30   62.14   1
  -5 -13   8  628.70   59.30   1
  -5 -13   8  557.30   54.16   1
   5  13  -8  659.20   67.66   1
  -5  13   8  605.10   56.93   1
   5 -13  -7  445.20   44.62   1
   5 -13  -7  476.70   45.31   1
  -5 -13   7  501.00   48.47   1
  -5 -13   7  500.60   47.29   1
   5  13  -7  463.00   43.77   1
   5  13  -7  494.20   51.94   1
  -5  13   7  399.40   37.92   1
  -5  13   7  448.90   42.36   1
   5 -13  -6  210.70   24.40   1
  -5 -13   6  219.50   22.43   1
  -5 -13   6  219.90   21.05   1
   5  13  -6  213.40   27.13   1
   5  13  -6  200.80   19.35   1
  -5  13   6  204.30   19.51   1
   5 -13  -5   66.10   12.87   1
   5 -13  -5   59.82   7.453   1
  -5 -13   5   69.66   7.154   1
  -5 -13   5   71.69    9.26   1
   5  13  -5   71.49    7.25   1
   5  13  -5   41.81   13.36   1
  -5  13   5   71.13   8.391   1
   5 -13  -4   32.50   10.68   1
   5 -13  -4   35.48   5.508   1
  -5 -13   4   43.86   4.816   1
  -5 -13   4   30.41   6.011   1
   5  13  -4   30.37   3.588   1
   5  13  -4   30.72   11.89   1
  -5  13   4   39.53   5.952   1
  -5  13   4   49.34   5.155   1
   5 -13  -3  405.50   41.28   1
   5 -13  -3  386.00   37.02   1
  -5 -13   3  349.80   33.14   1
   5  13  -3  359.70   37.71   1
  -5  13   3  340.80   32.26   1
  -5  13   3  355.70   34.45   1
   5 -13  -2   59.00   11.69   1
   5 -13  -2   45.42   6.188   1
  -5 -13   2   49.72   6.906   1
  -5 -13   2   59.51   6.215   1
   5  13  -2   59.23   6.144   1
   5  13  -2   35.07   11.09   1
  -5  13   2   48.29   7.257   1
  -5  13   2   65.79   6.632   1
   5 -13  -1   40.94   10.45   1
  -5 -13   1   43.02   6.302   1
   5  13  -1   39.61   4.437   1
  -5  13   1   30.63   3.506   1
  -5  13   1   40.16   6.875   1
   5 -13   0  101.60   11.20   1
   5 -13   0  137.50   17.66   1
  -5 -13   0  118.30   11.56   1
  -5 -13   0  127.00   13.35   1
   5  13   0  128.00   17.30   1
   5  13   0  115.50   11.32   1
  -5  13   0  119.60   13.58   1
  -5  13   0  105.60   10.32   1
   5 -13   1   23.18   5.239   1
  -5 -13  -1   28.84   3.543   1
  -5 -13  -1   22.11   4.681   1
   5  13   1   25.94    3.42   1
   5  13   1   21.28   11.60   1
  -5  13  -1   28.63   3.525   1
  -5  13  -1   23.15   6.307   1
   5 -13   2  827.60   80.45   1
   5 -13   2  788.00   74.76   1
  -5 -13  -2  849.10   79.87   1
  -5 -13  -2  843.50   79.82   1
   5  13   2  820.60   80.27   1
   5  13   2  856.80   80.69   1
  -5  13  -2  815.40   76.68   1
  -5  13  -2  892.40   85.00   1
   5 -13   3  727.00   71.08   1
   5 -13   3  719.10   68.36   1
  -5 -13  -3  709.90   67.28   1
  -5 -13  -3  752.60   70.85   1
   5  13   3  691.50   68.38   1
   5  13   3  808.50   76.26   1
  -5  13  -3  797.30   76.13   1
  -5  13  -3  660.50   62.18   1
   5 -13   4  995.90   96.51   1
   5 -13   4  968.70   91.77   1
  -5 -13  -4  933.70   88.21   1
  -5 -13  -4  905.40   85.16   1
   5  13   4  929.90   87.67   1
   5  13   4 1089.00  105.40   1
  -5  13  -4  993.20   94.40   1
  -5  13  -4  861.40   81.00   1
   5 -13   5  325.40   31.84   1
   5 -13   5  348.80   36.82   1
  -5 -13  -5  321.50   30.51   1
  -5 -13  -5  318.40   30.79   1
   5  13   5  306.20   29.37   1
   5  13   5  296.60   33.75   1
  -5  13  -5  313.30   29.71   1
  -5  13  -5  343.80   33.87   1
   5 -13   6   23.64   11.54   1
   5 -13   6   10.10   5.365   1
  -5 -13  -6   9.524   5.759   1
  -5 -13  -6   10.78   2.466   1
   5  13   6   24.19   14.43   1
   5  13   6   16.30   4.889   1
  -5  13  -6   27.71   6.422   1
  -5  13  -6   16.26   2.303   1
   5 -13   7  450.00   46.68   1
   5 -13   7  407.20   39.64   1
  -5 -13  -7  480.20   46.90   1
  -5 -13  -7  499.00   47.21   1
   5  13   7  440.10   49.14   1
   5  13   7  448.30   43.54   1
  -5  13  -7  464.00   45.04   1
  -5  13  -7  476.30   44.97   1
   5 -13   8  409.30   40.21   1
   5 -13   8  434.90   46.49   1
  -5 -13  -8  366.70   37.55   1
  -5 -13  -8  436.70   41.50   1
   5  13   8  383.30   46.72   1
   5  13   8  371.80   38.17   1
  -5  13  -8  437.40   42.64   1
  -5  13  -8  429.40   40.59   1
   5 -13   9  -4.482   12.90   1
  -5 -14  11  -3.704   5.253   1
   5  14 -11  0.9574   3.996   1
  -5 -14  10   0.923   2.136   1
  -5 -14  10   1.801   8.155   1
   5  14 -10   16.34   16.86   1
   5  14 -10   1.624   2.563   1
  -5 -14   9  0.2913   2.119   1
  -5 -14   9  0.5131    6.23   1
   5  14  -9   8.061   16.78   1
   5  14  -9  -1.385   1.866   1
   5 -14  -8   15.61   9.033   1
   5 -14  -8   14.28    4.43   1
  -5 -14   8   14.08   6.192   1
  -5 -14   8   15.25   2.672   1
   5  14  -8   13.22   2.386   1
   5  14  -8   22.49   15.65   1
  -5  14   8   11.99   3.046   1
   5 -14  -7  -9.137    8.78   1
   5 -14  -7  -1.599   3.483   1
  -5 -14   7   3.072   1.956   1
   5  14  -7   22.81   15.16   1
  -5  14   7    3.12    1.63   1
  -5  14   7-0.09141   2.939   1
   5 -14  -6   2.571    9.24   1
   5 -14  -6   1.841   4.503   1
  -5 -14   6   6.113   5.354   1
  -5 -14   6 -0.8039   1.954   1
   5  14  -6  -2.289   13.77   1
  -5  14   6 -0.2914   3.875   1
   5 -14  -5  -6.724   9.431   1
   5 -14  -5 -0.7017    4.30   1
  -5 -14   5  -5.628   5.251   1
  -5 -14   5 -0.1204   1.952   1
   5  14  -5 -0.7292   1.604   1
   5  14  -5  -4.209   12.68   1
  -5  14   5   1.174   4.273   1
  -5  14   5   1.499   1.614   1
   5 -14  -4   23.77   10.38   1
   5 -14  -4   23.51   4.888   1
  -5 -14   4   50.13   5.435   1
  -5 -14   4   31.79   6.368   1
   5  14  -4   43.79   4.795   1
   5  14  -4   28.03   13.02   1
  -5  14   4   29.82   5.564   1
   5 -14  -3   1.985   4.191   1
   5 -14  -3  0.5592   9.019   1
  -5 -14   3   5.427   4.404   1
  -5 -14   3   7.117   2.064   1
   5  14  -3   4.127   1.733   1
   5  14  -3  -3.081   11.49   1
  -5  14   3   6.156    1.76   1
  -5  14   3   11.24   4.897   1
   5 -14  -2 -0.7883   4.086   1
   5 -14  -2  -2.865   9.252   1
  -5 -14   2  0.6283   1.806   1
  -5 -14   2   4.813   4.349   1
   5  14  -2   2.575   11.09   1
   5  14  -2   2.909   1.786   1
  -5  14   2   4.322    5.08   1
  -5  14   2   1.042   1.508   1
   5 -14  -1  0.2529   9.406   1
  -5 -14   1   15.67   2.577   1
  -5 -14   1   4.965   4.409   1
   5  14  -1   12.26   2.432   1
   5  14  -1   3.113   11.07   1
  -5  14   1   21.08   2.713   1
   5 -14   0 -0.6878   3.979   1
  -5 -14   0   4.228   1.952   1
   5  14   0   10.56   10.34   1
  -5  14   0   6.131   5.256   1
   5 -14   1-0.07351   4.346   1
   5 -14   1  -5.418   9.074   1
  -5 -14  -1   1.183    4.12   1
  -5 -14  -1   5.231   1.992   1
   5  14   1  0.3747   1.921   1
   5  14   1   12.93   10.74   1
  -5  14  -1   3.996   1.525   1
  -5  14  -1 -0.2278   5.341   1
   5 -14   2   2.551   4.245   1
   5 -14   2   3.342   8.681   1
  -5 -14  -2    5.23   3.698   1
  -5 -14  -2-0.07834   1.962   1
   5  14   2   7.341   11.47   1
   5  14   2  0.2172   2.141   1
  -5  14  -2   2.138   1.479   1
  -5  14  -2  -2.338   5.492   1
   5 -14   3   5.222   5.036   1
   5 -14   3   13.11   9.955   1
  -5 -14  -3    9.65   3.926   1
   5  14   3   13.71   3.243   1
  -5  14  -3   8.908   1.798   1
  -5  14  -3   3.842   5.635   1
   5 -14   4   3.398   5.239   1
   5 -14   4   9.879   10.37   1
  -5 -14  -4   7.712   4.331   1
   5  14   4   5.438    2.97   1
  -5  14  -4   5.816   1.636   1
  -5  14  -4   7.645   5.719   1
   5 -14   5   1.369   4.863   1
   5 -14   5   8.971   11.03   1
  -5 -14  -5  0.7321    3.95   1
   5  14   5   2.447   3.124   1
  -5  14  -5   10.02   5.662   1
  -5  14  -5   3.451   1.551   1
   5 -14   6   1.545   5.511   1
   5 -14   6 -0.8703   10.83   1
  -5 -14  -6   0.476   5.334   1
  -5 -14  -6   5.636   2.191   1
   5  14   6   1.514   4.074   1
   5  14   6   -7.13   14.24   1
  -5  14  -6   2.561    5.63   1
  -5  14  -6   3.149    1.54   1
   5 -14   7   9.184   11.58   1
   5 -14   7  -4.096   5.578   1
  -5 -14  -7   4.428   2.687   1
  -5 -14  -7-0.03307    8.06   1
   5  14   7  -10.75   19.13   1
   5  14   7   3.812   6.983   1
  -5  14  -7 -0.1565    1.49   1
  -5  14  -7  -4.536    5.82   1
   5 -14   8  -7.643   12.63   1
  -5  14  -8   2.991   1.687   1
  -5 -15  10   45.75   9.813   1
   5  15 -10   35.75   4.753   1
  -5 -15   9   24.89   3.507   1
  -5 -15   9   44.96   9.043   1
   5  15  -9   39.58   17.87   1
   5  15  -9   29.99   3.786   1
   5 -15  -8  201.40   20.16   1
   5 -15  -8  198.00   23.31   1
  -5 -15   8  222.60   23.24   1
  -5 -15   8  240.90   23.08   1
   5  15  -8  200.40   19.30   1
   5  15  -8  212.20   30.76   1
  -5  15   8  245.00   23.64   1
  -5  15   8  239.40   22.87   1
   5 -15  -7  226.30   26.06   1
  -5 -15   7  229.40   21.98   1
  -5 -15   7  240.20   24.68   1
   5  15  -7  231.90   30.45   1
   5  15  -7  206.10   19.78   1
  -5  15   7  232.60   22.24   1
   5 -15  -6  212.90   25.03   1
   5 -15  -6  272.40   26.90   1
  -5 -15   6  218.70   21.01   1
  -5 -15   6  252.30   25.78   1
   5  15  -6  198.10   19.04   1
  -5  15   6  231.40   22.97   1
  -5  15   6  214.40   20.48   1
   5 -15  -5  213.20   24.67   1
   5 -15  -5  194.50   19.63   1
  -5 -15   5  206.70   21.24   1
   5  15  -5  201.00   19.29   1
  -5  15   5  210.10   21.05   1
  -5  15   5  213.20   20.38   1
   5 -15  -4   7.064   4.611   1
   5 -15  -4   5.569   10.05   1
  -5 -15   4   9.963   5.251   1
  -5 -15   4   9.315   2.321   1
   5  15  -4   8.046   2.014   1
   5  15  -4  -9.063   11.84   1
  -5  15   4   8.458   2.035   1
  -5  15   4   13.17   4.778   1
   5 -15  -3   31.89   10.61   1
   5 -15  -3   18.66   5.103   1
  -5 -15   3   25.63   5.874   1
  -5 -15   3   29.73   3.748   1
   5  15  -3   25.86   3.304   1
   5  15  -3   19.16   13.25   1
  -5  15   3   26.51   6.017   1
  -5  15   3   32.25   3.777   1
   5 -15  -2  432.80   41.58   1
   5 -15  -2  495.20   50.63   1
  -5 -15   2  433.40   40.98   1
  -5 -15   2  450.80   43.54   1
   5  15  -2  408.80   38.68   1
   5  15  -2  453.20   47.24   1
  -5  15   2  460.40   44.59   1
  -5  15   2  404.30   38.23   1
   5 -15  -1  321.40   34.26   1
   5 -15  -1  293.90   28.77   1
  -5 -15   1  288.70   28.48   1
  -5 -15   1  309.00   29.36   1
   5  15  -1  264.20   30.44   1
   5  15  -1  279.20   26.57   1
  -5  15   1  320.40   31.78   1
  -5  15   1  288.70   27.44   1
   5 -15   0  119.00   16.59   1
   5 -15   0  109.00   12.00   1
  -5 -15   0  119.30   13.00   1
   5  15   0  105.70   10.48   1
  -5  15   0  114.60   13.33   1
  -5  15   0   96.83   9.546   1
   5 -15   1   6.698    9.93   1
   5 -15   1   11.06   4.975   1
  -5 -15  -1    4.02   1.878   1
  -5 -15  -1   9.159   4.422   1
   5  15   1  0.5496   1.976   1
   5  15   1  -7.566   11.54   1
  -5  15  -1  0.6292   5.652   1
  -5  15  -1   1.665   1.477   1
   5 -15   2  447.80   43.24   1
   5 -15   2  491.90   49.87   1
  -5 -15  -2  502.10   47.42   1
  -5 -15  -2  493.30   47.30   1
   5  15   2  449.10   46.89   1
   5  15   2  529.20   50.05   1
  -5  15  -2  510.20   48.13   1
  -5  15  -2  538.60   52.22   1
   5 -15   3 1453.00  137.30   1
   5 -15   3 1292.00  124.20   1
  -5 -15  -3 1258.00  118.20   1
  -5 -15  -3 1394.00  131.50   1
   5  15   3 1411.00  132.60   1
   5  15   3 1229.00  119.00   1
  -5  15  -3 1449.00  137.30   1
  -5  15  -3 1133.00  106.40   1
   5 -15   4  459.50   47.34   1
   5 -15   4  443.40   42.94   1
  -5 -15  -4  384.50   36.44   1
  -5 -15  -4  395.20   38.09   1
   5  15   4  357.40   38.64   1
   5  15   4  449.70   43.00   1
  -5  15  -4  417.80   40.97   1
  -5  15  -4  365.10   34.56   1
   5 -15   5   64.01   14.02   1
   5 -15   5   73.96   9.685   1
  -5 -15  -5   50.96   7.255   1
  -5 -15  -5   53.78   5.809   1
   5  15   5   46.29   16.34   1
  -5  15  -5   56.15   5.798   1
  -5  15  -5   60.81   9.294   1
   5 -15   6   8.359   6.123   1
  -5 -15  -6   2.197   2.434   1
   5  15   6   7.925   4.266   1
   5  15   6  -11.16   18.22   1
  -5  15  -6   8.031   5.326   1
   5 -15   7   55.18   9.075   1
   5 -15   7   35.16   13.72   1
  -5 -15  -7   65.68   13.10   1
   5  15   7   61.08   11.03   1
  -5  15  -7   70.66   7.173   1
  -5  15  -7   65.72   9.766   1
  -5 -16   9   2.875   7.156   1
  -5 -16   9   1.306   2.219   1
   5  16  -9   1.344   2.367   1
   5 -16  -8  0.9553   11.11   1
   5 -16  -8  0.8645   5.038   1
  -5 -16   8 -0.8496   5.993   1
  -5 -16   8   1.719    1.97   1
   5  16  -8   2.955   15.40   1
   5  16  -8   0.549   1.761   1
  -5  16   8   2.789   3.632   1
  -5  16   8   -2.09   2.374   1
   5 -16  -7   6.252   5.308   1
   5 -16  -7   7.244   12.05   1
  -5 -16   7  -8.076   6.003   1
   5  16  -7 -0.5725   1.977   1
  -5  16   7   1.747    4.15   1
   5 -16  -6  -3.164   5.302   1
   5 -16  -6  -15.76   11.01   1
   5  16  -6 -0.4077   1.791   1
  -5  16   6  -3.182   5.121   1
  -5  16   6   2.059   1.886   1
   5 -16  -5   2.158   4.991   1
   5 -16  -5   6.131   10.20   1
  -5 -16   5   8.003   5.479   1
  -5 -16   5   3.882   2.091   1
   5  16  -5  -11.68   12.36   1
   5  16  -5   2.026   1.727   1
  -5  16   5   3.229   1.762   1
  -5  16   5   4.758   4.848   1
   5 -16  -4   14.01   9.464   1
  -5 -16   4   10.98   2.398   1
   5  16  -4  -5.741   12.99   1
  -5  16   4   11.71   2.236   1
   5 -16  -3  -5.113   10.47   1
   5 -16  -3   3.492   4.653   1
  -5 -16   3    2.57   4.899   1
   5  16  -3   7.521   1.984   1
  -5  16   3   11.53   5.541   1
   5 -16  -2   2.909   4.754   1
   5 -16  -2   3.827   10.53   1
  -5 -16   2   3.737   4.816   1
  -5 -16   2   12.78   2.511   1
   5  16  -2   1.346   12.75   1
   5  16  -2   10.98   2.245   1
  -5  16   2   11.28   2.161   1
  -5  16   2  0.8818    5.52   1
   5 -16  -1  -4.612   10.02   1
   5 -16  -1   2.774   4.764   1
  -5 -16   1   2.103   2.009   1
  -5 -16   1   0.177   4.719   1
   5  16  -1  -3.071   12.24   1
   5  16  -1   2.714   1.909   1
  -5  16   1   0.898   1.556   1
  -5  16   1   7.899   5.883   1
   5 -16   0 -0.4052   9.848   1
  -5 -16   0    2.02   1.969   1
  -5 -16   0    1.65   4.905   1
   5  16   0 -0.3169   1.877   1
   5  16   0   13.80   12.47   1
  -5  16   0   -5.36   5.853   1
  -5  16   0   2.589   1.566   1
   5 -16   1   6.072   9.724   1
   5 -16   1   6.776   5.254   1
  -5 -16  -1  -3.211   4.549   1
  -5 -16  -1   1.349   1.798   1
   5  16   1  -10.30   12.73   1
   5  16   1  0.3387    2.02   1
  -5  16  -1   1.313   1.476   1
  -5  16  -1  -1.945   5.656   1
   5 -16   2   5.641   5.403   1
  -5 -16  -2  0.5541   1.788   1
  -5 -16  -2  0.7756   4.179   1
   5  16   2   26.29   13.47   1
   5  16   2   5.306   2.372   1
  -5  16  -2   1.913   5.725   1
   5 -16   3  -8.917   10.09   1
   5 -16   3  -9.232    5.51   1
  -5 -16  -3  0.9754   1.883   1
  -5 -16  -3 -0.1382   4.305   1
   5  16   3 -0.5064   2.689   1
   5  16   3  -4.613   13.54   1
  -5  16  -3   2.804   5.654   1
  -5  16  -3   4.176   1.577   1
   5 -16   4    3.31   5.764   1
   5 -16   4   4.219   10.31   1
  -5 -16  -4 -0.3022   1.978   1
  -5 -16  -4   2.299    4.33   1
   5  16   4  -2.179   3.143   1
   5  16   4  -2.356   13.62   1
  -5  16  -4   1.323   1.483   1
  -5  16  -4  -2.742   5.812   1
   5 -16   5   6.447   6.004   1
  -5 -16  -5   3.076    2.27   1
  -5 -16  -5  -3.718    4.63   1
   5  16   5   11.32   15.00   1
   5  16   5   1.465   3.502   1
  -5  16  -5  0.4884   5.707   1
   5 -16   6    9.07   11.53   1
   5 -16   6   7.614   6.113   1
  -5 -16  -6   6.303   2.677   1
  -5 -16  -6   2.927   6.479   1
   5  16   6 -0.7627   4.384   1
   5  16   6  -3.959   20.89   1
  -5  16  -6   3.514   6.424   1
  -5  16  -6   6.187   1.749   1
  -5 -16  -7   8.916   11.08   1
  -5 -17   8   83.28   11.56   1
   5  17  -8   83.56   8.591   1
   5 -17  -7  136.80   21.32   1
   5 -17  -7  139.70   15.79   1
  -5 -17   7  138.00   13.51   1
  -5 -17   7  146.60   16.90   1
   5  17  -7  143.10   23.99   1
   5  17  -7  124.00   12.25   1
  -5  17   7  136.50   13.54   1
  -5  17   7  132.20   14.55   1
   5 -17  -6   96.66   12.07   1
   5 -17  -6  104.30   17.43   1
   5  17  -6   88.53   9.011   1
   5  17  -6   99.51   21.36   1
  -5  17   6   83.90   10.56   1
  -5  17   6  103.70   10.35   1
   5 -17  -5   44.33   7.514   1
  -5 -17   5   55.35   8.655   1
  -5 -17   5   66.05   6.855   1
   5  17  -5   53.63   17.63   1
   5  17  -5   55.45   5.896   1
  -5  17   5   57.70   6.082   1
  -5  17   5   46.31   7.345   1
   5 -17  -4   5.877   9.635   1
   5 -17  -4  0.4674   4.972   1
  -5 -17   4   2.601   5.199   1
  -5 -17   4   3.238   2.053   1
   5  17  -4   -5.85   14.69   1
   5  17  -4   1.791   1.718   1
  -5  17   4-0.07945   4.735   1
  -5  17   4  0.8123   1.716   1
   5 -17  -3  300.90   29.69   1
   5 -17  -3  339.30   36.22   1
  -5 -17   3  344.50   33.95   1
  -5 -17   3  374.60   35.53   1
   5  17  -3  344.50   38.83   1
   5  17  -3  325.20   30.89   1
  -5  17   3  355.90   33.75   1
  -5  17   3  330.20   32.59   1
   5 -17  -2  266.20   26.49   1
   5 -17  -2  290.70   31.82   1
  -5 -17   2  309.50   29.43   1
   5  17  -2  252.50   30.59   1
  -5  17   2  299.50   29.96   1
  -5  17   2  279.00   26.54   1
   5 -17  -1  291.00   31.82   1
   5 -17  -1  230.10   23.37   1
  -5 -17   1  211.00   20.27   1
  -5 -17   1  259.80   26.11   1
   5  17  -1  216.00   20.71   1
   5  17  -1  201.20   26.05   1
  -5  17   1  250.20   25.73   1
  -5  17   1  197.10   18.90   1
   5 -17   0   55.78   12.94   1
  -5 -17   0   53.44   7.791   1
   5  17   0   59.56   6.324   1
  -5  17   0   53.13    5.55   1
   5 -17   1   22.57   11.12   1
   5 -17   1   23.01   6.264   1
  -5 -17  -1   17.84   2.961   1
  -5 -17  -1   21.05   5.646   1
   5  17   1   21.01   3.165   1
   5  17   1  -8.008   13.62   1
  -5  17  -1   25.88   7.186   1
  -5  17  -1   22.65   2.983   1
   5 -17   2  498.00   50.86   1
   5 -17   2  498.00   48.16   1
  -5 -17  -2  474.40   45.71   1
  -5 -17  -2  478.50   45.28   1
   5  17   2  446.40   48.08   1
   5  17   2  444.00   42.13   1
  -5  17  -2  445.00   42.04   1
  -5  17  -2  526.30   51.24   1
   5 -17   3  394.50   41.64   1
   5 -17   3  359.70   35.51   1
  -5 -17  -3  314.60   30.87   1
  -5 -17  -3  295.40   28.17   1
   5  17   3  326.30   31.26   1
   5  17   3  305.30   35.57   1
  -5  17  -3  282.10   26.80   1
  -5  17  -3  364.30   36.44   1
   5 -17   4  271.70   27.46   1
  -5 -17  -4  256.40   25.60   1
  -5  17  -4  286.00   29.11   1
   5 -17   5   11.84   6.369   1
   5 -17   5   4.171   10.59   1
  -5 -17  -5   9.292    2.73   1
  -5 -17  -5   4.813   5.459   1
   5  17   5   10.39   4.198   1
   5  17   5   8.657   17.46   1
  -5  17  -5   12.05   2.181   1
  -5  17  -5   3.758   6.594   1
  -5 -17  -6  -3.963   6.893   1
  -5 -17  -6  -1.223   2.885   1
   5  17   6   2.037   21.37   1
   5  17   6  0.6329   4.744   1
   5 -18  -7  -8.017   16.96   1
   5 -18  -7   7.996   7.933   1
  -5 -18   7  -4.834   6.623   1
   5  18  -7   3.062   2.097   1
  -5  18   7  -1.795    6.44   1
  -5  18   7  -1.383    3.11   1
   5 -18  -6   5.799   7.162   1
  -5 -18   6  -6.342   7.026   1
  -5 -18   6   1.501   1.982   1
   5  18  -6   1.311   2.053   1
   5  18  -6   -5.55   16.98   1
  -5  18   6 -0.7822   6.523   1
   5 -18  -5  -5.387   5.904   1
   5 -18  -5  -2.077   10.73   1
  -5 -18   5   2.512   1.893   1
   5  18  -5   2.271   15.19   1
  -5  18   5  -1.599   1.965   1
  -5  18   5   9.086   5.273   1
   5 -18  -4   1.514   5.581   1
   5 -18  -4   16.24   10.42   1
  -5 -18   4   12.11   6.058   1
   5  18  -4   22.37   3.163   1
  -5  18   4   23.05   3.174   1
  -5  18   4   18.89   5.903   1
   5 -18  -3   2.405   5.578   1
   5 -18  -3 -0.7848   9.592   1
  -5 -18   3  0.9469   2.053   1
  -5 -18   3   3.801    5.59   1
   5  18  -3   6.881   14.61   1
   5  18  -3  0.8334   1.789   1
  -5  18   3    2.33   1.765   1
  -5  18   3   10.31   5.823   1
   5 -18  -2  -2.571   8.983   1
  -5 -18   2   7.458   2.344   1
  -5 -18   2   5.899   5.371   1
   5  18  -2   7.656   13.70   1
   5  18  -2   6.103   2.029   1
  -5  18   2   7.899   2.051   1
   5 -18  -1   1.467   5.743   1
  -5 -18   1   3.018    5.93   1
   5  18  -1   1.158   1.917   1
   5  18  -1  -33.69   14.97   1
  -5  18   1  0.8988   6.305   1
   5 -18   0  0.1997   5.664   1
   5 -18   0  -1.413   9.631   1
  -5 -18   0  -0.753    2.04   1
  -5 -18   0   -5.04   5.378   1
   5  18   0  -2.978   14.70   1
   5  18   0  -1.471   2.056   1
  -5  18   0   1.748   1.603   1
  -5  18   0  0.7762   6.333   1
   5 -18   1   14.94   10.41   1
   5 -18   1   3.963    5.95   1
  -5 -18  -1   12.67   5.358   1
  -5 -18  -1   15.27   2.811   1
   5  18   1   5.493   2.552   1
   5  18   1   18.60   15.60   1
  -5  18  -1   22.90   7.491   1
  -5  18  -1   8.641   1.957   1
   5 -18   2  -7.252   10.53   1
   5 -18   2   9.142   6.079   1
  -5 -18  -2 -0.3413   2.098   1
  -5 -18  -2   -5.29   5.238   1
   5  18   2   2.001   15.55   1
  -5  18  -2  -1.075   1.547   1
  -5  18  -2  -5.683   6.377   1
   5 -18   3   7.454   6.293   1
  -5 -18  -3   4.573   2.418   1
   5  18   3   2.645   15.01   1
  -5  18  -3   7.149   6.436   1
   5 -18   4   8.445   6.645   1
   5 -18   4   1.831   10.40   1
  -5 -18  -4    3.26   2.322   1
   5  18   4  -2.003    3.53   1
   5  18   4 -0.4484   15.31   1
  -5  18  -4   2.893   1.576   1
  -5  18  -4  -2.542   6.889   1
  -5 -18  -5   1.646   2.962   1
   5  18   5   26.93   21.11   1
   5  18   5   3.536   4.084   1
  -5 -18  -6  -2.602   7.126   1
  -5 -18  -6   3.724   3.299   1
   5  18   6  -2.733    5.46   1
   5 -19  -6  151.70   18.44   1
   5 -19  -6  140.60   23.81   1
  -5  19   6  173.90   17.03   1
  -5  19   6  139.50   16.29   1
   5 -19  -5   25.29   8.091   1
   5 -19  -5   24.44   12.25   1
  -5 -19   5   22.61   7.192   1
  -5 -19   5   24.58   3.343   1
   5  19  -5   28.80   16.93   1
   5  19  -5   26.28   3.508   1
  -5  19   5   30.23    4.03   1
  -5  19   5   34.05   7.784   1
   5 -19  -4   57.98   12.77   1
  -5 -19   4   41.66    7.72   1
  -5 -19   4   35.07   4.196   1
   5  19  -4   64.37   17.85   1
   5  19  -4   39.02   4.534   1
  -5  19   4   46.07   5.175   1
   5 -19  -3  310.70   31.09   1
  -5 -19   3  443.20   41.96   1
   5  19  -3  342.60   39.40   1
  -5  19   3  349.50   34.60   1
   5 -19  -2  503.50   50.99   1
   5 -19  -2  533.90   51.74   1
  -5 -19   2  561.40   54.37   1
   5  19  -2  502.10   47.49   1
  -5  19   2  571.00   55.46   1
  -5  19   2  539.30   50.94   1
   5 -19  -1  224.00   25.72   1
   5 -19  -1  231.20   24.11   1
  -5 -19   1  257.30   26.10   1
  -5 -19   1  218.50   21.01   1
   5  19  -1  246.20   31.51   1
   5  19  -1  220.80   21.23   1
  -5  19   1  252.80   26.43   1
  -5  19   1  220.80   21.14   1
   5 -19   0   40.87   11.80   1
   5 -19   0   49.55   8.504   1
  -5 -19   0   46.95   5.328   1
  -5 -19   0   54.75   8.452   1
   5  19   0   44.29   17.19   1
   5  19   0   54.71    6.03   1
  -5  19   0   47.04   5.073   1
  -5  19   0   50.89    9.33   1
   5 -19   1   21.47   7.192   1
  -5 -19  -1   21.94   6.183   1
  -5 -19  -1   18.53    3.29   1
   5  19   1   15.24   3.067   1
   5  19   1   37.55   17.42   1
  -5  19  -1   22.36   3.018   1
  -5  19  -1   16.94   7.597   1
   5 -19   2  200.00   24.27   1
   5 -19   2  183.30   19.82   1
  -5 -19  -2  236.70   22.79   1
  -5 -19  -2  208.30   21.52   1
   5  19   2  228.00   31.09   1
   5  19   2  195.20   19.05   1
  -5  19  -2  205.20   19.65   1
  -5  19  -2  206.50   21.96   1
   5 -19   3  369.80   36.77   1
   5 -19   3  366.50   38.78   1
  -5 -19  -3  350.40   34.61   1
  -5  19  -3  413.70   41.17   1
  -5  19  -3  319.80   30.35   1
  -5 -19  -4   18.15   3.437   1
  -5 -19  -4   32.15   6.951   1
   5  19   4   67.55   21.16   1
   5  19   4   21.57   4.729   1
  -5 -19  -5   11.62   3.284   1
  -5 -19  -5   8.013   7.205   1
   5  19   5   18.49   5.783   1
   5  19   5   1.101   21.59   1
   5 -20  -6   25.50   13.27   1
   5 -20  -6    4.18   9.673   1
  -5  20   6 -0.7084   7.244   1
  -5  20   6  0.1524   2.952   1
   5 -20  -5   12.60   9.392   1
   5 -20  -5   1.192   12.07   1
  -5  20   5   28.94   7.899   1
   5 -20  -4   4.695   11.14   1
   5 -20  -4   3.904   7.368   1
  -5 -20   4   14.16   6.648   1
   5  20  -4   10.06    2.38   1
  -5  20   4   19.36   7.084   1
  -5  20   4   18.52   3.116   1
   5 -20  -3   4.714   7.104   1
   5 -20  -3   19.14   10.54   1
  -5 -20   3   8.493   2.335   1
  -5 -20   3   4.288   6.301   1
   5  20  -3   22.55   16.25   1
   5  20  -3   5.677   2.222   1
  -5  20   3   9.666   7.103   1
  -5  20   3   5.351   2.223   1
   5 -20  -2  -1.806    7.00   1
   5 -20  -2  -2.899   10.24   1
  -5 -20   2   7.259   2.302   1
  -5 -20   2   5.396   6.312   1
   5  20  -2   14.37   16.27   1
   5  20  -2   2.533    2.27   1
  -5  20   2   5.768   2.038   1
  -5  20   2   15.01   7.446   1
   5 -20  -1   1.523   10.63   1
  -5 -20   1  -9.545   6.306   1
  -5 -20   1   5.349   2.238   1
   5  20  -1  -0.142   16.06   1
   5  20  -1  0.3819   2.185   1
  -5  20   1   1.601    1.68   1
   5 -20   0   9.989   6.982   1
   5 -20   0   3.972   10.91   1
  -5 -20   0   7.752   2.538   1
   5  20   0   11.08   16.36   1
  -5  20   0   9.648   7.334   1
   5 -20   1   -7.93   6.805   1
   5 -20   1  -2.042   10.39   1
  -5 -20  -1  0.4108   2.291   1
   5  20   1   22.84   17.72   1
   5  20   1 -0.1082   2.351   1
  -5  20  -1   2.752   1.906   1
  -5  20  -1  -1.693   7.188   1
   5 -20   2   3.906   11.15   1
  -5 -20  -2  -2.137   5.908   1
  -5 -20  -2    4.63   2.653   1
   5  20   2   4.684   2.991   1
   5  20   2   3.126   17.83   1
  -5  20  -2   4.748   1.966   1
  -5 -20  -3   4.957   2.685   1
  -5 -20  -3 -0.9958   5.761   1
   5  20   3   4.838   3.558   1
  -5 -20  -4  -1.057   2.746   1
  -5 -20  -4 -0.7856   5.877   1
   5  20   4   4.352   4.595   1
  -5 -20  -5  -8.638   6.408   1
   5  20   5   8.342   5.972   1
   5 -21  -5   6.843   9.412   1
   5 -21  -5   17.47   10.42   1
  -5  21   5   11.29   8.045   1
  -5  21   5   16.40   3.509   1
   5 -21  -4   27.01   10.08   1
   5 -21  -4   9.032   8.729   1
  -5  21   4   19.42   7.617   1
   5 -21  -3  253.30   26.86   1
   5 -21  -3  298.90   34.59   1
  -5  21   3  279.00   28.90   1
  -5  21   3  295.40   28.23   1
   5 -21  -2  337.40   37.05   1
   5 -21  -2  418.80   41.73   1
  -5 -21   2  373.50   37.58   1
   5  21  -2  349.50   33.33   1
  -5  21   2  440.70   43.77   1
  -5  21   2  411.30   39.04   1
   5 -21  -1  329.70   36.04   1
   5 -21  -1  362.20   36.47   1
  -5 -21   1  390.20   38.80   1
   5  21  -1  311.80   29.80   1
   5  21  -1  275.60   36.27   1
  -5  21   1  337.20   32.04   1
  -5  21   1  396.40   39.77   1
   5 -21   0   28.90   11.71   1
   5 -21   0   37.65   9.064   1
  -5 -21   0   28.34   7.254   1
  -5 -21   0   22.65    3.42   1
   5  21   0   27.31   17.54   1
   5  21   0   23.08   3.617   1
  -5  21   0   35.12   8.473   1
  -5  21   0   21.43   3.065   1
  -5 -21  -1   39.31   8.244   1
  -5 -21  -1   28.82    3.97   1
   5  21   1   29.45   4.273   1
   5  21   1   41.41   18.72   1
  -5  21  -1   25.02   3.541   1
  -5 -21  -2  181.80   17.78   1
   5  21   2  152.30   27.58   1
   5  21   2  182.40   18.27   1
  -5 -21  -3  155.30   15.44   1
  -5 -21  -3  152.00   17.64   1
   5  21   3  183.00   32.27   1
   5  21   3  150.10   15.67   1
  -5 -21  -4  265.10   25.86   1
   5  21   4  241.40   36.83   1
   5  21   4  254.50   25.62   1
   5 -22  -4   0.288   8.809   1
   5 -22  -4  -7.925   7.322   1
  -5  22   4   13.68    9.52   1
  -5  22   4  0.8536   2.523   1
   5 -22  -3   10.05   8.129   1
   5 -22  -3   11.19   10.11   1
  -5  22   3   24.00    3.59   1
  -5  22   3   6.176    7.78   1
   5 -22  -2   3.422   10.07   1
  -5  22   2   2.421   2.418   1
   6   0 -11   38.62   7.422   1
  -6   0  11   30.35   8.363   1
   6   0 -10   48.65   7.038   1
   6   0 -10   68.34   12.33   1
  -6   0  10   58.15    6.01   1
  -6   0  10   49.73   8.079   1
   6   0  -9  254.50   26.97   1
   6   0  -9  302.00   29.33   1
  -6   0   9  334.00   32.70   1
  -6   0   9  270.30   25.64   1
   6   0  -8 2363.00  221.90   1
   6   0  -8 2502.00  236.20   1
  -6   0   8 2146.00  201.30   1
  -6   0   8 2703.00  253.90   1
   6   0  -7   33.85   6.809   1
   6   0  -7   23.66   4.085   1
  -6   0   7   26.70   3.139   1
  -6   0   7   33.63   5.291   1
   6   0  -6   40.76   5.136   1
   6   0  -6   53.10   6.806   1
  -6   0   6   67.03   7.583   1
  -6   0   6   44.47   4.617   1
   6   0  -5  239.30   23.04   1
   6   0  -5  313.10   30.20   1
  -6   0   5  262.00   24.80   1
  -6   0   5  327.70   31.35   1
   6   0  -4  193.70   18.80   1
   6   0  -4  210.70   20.60   1
   6   0  -3   4.829   2.783   1
   6   0  -3   8.758   3.117   1
  -6   0   3   9.511   1.929   1
  -6   0   3   7.523   2.917   1
   6   0  -2  216.70   21.09   1
   6   0  -2  198.20   19.29   1
  -6   0   2  220.10   21.04   1
  -6   0   2  212.90   20.65   1
   6   0  -1   80.15   8.838   1
   6   0  -1   91.04   9.335   1
  -6   0   1  111.80   11.40   1
  -6   0   1   79.77    8.10   1
   6   0   0 1297.00  122.10   1
   6   0   0 1284.00  120.70   1
  -6   0   0 1438.00  135.20   1
  -6   0   0 1467.00  137.80   1
   6   0   1   2.762   3.664   1
  -6   0  -1 -0.3019   3.126   1
   6   0   2 2001.00  187.90   1
   6   0   2 1834.00  172.50   1
  -6   0  -2 2006.00  188.40   1
  -6   0  -2 1726.00  162.20   1
   6   0   3 4886.00  458.20   1
  -6   0  -3 4789.00  448.90   1
  -6   0  -3 4292.00  402.60   1
   6   0   4 1995.00  188.10   1
   6   0   4 1631.00  153.40   1
  -6   0  -4 1679.00  157.70   1
  -6   0  -4 1634.00  153.90   1
   6   0   5  271.20   26.34   1
   6   0   5  322.90   32.73   1
  -6   0  -5  339.30   33.53   1
   6   0   6   6.914   3.746   1
   6   0   6   18.41   8.391   1
  -6   0  -6   7.545   2.974   1
  -6   0  -6   1.685   7.231   1
   6   0   7  198.60   20.01   1
   6   0   7  212.50   23.24   1
  -6   0  -7  236.30   22.93   1
  -6   0  -7  203.50   22.26   1
   6   0   8  110.30   14.96   1
  -6   0  -8  133.10   17.33   1
   6   0   9   22.72   12.44   1
   6   0   9   17.45    7.72   1
  -6   0  -9   29.86   5.375   1
   6   0  10   7.101   11.24   1
  -6   0 -10   5.899   4.728   1
  -6   0 -10   0.312    1.93   1
  -6  -1  11  -8.928   6.908   1
  -6  -1  11   2.563   1.718   1
   6   1 -11   14.76   10.20   1
   6   1 -11  -2.814   5.398   1
   6  -1 -10  -2.486   8.343   1
   6  -1 -10  0.4138   4.718   1
  -6  -1  10  -2.964   1.656   1
  -6  -1  10   6.802   6.274   1
   6   1 -10  -2.335   4.377   1
   6   1 -10   9.661   9.348   1
  -6   1  10  -1.374   1.538   1
   6  -1  -9  0.6105   4.415   1
   6  -1  -9  -1.552   7.187   1
  -6  -1   9  0.8402   1.657   1
  -6  -1   9   8.745   4.978   1
   6   1  -9 -0.9878   3.257   1
   6   1  -9  -2.832    8.15   1
  -6   1   9  -1.003   1.406   1
  -6   1   9  -5.177   4.889   1
   6  -1  -8  -5.579   6.802   1
   6  -1  -8   1.937   4.481   1
  -6  -1   8   2.138   1.633   1
  -6  -1   8   3.325   3.771   1
   6   1  -8  -1.407   2.741   1
   6   1  -8    4.25   7.704   1
  -6   1   8    6.13   4.975   1
  -6   1   8  0.8066   1.513   1
   6  -1  -7   4.272   4.365   1
   6  -1  -7  0.2086   3.884   1
  -6  -1   7   8.325    1.78   1
  -6  -1   7   7.409   3.412   1
   6   1  -7   5.697   2.638   1
   6   1  -7   4.501   6.382   1
  -6   1   7   5.822   1.595   1
  -6   1   7    3.74   4.428   1
   6  -1  -6 -0.7811   3.488   1
   6  -1  -6   6.918   3.804   1
  -6  -1   6    3.63   1.466   1
  -6  -1   6   4.406   3.096   1
   6   1  -6   4.744   2.607   1
   6   1  -6   4.356   4.112   1
  -6   1   6   4.256   1.469   1
  -6   1   6   1.785   3.907   1
   6  -1  -5   1.654   3.423   1
   6  -1  -5 -0.1624   3.142   1
  -6  -1   5 -0.5351   2.891   1
  -6  -1   5  0.3482   1.289   1
   6   1  -5  0.1247   2.451   1
   6   1  -5  -4.161   3.447   1
  -6   1   5  -1.571   1.354   1
  -6   1   5   1.592    3.72   1
   6  -1  -4   1.803   2.766   1
  -6  -1   4  0.3643   1.248   1
  -6  -1   4  0.4327   2.532   1
   6   1  -4  0.1663   2.982   1
   6   1  -4    2.02   2.187   1
  -6   1   4  -6.696   3.335   1
  -6   1   4   1.185   1.471   1
   6  -1  -3  0.5994   2.387   1
   6  -1  -3-0.02177   3.438   1
  -6  -1   3   2.205   2.503   1
  -6  -1   3  0.2664   1.366   1
   6   1  -3   2.113   2.217   1
   6   1  -3   1.274   2.817   1
  -6   1   3   1.451    1.76   1
  -6   1   3   1.816   3.064   1
   6  -1  -2   72.42    7.70   1
  -6  -1   2   62.45   6.873   1
   6   1  -2   77.71    8.32   1
   6   1  -2   93.81   9.653   1
  -6   1   2   68.82   7.709   1
   6  -1  -1   18.35   3.204   1
   6  -1  -1   22.89   4.555   1
  -6  -1   1   13.12   3.212   1
  -6  -1   1   21.77   2.973   1
   6   1  -1   19.67   3.797   1
   6   1  -1   13.00   2.952   1
  -6   1   1   20.30   3.089   1
  -6   1   1   14.46   3.546   1
   6  -1   0   41.35   5.681   1
  -6  -1   0   30.59    4.66   1
   6   1   0   54.25   6.632   1
   6   1   0   33.87   4.503   1
  -6   1   0   45.78   5.207   1
   6  -1   1  -2.811   3.779   1
  -6  -1  -1  -1.065   3.274   1
   6   1   1 -0.1363   3.436   1
  -6   1  -1    2.19   2.972   1
   6  -1   2   10.39    3.10   1
  -6  -1  -2   23.89   3.429   1
  -6  -1  -2   3.572   3.217   1
   6   1   2   12.42   4.087   1
   6   1   2   11.37   3.164   1
  -6   1  -2   12.94    2.76   1
   6  -1   3  157.50   16.76   1
   6  -1   3  115.30   11.66   1
   6   1   3  129.90   13.08   1
   6  -1   4   34.19   4.927   1
   6  -1   4   45.76   8.381   1
  -6  -1  -4   25.58   5.158   1
   6   1   4   27.97   4.554   1
   6   1   4   48.35   7.554   1
  -6   1  -4   44.16   5.353   1
   6  -1   5   1.516   3.364   1
   6  -1   5   3.461   6.984   1
  -6  -1  -5-0.09726   5.331   1
  -6  -1  -5   2.943    2.71   1
   6   1   5   2.514    3.55   1
   6   1   5   14.91    6.65   1
  -6   1  -5   4.019   2.961   1
  -6   1  -5    4.79   6.307   1
   6  -1   6   -2.11   7.668   1
   6  -1   6    5.79   3.722   1
  -6  -1  -6  0.7769   6.744   1
  -6  -1  -6   4.751   2.959   1
   6   1   6  -2.379   4.111   1
   6   1   6   7.158   7.849   1
  -6   1  -6   6.842   2.941   1
  -6   1  -6  -9.888   7.448   1
   6  -1   7   7.991   7.453   1
   6  -1   7 -0.4258   4.098   1
  -6  -1  -7   4.301    8.57   1
  -6  -1  -7   10.20   3.347   1
   6   1   7   4.772   8.285   1
   6   1   7   8.298   4.843   1
  -6   1  -7   4.954   8.038   1
  -6   1  -7   8.404   3.284   1
   6  -1   8 -0.4546   8.768   1
  -6  -1  -8   9.705   3.514   1
   6   1   8   9.985   5.751   1
   6   1   8   9.852   8.323   1
  -6   1  -8 -0.2151   9.387   1
   6  -1   9   68.27   10.37   1
  -6  -1  -9   30.44   13.22   1
   6   1   9   73.46   14.69   1
   6  -1  10  0.1965   9.828   1
   6  -1  10   10.31   16.54   1
  -6  -1 -10   5.568   4.053   1
   6   1  10   17.84   18.74   1
  -6   1 -10   7.077   2.146   1
  -6   1 -10  -4.007    5.57   1
  -6  -2  11  106.50   14.30   1
  -6  -2  11   73.00   7.494   1
   6   2 -11  117.30   18.45   1
   6   2 -11   94.55   11.33   1
   6  -2 -10  160.30   18.40   1
   6  -2 -10  172.20   18.67   1
  -6  -2  10  166.60   17.48   1
  -6  -2  10  181.00   17.42   1
   6   2 -10  164.70   21.07   1
   6   2 -10  160.40   16.01   1
  -6   2  10  170.40   18.82   1
  -6   2  10  172.20   16.37   1
   6  -2  -9   2.303    4.97   1
  -6  -2   9   4.072   4.108   1
  -6  -2   9   1.418   1.741   1
   6   2  -9   2.795   2.684   1
   6  -2  -8   2.457   4.573   1
   6  -2  -8   15.41   6.865   1
  -6  -2   8   15.45   4.064   1
   6   2  -8   6.749   2.731   1
  -6   2   8   13.34   5.035   1
  -6   2   8   7.841   1.729   1
   6  -2  -7 1640.00  154.30   1
   6  -2  -7 1633.00  153.70   1
  -6  -2   7 1684.00  158.00   1
  -6  -2   7 1758.00  165.20   1
   6   2  -7 1578.00  148.30   1
   6   2  -7 1877.00  177.80   1
  -6   2   7 1768.00  165.80   1
  -6   2   7 1700.00  159.80   1
   6  -2  -6 1214.00  114.40   1
   6  -2  -6 1293.00  121.80   1
  -6  -2   6 1233.00  116.00   1
  -6  -2   6 1191.00  111.80   1
   6   2  -6 1135.00  106.70   1
   6   2  -6 1184.00  112.20   1
  -6   2   6 1184.00  111.10   1
  -6   2   6 1299.00  122.30   1
   6  -2  -5  559.00   53.11   1
   6  -2  -5  581.60   55.14   1
  -6  -2   5  585.40   55.38   1
  -6  -2   5  533.70   50.24   1
   6   2  -5  490.30   46.36   1
   6   2  -5  538.20   51.32   1
  -6   2   5  541.60   50.99   1
  -6   2   5  624.90   59.17   1
   6  -2  -4  118.70   12.20   1
   6  -2  -4  135.60   13.44   1
  -6  -2   4  134.30   13.32   1
  -6  -2   4  138.90   13.33   1
   6   2  -4  129.30   13.25   1
   6   2  -4  125.20   12.33   1
  -6   2   4  144.50   13.94   1
  -6   2   4  137.00   13.72   1
   6  -2  -3    2.48    3.47   1
   6  -2  -3   8.488   2.476   1
  -6  -2   3   9.607   2.752   1
  -6  -2   3   7.518   1.611   1
   6   2  -3   9.516   2.518   1
   6   2  -3   11.24   3.491   1
  -6   2   3   8.987   2.188   1
  -6   2   3   7.504   3.298   1
   6  -2  -2 2666.00  250.20   1
   6  -2  -2 2651.00  248.90   1
  -6  -2   2 2833.00  265.90   1
  -6  -2   2 2783.00  261.00   1
   6   2  -2 2980.00  279.60   1
   6   2  -2 2919.00  273.90   1
  -6   2   2 2846.00  267.00   1
  -6   2   2 2817.00  264.30   1
   6  -2  -1  680.10   64.43   1
   6  -2  -1  739.60   69.72   1
  -6  -2   1  726.10   68.32   1
  -6  -2   1  760.10   71.66   1
   6   2  -1  661.40   62.43   1
   6   2  -1  710.70   67.18   1
  -6   2   1  684.50   64.51   1
  -6   2   1  768.90   72.55   1
   6  -2   0  342.30   33.02   1
  -6  -2   0  395.70   37.44   1
  -6  -2   0  346.50   33.04   1
   6   2   0  338.50   32.32   1
   6   2   0  305.60   29.44   1
  -6   2   0  276.80   26.59   1
   6  -2   1  0.9096   4.112   1
   6  -2   1 -0.6155   2.589   1
  -6  -2  -1  0.9207   3.206   1
   6   2   1   2.872    3.52   1
  -6   2  -1   2.493   2.437   1
  -6   2  -1  0.3977   2.971   1
   6  -2   2  766.10   72.26   1
  -6  -2  -2  855.40   80.52   1
  -6  -2  -2  742.20   70.13   1
   6   2   2  753.70   71.21   1
   6   2   2  702.50   66.49   1
  -6   2  -2  677.30   63.94   1
   6  -2   3 1289.00  121.20   1
   6  -2   3 1622.00  153.30   1
  -6  -2  -3 1543.00  144.90   1
   6   2   3 1249.00  117.60   1
  -6   2  -3 1224.00  115.50   1
  -6   2  -3 1229.00  115.60   1
   6  -2   4 2555.00  240.00   1
   6  -2   4 2905.00  273.60   1
  -6  -2  -4 2758.00  258.80   1
  -6  -2  -4 2220.00  208.50   1
   6   2   4 2421.00  227.40   1
   6   2   4 2397.00  225.30   1
  -6   2  -4 2780.00  261.50   1
  -6   2  -4 2232.00  209.70   1
   6  -2   5  461.00   43.95   1
   6  -2   5  465.70   45.74   1
  -6  -2  -5  474.80   45.60   1
  -6  -2  -5  469.00   44.44   1
   6   2   5  415.40   39.88   1
   6   2   5  489.10   47.44   1
  -6   2  -5  461.60   44.88   1
  -6   2  -5  378.50   36.08   1
   6  -2   6   5.075   3.579   1
   6  -2   6   3.719   7.505   1
  -6  -2  -6   5.546   2.614   1
  -6  -2  -6   5.212   6.905   1
   6   2   6   7.009   7.722   1
   6   2   6   3.797   4.253   1
  -6   2  -6   4.935   2.952   1
  -6   2  -6   1.959    6.95   1
   6  -2   7   61.52   7.831   1
   6  -2   7   66.61   11.07   1
  -6  -2  -7   74.30   12.07   1
  -6  -2  -7   75.74   8.012   1
   6   2   7   75.64   12.15   1
   6   2   7   74.96   9.741   1
  -6   2  -7   63.90   11.05   1
  -6   2  -7   48.63   6.326   1
   6  -2   8  169.90   17.39   1
  -6  -2  -8  174.20   21.23   1
  -6  -2  -8  225.80   21.81   1
   6   2   8  164.50   19.72   1
   6   2   8  210.00   22.05   1
  -6   2  -8  230.40   22.56   1
   6  -2   9  178.10   24.01   1
   6  -2   9  175.90   18.70   1
  -6  -2  -9  180.30   23.56   1
  -6  -2  -9  140.30   14.11   1
   6   2   9  166.60   20.15   1
   6   2   9  154.40   20.64   1
  -6   2  -9  144.90   15.11   1
  -6   2  -9  128.80   12.47   1
   6  -2  10   25.19   16.92   1
   6  -2  10   12.99   9.993   1
  -6  -2 -10   14.49    2.75   1
  -6   2 -10   22.22   7.029   1
  -6   2 -10   24.47   3.308   1
  -6  -3  11   10.52   7.462   1
   6   3 -11   2.022   4.011   1
   6  -3 -10  -11.29   5.552   1
   6  -3 -10   1.921   4.307   1
  -6  -3  10 -0.7467   2.028   1
   6   3 -10-0.05686   9.951   1
  -6   3  10   7.195   5.442   1
   6  -3  -9   3.757   6.428   1
   6  -3  -9   5.968    6.78   1
  -6  -3   9   3.282   1.816   1
   6   3  -9   2.266   8.792   1
  -6   3   9   2.252   1.456   1
   6  -3  -8   4.736   5.699   1
   6  -3  -8  -2.606   5.328   1
  -6  -3   8    4.83   1.827   1
   6   3  -8   -4.56   7.791   1
  -6   3   8   6.056   5.009   1
  -6   3   8   10.01   1.802   1
   6  -3  -7   5.612   3.658   1
   6  -3  -7  -2.164   4.579   1
  -6  -3   7  -2.467   3.292   1
  -6  -3   7  0.7397   1.611   1
   6   3  -7  -6.949   8.397   1
   6   3  -7   -1.07   2.623   1
  -6   3   7   2.005   1.478   1
  -6   3   7  -2.541   4.452   1
   6  -3  -6 -0.1584   4.459   1
   6  -3  -6 -0.4346   3.354   1
  -6  -3   6  -3.312   3.119   1
   6   3  -6  -3.414    2.28   1
  -6   3   6-0.04852   1.456   1
  -6   3   6  -4.104   3.831   1
   6  -3  -5   4.251   3.878   1
   6  -3  -5  -1.127   2.795   1
  -6  -3   5  0.9421   2.932   1
   6   3  -5 -0.4369   2.212   1
  -6   3   5   5.454   3.466   1
  -6   3   5 -0.1888   1.607   1
   6  -3  -4   4.098    2.39   1
   6  -3  -4  -2.073    3.52   1
  -6  -3   4  -0.716   2.488   1
   6   3  -4   1.948   2.166   1
  -6   3   4   3.668   3.183   1
  -6   3   4   4.427   1.953   1
   6  -3  -3   5.921   2.486   1
   6  -3  -3   8.379   3.852   1
  -6  -3   3   6.358   2.762   1
  -6  -3   3   7.886   1.722   1
   6   3  -3   11.92   3.715   1
   6   3  -3   10.78   2.576   1
  -6   3   3   10.02   2.383   1
  -6   3   3   4.957   3.325   1
   6  -3  -2   31.02   5.144   1
   6  -3  -2   21.34   3.333   1
  -6  -3   2   22.53   3.617   1
   6   3  -2   23.24   4.509   1
   6   3  -2   38.81   4.661   1
   6  -3  -1   28.37   5.301   1
   6  -3  -1   20.39   3.342   1
  -6  -3   1   16.65   3.193   1
   6   3  -1   33.52   4.302   1
  -6   3   1   25.45   3.559   1
   6  -3   0   18.81   5.054   1
  -6  -3   0   12.56   3.044   1
   6   3   0   22.75    3.53   1
  -6   3   0   7.887   3.331   1
   6  -3   1   3.889   2.563   1
  -6  -3  -1  0.9938   2.779   1
   6   3   1  -2.033   2.752   1
  -6   3  -1  -1.032    2.24   1
   6  -3   2   28.28   4.178   1
   6  -3   2   34.25   6.908   1
  -6  -3  -2   44.28   4.853   1
   6   3   2   25.43   4.399   1
   6   3   2   30.59    5.16   1
  -6   3  -2   29.84   4.161   1
  -6   3  -2   24.11   4.775   1
   6  -3   3   20.51   3.858   1
   6  -3   3   25.65   6.873   1
   6   3   3   13.54    4.04   1
  -6   3  -3   30.19   4.395   1
  -6   3  -3   9.042   4.532   1
   6  -3   4   46.95   9.802   1
  -6  -3  -4   29.81   5.256   1
   6   3   4   39.06    5.90   1
  -6   3  -4   21.49   6.526   1
   6  -3   5  -2.096   6.712   1
   6  -3   5  -1.183   3.524   1
  -6  -3  -5   4.182   4.621   1
  -6  -3  -5   1.429   2.236   1
   6   3   5   1.836   5.295   1
   6   3   5   3.335   4.058   1
  -6   3  -5    3.23   6.555   1
  -6   3  -5  -1.171   2.959   1
   6  -3   6  -2.743   7.094   1
   6  -3   6   4.119   3.728   1
  -6  -3  -6   1.426    2.27   1
  -6  -3  -6  0.8354   5.789   1
   6   3   6 -0.7185   6.603   1
   6   3   6  -1.998   4.874   1
  -6   3  -6   -2.77   2.941   1
  -6   3  -6   11.72   7.306   1
   6  -3   7  -2.471    3.99   1
   6  -3   7   -4.38   8.354   1
  -6  -3  -7   7.748   8.942   1
  -6  -3  -7    2.82   2.254   1
   6   3   7   5.376   6.066   1
   6   3   7   3.056   8.792   1
  -6   3  -7  -3.795   8.241   1
  -6   3  -7  -6.595   3.279   1
   6  -3   8   19.73   5.043   1
   6  -3   8   26.24   10.79   1
  -6  -3  -8   12.79   11.17   1
  -6  -3  -8   17.93   3.204   1
   6   3   8   18.32    9.65   1
   6   3   8   24.13   8.131   1
  -6   3  -8   28.60   4.915   1
  -6   3  -8   34.66   3.776   1
   6  -3   9  -4.172   5.703   1
   6  -3   9  -19.81   13.57   1
  -6  -3  -9    7.42   13.30   1
  -6  -3  -9   1.412   2.751   1
   6   3   9-0.07789   9.706   1
   6   3   9  -15.25   11.29   1
  -6   3  -9   1.517   4.279   1
  -6   3  -9   7.712   1.782   1
   6  -3  10   8.268   8.615   1
   6  -3  10  -12.21   16.56   1
  -6   3 -10   5.456   6.618   1
  -6   3 -10   15.23   2.506   1
  -6  -4  11  100.10   12.58   1
  -6  -4  11  130.10   12.90   1
   6   4 -11  121.10   19.70   1
   6   4 -11   93.96   10.24   1
  -6  -4  10  298.30   28.41   1
  -6  -4  10  262.50   25.93   1
   6   4 -10  270.00   30.89   1
   6   4 -10  236.80   22.95   1
   6  -4  -9   93.51   11.69   1
  -6  -4   9   99.16   10.87   1
  -6  -4   9   90.67   9.057   1
   6   4  -9   90.79   14.59   1
   6   4  -9   96.45   9.907   1
  -6   4   9   75.25   10.58   1
   6  -4  -8  281.20   27.76   1
   6  -4  -8  374.10   37.14   1
  -6  -4   8  299.80   29.00   1
  -6  -4   8  276.60   26.28   1
   6   4  -8  272.40   29.43   1
   6   4  -8  310.50   29.67   1
  -6   4   8  290.80   27.48   1
  -6   4   8  288.90   28.84   1
   6  -4  -7  161.40   17.36   1
   6  -4  -7  163.40   16.42   1
  -6  -4   7  148.40   15.01   1
  -6  -4   7  163.30   15.68   1
   6   4  -7  146.80   17.58   1
   6   4  -7  168.30   16.40   1
  -6   4   7  163.80   16.98   1
  -6   4   7  148.30   14.18   1
   6  -4  -6  975.80   92.46   1
   6  -4  -6  974.30   91.90   1
  -6  -4   6  896.30   84.24   1
   6   4  -6 1006.00   96.17   1
  -6   4   6  896.40   84.70   1
  -6   4   6  875.00   82.21   1
   6  -4  -5 1232.00  115.90   1
   6  -4  -5 1238.00  117.00   1
  -6  -4   5 1220.00  114.50   1
   6   4  -5 1122.00  106.30   1
  -6   4   5 1298.00  121.90   1
  -6   4   5 1208.00  113.80   1
   6  -4  -4   23.68   3.469   1
   6  -4  -4   12.71   4.587   1
  -6  -4   4   18.79   3.583   1
  -6  -4   4   15.86   2.269   1
   6   4  -4   20.40   3.152   1
   6   4  -4   14.99   4.242   1
  -6   4   4   23.19   4.338   1
  -6   4   4   19.79    2.96   1
   6  -4  -3  981.00   92.80   1
   6  -4  -3  913.20   85.97   1
  -6  -4   3  893.20   84.19   1
   6   4  -3  939.60   88.43   1
  -6   4   3  900.80   85.00   1
  -6   4   3  868.20   81.70   1
   6  -4  -2 2151.00  202.30   1
   6  -4  -2 1793.00  168.40   1
  -6  -4   2 1845.00  173.30   1
   6   4  -2 1872.00  175.70   1
  -6   4   2 1868.00  175.50   1
  -6   4   2 1695.00  159.10   1
   6  -4  -1 2549.00  239.70   1
  -6  -4   1 2421.00  227.20   1
   6   4  -1 2101.00  197.10   1
  -6   4   1 2576.00  241.90   1
   6  -4   0 1119.00  106.10   1
   6  -4   0  840.30   79.20   1
  -6  -4   0  914.80   86.00   1
  -6  -4   0  877.60   82.68   1
   6   4   0  825.00   77.72   1
   6   4   0  925.80   87.50   1
  -6   4   0  799.10   75.35   1
  -6   4   0  903.60   85.42   1
   6  -4   1   83.31   8.792   1
  -6  -4  -1   70.64   7.662   1
  -6  -4  -1  107.40   10.46   1
   6   4   1   98.00   10.42   1
   6   4   1   91.79    9.40   1
  -6   4  -1   90.83   9.394   1
   6  -4   2   84.41   8.995   1
   6  -4   2  113.60   13.41   1
  -6  -4  -2  100.70   9.863   1
   6   4   2   79.10   8.811   1
  -6   4  -2  101.20   10.48   1
   6  -4   3 1247.00  117.40   1
   6  -4   3 1289.00  122.40   1
  -6  -4  -3 1226.00  115.50   1
  -6  -4  -3  999.20   93.92   1
   6   4   3 1256.00  118.40   1
  -6   4  -3 1084.00  102.10   1
  -6   4  -3 1286.00  121.50   1
   6  -4   4  951.90   89.85   1
   6  -4   4  888.00   84.93   1
  -6  -4  -4  932.50   88.04   1
  -6  -4  -4  892.20   83.91   1
   6   4   4  988.20   93.46   1
   6   4   4  885.90   83.79   1
  -6   4  -4  903.80   85.97   1
  -6   4  -4  897.40   84.70   1
   6  -4   5  355.00   34.21   1
   6  -4   5  270.40   27.71   1
  -6  -4  -5  297.40   28.96   1
  -6  -4  -5  272.10   25.91   1
   6   4   5  324.00   31.58   1
   6   4   5  294.80   28.99   1
  -6   4  -5  303.60   30.43   1
  -6   4  -5  283.20   27.33   1
   6  -4   6   43.74   9.091   1
  -6  -4  -6   34.97    4.20   1
  -6  -4  -6   33.55   7.019   1
   6   4   6   48.83   8.847   1
   6   4   6   41.00   7.157   1
  -6   4  -6   38.67   8.745   1
   6  -4   7   41.36   6.452   1
  -6  -4  -7   47.90    5.30   1
  -6  -4  -7   50.27   10.57   1
   6   4   7   49.96   8.741   1
   6   4   7   58.07   11.25   1
  -6   4  -7   50.05   6.378   1
  -6   4  -7   27.02   9.582   1
   6  -4   8  425.00   40.91   1
   6  -4   8  425.10   44.11   1
  -6  -4  -8  539.30   54.62   1
  -6  -4  -8  409.30   38.79   1
   6   4   8  511.10   50.14   1
   6   4   8  464.00   47.24   1
  -6   4  -8  420.40   39.68   1
  -6   4  -8  417.50   40.01   1
   6  -4   9  352.50   39.68   1
   6  -4   9  370.20   36.42   1
  -6  -4  -9  282.50   33.42   1
  -6  -4  -9  383.50   36.56   1
   6   4   9  295.00   32.92   1
   6   4   9  334.50   35.55   1
  -6   4  -9  422.60   39.93   1
  -6   4  -9  349.90   33.98   1
   6  -4  10   96.41   14.17   1
   6  -4  10   94.99   22.56   1
  -6   4 -10  100.80   12.96   1
  -6   4 -10   90.06   9.081   1
  -6  -5  11  0.7453   2.456   1
  -6  -5  11   1.706   6.009   1
   6   5 -11   2.876    3.46   1
   6   5 -11  -4.998   13.31   1
  -6  -5  10  0.6722   4.997   1
  -6  -5  10  -1.507   2.178   1
   6   5 -10  -8.866   11.27   1
   6   5 -10  -1.543   3.052   1
   6  -5  -9  -1.971   5.843   1
   6  -5  -9   3.353   5.284   1
  -6  -5   9   1.003   1.949   1
  -6  -5   9  -1.114   4.164   1
   6   5  -9-0.01032   2.538   1
   6   5  -9   11.15   10.70   1
  -6   5   9   4.014   1.313   1
  -6   5   9  -15.13   6.173   1
   6  -5  -8   8.137   4.554   1
   6  -5  -8   0.936   6.495   1
  -6  -5   8   1.717   1.774   1
  -6  -5   8  0.4841   3.604   1
   6   5  -8   2.275   2.419   1
   6   5  -8   2.046   9.352   1
  -6   5   8   2.879   6.823   1
  -6   5   8   2.691   1.382   1
   6  -5  -7 -0.5287   3.483   1
   6  -5  -7  -7.032   6.693   1
  -6  -5   7   1.419   1.683   1
  -6  -5   7   3.277   3.399   1
   6   5  -7 0.09201   7.973   1
   6   5  -7 -0.0772   2.317   1
  -6   5   7   2.582    1.48   1
  -6   5   7-0.04598   6.065   1
   6  -5  -6   5.656   6.485   1
   6  -5  -6   1.339   3.126   1
  -6  -5   6   2.925   3.307   1
  -6  -5   6  0.6182   1.578   1
   6   5  -6   1.939   2.242   1
   6   5  -6   11.02   7.891   1
  -6   5   6  0.9999   1.808   1
  -6   5   6  -12.03    5.12   1
   6  -5  -5   14.61   6.183   1
  -6  -5   5   15.16   3.646   1
  -6  -5   5   20.49   2.676   1
   6   5  -5   13.28   6.871   1
  -6   5   5    9.50   4.837   1
  -6   5   5   25.94   3.549   1
   6  -5  -4   1.991   2.518   1
   6  -5  -4    9.23   5.151   1
  -6  -5   4    8.29   1.725   1
   6   5  -4   2.369   4.363   1
  -6   5   4   7.548   2.257   1
  -6   5   4   1.153   4.271   1
   6  -5  -3   6.438   4.978   1
  -6  -5   3   10.29   1.855   1
   6   5  -3   4.797   3.803   1
   6  -5  -2   10.57   5.266   1
   6  -5  -2   1.691   2.484   1
  -6  -5   2   7.862   1.691   1
   6   5  -2   4.095   3.202   1
  -6   5   2   3.477   2.321   1
  -6   5   2   3.632   3.664   1
   6  -5  -1-0.01566   4.932   1
  -6  -5   1  0.8205   1.352   1
   6   5  -1 -0.9007   3.105   1
  -6   5   1  -1.975   3.569   1
   6  -5   0  0.8195   2.811   1
  -6  -5   0  0.3883   1.402   1
   6   5   0 -0.4775   3.275   1
  -6   5   0  -1.343   2.804   1
   6  -5   1  0.4393   3.002   1
   6  -5   1  -1.152   5.617   1
  -6  -5  -1  0.9599    1.39   1
   6   5   1    3.31   3.481   1
  -6   5  -1  -0.997   4.157   1
  -6   5  -1   2.333   3.014   1
   6  -5   2    4.93   5.635   1
   6  -5   2   4.844   3.149   1
  -6  -5  -2  0.6113   2.974   1
  -6  -5  -2   1.843   1.734   1
   6   5   2   2.025   4.127   1
  -6   5  -2   5.186   3.427   1
  -6   5  -2   2.597   4.858   1
   6  -5   3   39.67   8.012   1
  -6  -5  -3   54.26    5.68   1
  -6  -5  -3   37.34   5.523   1
   6   5   3   38.65   6.143   1
   6   5   3   46.09   6.145   1
  -6   5  -3   48.60   6.263   1
  -6   5  -3   24.74    6.59   1
   6  -5   4   1.818   3.809   1
   6  -5   4   11.44   6.909   1
  -6  -5  -4   1.602   1.853   1
  -6  -5  -4  -1.587   4.014   1
   6   5   4   3.353   4.274   1
   6   5   4  -3.618   4.614   1
  -6   5  -4   1.429   3.746   1
  -6   5  -4  -2.397   6.064   1
   6  -5   5   11.50   4.396   1
   6  -5   5   10.81   6.864   1
  -6  -5  -5   15.39   2.598   1
  -6  -5  -5   4.035   4.604   1
   6   5   5   11.33   5.373   1
   6   5   5   15.50   5.208   1
  -6   5  -5   12.76   6.714   1
  -6   5  -5   12.78   4.265   1
   6  -5   6   2.031   7.689   1
   6  -5   6   3.403   4.028   1
  -6  -5  -6    3.96   5.264   1
  -6  -5  -6   1.074   1.884   1
   6   5   6   1.023    5.98   1
   6   5   6   1.447   5.531   1
  -6   5  -6  -2.361    3.64   1
   6  -5   7  -2.798   8.223   1
   6  -5   7   1.629   4.375   1
  -6  -5  -7   -0.55   1.902   1
  -6  -5  -7   7.493   7.875   1
   6   5   7   8.279   6.578   1
   6   5   7  -7.169   7.854   1
  -6   5  -7  -1.768   3.825   1
  -6   5  -7   1.787   1.295   1
   6  -5   8   14.10   11.98   1
   6  -5   8   6.823   4.625   1
  -6  -5  -8   11.85   2.663   1
  -6  -5  -8  -2.377   13.14   1
   6   5   8   10.52   8.248   1
   6   5   8    6.25   11.05   1
  -6   5  -8   17.40   4.627   1
   6  -5   9  -3.749   12.66   1
  -6  -5  -9  -15.04   15.71   1
  -6  -5  -9   6.545    3.01   1
   6   5   9   14.23   11.66   1
   6   5   9   25.90   12.97   1
  -6   5  -9   13.92   2.184   1
   6  -5  10  -15.70   8.505   1
   6  -5  10  -24.01   17.71   1
  -6   5 -10   1.157   1.644   1
  -6   5 -10  -1.672   6.345   1
  -6  -6  11   96.81   12.38   1
  -6  -6  11  113.10   11.43   1
   6   6 -11  117.00   12.31   1
   6   6 -11  105.20   21.58   1
  -6  -6  10  363.70   34.55   1
  -6  -6  10  337.90   33.12   1
   6   6 -10  374.00   35.75   1
   6   6 -10  362.90   39.83   1
   6  -6  -9   61.23   8.731   1
   6  -6  -9   48.17   8.152   1
  -6  -6   9   60.11    7.89   1
  -6  -6   9   60.77   6.422   1
   6   6  -9   71.74   7.676   1
   6   6  -9   69.06   14.80   1
  -6   6   9   60.13   5.833   1
  -6   6   9   58.50   5.731   1
   6  -6  -8   1.713   5.987   1
   6  -6  -8   2.356   3.805   1
  -6  -6   8 -0.1114   3.835   1
  -6  -6   8   1.448   1.777   1
   6   6  -8  -1.073   2.174   1
   6   6  -8 -0.8884   10.07   1
  -6   6   8   1.437   1.331   1
  -6   6   8   2.764   6.344   1
   6  -6  -7  610.40   58.99   1
   6  -6  -7  690.50   65.43   1
  -6  -6   7  582.90   55.50   1
  -6  -6   7  575.60   54.25   1
   6   6  -7  642.30   60.60   1
   6   6  -7  588.50   58.14   1
  -6   6   7  574.50   54.07   1
  -6   6   7  582.80   56.12   1
   6  -6  -6  334.70   33.53   1
   6  -6  -6  346.30   33.17   1
  -6  -6   6  302.00   29.22   1
  -6  -6   6  321.70   30.47   1
   6   6  -6  334.50   31.81   1
   6   6  -6  327.50   33.91   1
  -6   6   6  345.70   32.80   1
  -6   6   6  325.40   32.12   1
   6  -6  -5 1060.00  100.90   1
   6  -6  -5  811.70   76.51   1
   6   6  -5  940.40   88.48   1
  -6   6   5  915.10   86.78   1
  -6   6   5  900.40   84.72   1
   6  -6  -4   8.538    6.42   1
   6  -6  -4   4.409   2.451   1
  -6  -6   4   1.326   1.498   1
  -6  -6   4   2.315    2.99   1
   6   6  -4   4.251   2.217   1
   6   6  -4   -1.94   5.233   1
  -6   6   4   3.294   4.947   1
  -6   6   4   3.248   2.101   1
   6  -6  -3  870.20   81.96   1
   6  -6  -3 1108.00  105.30   1
  -6  -6   3  792.40   74.85   1
  -6  -6   3  880.00   82.71   1
   6   6  -3  961.10   90.43   1
   6   6  -3  704.30   67.15   1
  -6   6   3  881.20   83.49   1
  -6   6   3  757.20   71.35   1
   6  -6  -2 5800.00  544.70   1
  -6  -6   2 4313.00  404.50   1
  -6  -6   2 4308.00  403.80   1
   6   6  -2 4824.00  452.20   1
   6   6  -2 3884.00  364.70   1
  -6   6   2 4852.00  455.30   1
   6  -6  -1 1330.00  125.10   1
  -6  -6   1 1145.00  107.50   1
  -6  -6   1 1171.00  110.20   1
   6   6  -1 1243.00  116.90   1
   6   6  -1 1094.00  103.30   1
  -6   6   1 1159.00  109.10   1
   6  -6   0 1113.00  104.80   1
   6  -6   0 1213.00  115.20   1
  -6  -6   0 1049.00   98.82   1
  -6  -6   0 1031.00   96.82   1
   6   6   0  955.70   90.34   1
   6   6   0 1036.00   97.50   1
  -6   6   0 1045.00   98.48   1
  -6   6   0 1140.00  107.70   1
   6  -6   1  532.50   51.65   1
   6  -6   1  510.30   48.45   1
  -6  -6  -1  475.50   44.82   1
  -6  -6  -1  470.20   44.62   1
   6   6   1  455.50   43.14   1
   6   6   1  473.00   45.28   1
  -6   6  -1  490.80   47.13   1
  -6   6  -1  509.40   48.46   1
   6  -6   2  216.00   21.08   1
   6  -6   2  186.90   19.96   1
  -6  -6  -2  170.00   16.29   1
  -6  -6  -2  178.50   17.51   1
   6   6   2  178.70   18.05   1
   6   6   2  159.60   15.64   1
  -6   6  -2  204.60   20.88   1
  -6   6  -2  194.50   19.24   1
   6  -6   3  322.10   32.24   1
   6  -6   3  358.70   34.40   1
  -6  -6  -3  353.90   33.47   1
  -6  -6  -3  352.60   33.78   1
   6   6   3  336.50   32.24   1
   6   6   3  342.90   33.30   1
  -6   6  -3  297.00   29.44   1
  -6   6  -3  351.20   33.80   1
   6  -6   4  276.00   26.85   1
   6  -6   4  198.00   21.23   1
  -6  -6  -4  312.10   30.21   1
  -6  -6  -4  224.80   21.43   1
   6   6   4  245.30   24.05   1
   6   6   4  260.10   25.80   1
  -6   6  -4  241.70   23.73   1
  -6   6  -4  266.80   26.95   1
   6  -6   5  132.20   15.61   1
  -6  -6  -5  214.90   21.40   1
  -6  -6  -5  169.30   16.28   1
   6   6   5  171.00   17.57   1
   6   6   5  188.20   19.43   1
  -6   6  -5  199.60   21.23   1
   6  -6   6   16.01   5.076   1
   6  -6   6   22.87   9.246   1
  -6  -6  -6   21.20   5.786   1
  -6  -6  -6   14.55   2.509   1
   6   6   6   15.27   5.981   1
   6   6   6   19.64   6.586   1
  -6   6  -6   24.11   8.402   1
  -6   6  -6   14.70   4.626   1
   6  -6   7  122.50   13.34   1
   6  -6   7  115.00   16.14   1
  -6  -6  -7  122.30   14.96   1
  -6  -6  -7  100.70   10.01   1
   6   6   7  130.50   16.30   1
   6   6   7   92.32   12.57   1
  -6   6  -7  119.40   12.71   1
  -6   6  -7  115.90   11.23   1
   6  -6   8  344.00   37.34   1
   6  -6   8  328.40   32.12   1
  -6  -6  -8  375.10   35.63   1
  -6  -6  -8  313.60   34.64   1
   6   6   8  403.90   42.40   1
   6   6   8  314.20   32.68   1
  -6   6  -8  424.90   40.13   1
  -6   6  -8  352.60   34.16   1
   6  -6   9  378.20   37.10   1
  -6  -6  -9  366.80   42.61   1
  -6  -6  -9  380.80   36.35   1
   6   6   9  302.50   34.93   1
   6   6   9  343.70   38.34   1
  -6   6  -9  367.10   34.75   1
  -6   6  -9  375.90   36.51   1
   6  -6  10  165.80   19.99   1
   6  -6  10  177.70   28.39   1
  -6   6 -10  110.90   13.99   1
  -6   6 -10  139.20   13.54   1
  -6  -7  11  -5.156   6.428   1
  -6  -7  11   3.414   2.692   1
   6   7 -11  -1.409   3.779   1
   6   7 -11   -0.63   15.65   1
  -6  -7  10    2.19   5.326   1
  -6  -7  10-0.07432   2.025   1
   6   7 -10   3.905   13.35   1
   6  -7  -9   4.095   5.648   1
   6  -7  -9   7.152   5.069   1
  -6  -7   9   2.097   2.094   1
  -6  -7   9   1.686   4.476   1
   6   7  -9   1.136   2.415   1
   6  -7  -8  -2.123    3.71   1
   6  -7  -8  -6.439   6.549   1
  -6  -7   8   5.714   1.963   1
  -6  -7   8   1.847   4.118   1
   6   7  -8    5.03   2.226   1
   6   7  -8-0.07663   9.735   1
   6  -7  -7   -1.31   6.103   1
   6  -7  -7  -0.482   3.235   1
  -6  -7   7   1.235   3.722   1
  -6  -7   7  0.6108   1.779   1
   6   7  -7  -1.806   8.956   1
   6   7  -7  0.7271   1.911   1
  -6   7   7  -15.43   6.845   1
  -6   7   7  0.8585   1.686   1
   6  -7  -6   2.443   2.936   1
   6  -7  -6   2.547   6.259   1
  -6  -7   6  -1.206   3.517   1
  -6  -7   6    1.02   1.684   1
   6   7  -6 -0.3151   1.879   1
   6   7  -6  -4.138   7.949   1
  -6   7   6  -7.503   5.871   1
  -6   7   6   4.326   2.498   1
   6  -7  -5   7.572   6.681   1
   6  -7  -5   8.545   2.882   1
  -6  -7   5   14.39   2.356   1
  -6  -7   5   10.30   3.707   1
   6   7  -5   19.49   2.969   1
   6   7  -5   14.23    9.14   1
  -6   7   5   10.19   6.157   1
  -6   7   5   13.28   2.861   1
   6  -7  -4  -1.283   2.417   1
   6  -7  -4  0.8699   6.302   1
  -6  -7   4-0.02695   3.345   1
  -6  -7   4   3.289   1.573   1
   6   7  -4  -1.845   7.387   1
   6   7  -4   1.904   1.967   1
  -6   7   4  -2.904   5.585   1
  -6   7   4   5.835   2.485   1
   6  -7  -3   17.16   6.819   1
  -6  -7   3   13.59   2.193   1
  -6  -7   3   5.303    3.03   1
   6   7  -3   5.532    5.46   1
   6   7  -3   16.66   2.718   1
  -6   7   3   6.714   5.396   1
   6  -7  -2    3.73   3.038   1
  -6  -7   2  0.6781   2.832   1
  -6  -7   2   5.198   1.637   1
   6   7  -2   7.751   2.412   1
   6   7  -2   2.675    4.91   1
  -6   7   2    6.98   3.221   1
   6  -7  -1   2.934   5.286   1
   6  -7  -1  0.2029    3.30   1
  -6  -7   1   7.361   1.766   1
  -6  -7   1   4.204    3.12   1
   6   7  -1    7.43   4.458   1
   6   7  -1   6.773   2.485   1
  -6   7   1   3.275   4.678   1
  -6   7   1   8.798   3.742   1
   6  -7   0  -4.661   5.777   1
   6  -7   0  0.2005   2.913   1
  -6  -7   0  0.3974   2.814   1
  -6  -7   0   5.684   1.706   1
   6   7   0  -1.823   4.212   1
   6   7   0   4.286   2.371   1
  -6   7   0 0.06197   3.588   1
  -6   7   0   3.766   4.591   1
   6  -7   1   3.615   6.078   1
   6  -7   1   10.10   3.433   1
  -6  -7  -1   16.22   2.438   1
  -6  -7  -1   6.594   3.086   1
   6   7   1   12.87   2.959   1
   6   7   1   8.494   4.372   1
  -6   7  -1   13.73   3.867   1
  -6   7  -1   6.879   5.184   1
   6  -7   2   61.50    9.43   1
   6  -7   2   50.80    6.34   1
  -6  -7  -2   53.10   6.255   1
   6  -7   3   10.68   7.075   1
   6  -7   3   14.36   4.008   1
  -6  -7  -3   12.72   3.914   1
   6   7   3   10.63   5.218   1
   6   7   3   23.64   4.031   1
  -6   7  -3   28.03   5.156   1
  -6   7  -3    5.58   6.021   1
   6  -7   4  0.7359   7.062   1
  -6  -7  -4   9.785   4.393   1
  -6  -7  -4   13.36   2.338   1
   6   7   4   13.07   4.218   1
   6   7   4 -0.2428   4.668   1
  -6   7  -4   4.217   6.722   1
   6  -7   5  -1.102   4.061   1
  -6  -7  -5   2.233   1.839   1
  -6  -7  -5   2.449   4.617   1
   6   7   5   1.749   5.274   1
   6   7   5   4.019   4.918   1
  -6   7  -5  0.5625    4.12   1
   6  -7   6  -3.744   8.529   1
   6  -7   6 -0.7625   4.438   1
  -6  -7  -6 -0.4531    5.06   1
  -6  -7  -6 -0.9354   1.759   1
   6   7   6 -0.8223   5.278   1
   6   7   6  0.5492   6.159   1
  -6   7  -6   1.327   1.342   1
  -6   7  -6  0.3132   4.316   1
   6  -7   7  0.2996   5.049   1
   6  -7   7   4.449   9.865   1
  -6  -7  -7   1.684   1.926   1
  -6  -7  -7  0.2342   7.108   1
   6   7   7   4.784   7.485   1
   6   7   7   6.783   7.395   1
  -6   7  -7  -5.194   4.358   1
  -6   7  -7   2.948   1.532   1
   6  -7   8    5.51   5.255   1
   6  -7   8  -16.30   11.47   1
  -6  -7  -8   1.662   2.382   1
  -6  -7  -8   1.264   12.60   1
   6   7   8    7.87   11.32   1
   6   7   8   19.84   10.90   1
  -6   7  -8   8.514   4.661   1
   6  -7   9   5.346   6.581   1
   6  -7   9  -1.366   13.90   1
  -6  -7  -9  -6.966   19.68   1
  -6  -7  -9   4.327   2.895   1
   6   7   9  -23.60   19.84   1
   6   7   9  -2.764   13.91   1
  -6   7  -9  0.3649   1.486   1
  -6   7  -9   11.54   5.354   1
   6  -7  10  -12.24   9.908   1
   6  -7  10   -2.30   17.35   1
  -6   7 -10   3.553    6.48   1
  -6  -8  11  111.30   13.78   1
  -6  -8  11  141.20   14.06   1
   6   8 -11  144.10   14.80   1
   6   8 -11  148.90   25.03   1
  -6  -8  10  178.90   17.30   1
  -6  -8  10  189.90   19.94   1
   6   8 -10  181.80   17.80   1
   6   8 -10  176.50   24.84   1
  -6  -8   9   92.66   9.273   1
   6   8  -9  125.10   19.69   1
   6   8  -9   97.63   9.866   1
   6  -8  -8   39.45    5.94   1
   6  -8  -8   51.08    9.30   1
  -6  -8   8   39.97   6.427   1
   6   8  -8   38.29   4.485   1
  -6   8   8   35.72   3.788   1
   6  -8  -7  339.40   32.56   1
  -6  -8   7  374.80   36.24   1
  -6  -8   7  344.50   32.65   1
   6   8  -7  362.20   34.36   1
   6   8  -7  294.60   31.79   1
  -6   8   7  291.60   29.59   1
  -6   8   7  377.00   35.65   1
   6  -8  -6  536.20   50.80   1
   6  -8  -6  471.20   45.99   1
  -6  -8   6  538.10   51.36   1
  -6  -8   6  492.50   46.48   1
   6   8  -6  510.60   51.07   1
   6   8  -6  545.00   51.44   1
  -6   8   6  570.50   53.87   1
  -6   8   6  509.70   49.45   1
   6  -8  -5  381.60   36.31   1
   6  -8  -5  371.90   36.81   1
  -6  -8   5  419.00   40.22   1
  -6  -8   5  392.70   37.13   1
   6   8  -5  423.90   40.12   1
   6   8  -5  436.80   44.19   1
  -6   8   5  374.80   36.70   1
  -6   8   5  376.20   35.72   1
   6  -8  -4   12.64    6.66   1
  -6  -8   4   4.401   1.685   1
  -6  -8   4  0.9842   3.428   1
   6   8  -4  0.4017   1.791   1
   6   8  -4   2.684   8.156   1
  -6   8   4   1.255   5.688   1
   6  -8  -3  899.90   84.86   1
  -6  -8   3  778.50   73.65   1
  -6  -8   3  870.00   81.79   1
   6   8  -3  846.70   81.41   1
   6   8  -3  897.30   84.44   1
  -6   8   3  842.30   79.46   1
   6  -8  -2 1962.00  184.30   1
   6  -8  -2 1699.00  160.60   1
  -6  -8   2 1771.00  166.50   1
  -6  -8   2 1870.00  175.50   1
   6   8  -2 1663.00  157.10   1
   6   8  -2 1953.00  183.30   1
  -6   8   2 1905.00  179.50   1
  -6   8   2 1811.00  170.20   1
   6  -8  -1 3184.00  299.70   1
   6  -8  -1 3527.00  330.80   1
  -6  -8   1 3293.00  309.10   1
  -6  -8   1 3266.00  306.20   1
   6   8  -1 3134.00  294.70   1
   6   8  -1 3604.00  337.90   1
  -6   8   1 3376.00  316.80   1
  -6   8   1 3420.00  321.30   1
   6  -8   0  574.30   55.52   1
   6  -8   0  585.80   55.50   1
  -6  -8   0  552.50   52.40   1
  -6  -8   0  573.70   54.04   1
   6   8   0  516.90   49.76   1
   6   8   0  619.20   58.48   1
  -6   8   0  522.90   49.76   1
  -6   8   0  607.40   58.13   1
   6  -8   1   33.35   4.979   1
   6  -8   1   41.05   8.128   1
  -6  -8  -1   53.81   5.583   1
  -6  -8  -1   42.48   5.464   1
   6   8   1   51.12   5.821   1
   6   8   1   41.59   6.866   1
  -6   8  -1   47.12   6.283   1
   6  -8   2   47.08   8.565   1
   6  -8   2   41.48   5.581   1
  -6  -8  -2   34.77   4.818   1
   6   8   2   55.14   6.194   1
   6   8   2   46.62   7.358   1
  -6   8  -2   28.55   6.661   1
  -6   8  -2   49.04   6.619   1
   6  -8   3  530.00   50.42   1
   6  -8   3  464.20   45.59   1
  -6  -8  -3  522.10   49.58   1
  -6  -8  -3  518.80   48.93   1
   6   8   3  452.00   42.92   1
   6   8   3  470.20   45.41   1
  -6   8  -3  459.20   43.93   1
  -6   8  -3  517.70   50.18   1
   6  -8   4  541.40   51.61   1
   6  -8   4  439.70   43.74   1
  -6  -8  -4  454.70   42.93   1
  -6  -8  -4  586.30   55.72   1
   6   8   4  461.10   44.70   1
   6   8   4  468.00   44.59   1
  -6   8  -4  457.90   43.90   1
   6  -8   5   77.72   12.42   1
   6  -8   5  113.30   12.21   1
  -6  -8  -5   91.46   9.089   1
  -6  -8  -5  108.00   11.90   1
   6   8   5  109.00   11.95   1
   6   8   5   94.08   11.95   1
  -6   8  -5   84.12   9.749   1
  -6   8  -5   77.32   7.626   1
   6  -8   6   5.286   4.656   1
   6  -8   6  -2.047   9.532   1
  -6  -8  -6   9.389   5.297   1
  -6  -8  -6   2.049   1.915   1
   6   8   6  0.7658   7.038   1
   6   8   6   3.724   5.136   1
  -6   8  -6  -1.393   1.384   1
  -6   8  -6  0.1963   4.504   1
   6  -8   7   98.15   16.26   1
   6  -8   7   55.04   8.682   1
  -6  -8  -7   80.99   8.224   1
  -6  -8  -7   54.09   9.181   1
   6   8   7   54.52   11.52   1
   6   8   7   71.51   11.16   1
   6  -8   8  398.60   38.97   1
   6  -8   8  413.90   43.65   1
  -6  -8  -8  386.50   36.74   1
  -6  -8  -8  420.00   43.77   1
   6   8   8  426.00   45.84   1
   6   8   8  448.90   46.38   1
  -6   8  -8  388.60   37.78   1
  -6   8  -8  382.20   36.15   1
   6  -8   9  434.20   47.63   1
   6  -8   9  446.70   43.82   1
  -6  -8  -9  317.80   40.40   1
  -6   8  -9  408.70   39.94   1
  -6   8  -9  431.90   40.85   1
   6  -8  10   83.02   16.66   1
   6  -8  10  130.00   17.27   1
  -6   8 -10   80.54   10.45   1
  -6  -9  11  0.7833   2.552   1
  -6  -9  11  0.3714   6.587   1
   6   9 -11  0.8742   3.284   1
  -6  -9  10   8.966   5.883   1
  -6  -9  10   1.868   2.046   1
   6   9 -10 -0.0259    2.45   1
   6   9 -10  -16.13   13.68   1
  -6  -9   9  -2.028   1.899   1
  -6  -9   9  -1.835   4.815   1
   6   9  -9  0.5013   12.39   1
   6   9  -9  -1.642   2.051   1
   6  -9  -8   3.349    3.86   1
   6  -9  -8   5.367   8.102   1
  -6  -9   8   7.793   4.596   1
  -6  -9   8   9.193   2.195   1
   6   9  -8   18.48   12.05   1
   6   9  -8   6.239   2.137   1
  -6   9   8   4.536   1.428   1
  -6   9   8   3.833   1.503   1
   6  -9  -7    5.87   3.234   1
   6  -9  -7   9.532    7.78   1
  -6  -9   7   8.714    2.12   1
  -6  -9   7   4.303   4.249   1
   6   9  -7   8.674   9.644   1
  -6   9   7   10.32   2.607   1
  -6   9   7   6.238   1.496   1
   6  -9  -6   2.414   6.753   1
   6  -9  -6   1.767   2.812   1
  -6  -9   6   6.447   3.969   1
   6   9  -6   8.996    2.07   1
  -6   9   6  -3.784   6.935   1
  -6   9   6   9.126   2.646   1
   6  -9  -5  0.1463   6.553   1
  -6  -9   5   1.332   1.683   1
  -6  -9   5   1.371   4.053   1
   6   9  -5   3.579    9.68   1
   6   9  -5  0.5349   1.878   1
  -6   9   5  -2.411   6.379   1
   6  -9  -4  -2.109   3.124   1
  -6  -9   4  0.4437   1.633   1
  -6  -9   4  -2.993   3.693   1
   6   9  -4   1.708   8.847   1
   6   9  -4   5.286   1.954   1
  -6   9   4  0.9622   3.058   1
   6  -9  -3   16.89   6.725   1
  -6  -9   3   13.40   3.984   1
  -6  -9   3   24.43    3.10   1
   6   9  -3   28.88   3.622   1
   6   9  -3    7.80   8.306   1
  -6   9   3   7.561   6.187   1
  -6   9   3   24.29   4.439   1
   6  -9  -2  -1.738   6.135   1
  -6  -9   2   1.936   3.298   1
  -6  -9   2   8.845    1.98   1
   6   9  -2   9.071   2.336   1
   6   9  -2   12.15   7.607   1
   6  -9  -1   1.313    6.67   1
   6  -9  -1  0.7572   3.043   1
  -6  -9   1   1.082   1.602   1
  -6  -9   1   0.597   3.174   1
   6   9  -1    1.75   2.178   1
   6   9  -1   2.936   6.682   1
  -6   9   1  0.2163   3.632   1
  -6   9   1  0.4529   5.754   1
   6  -9   0  -3.342   6.647   1
   6  -9   0   1.745   3.294   1
  -6  -9   0-0.04374   1.599   1
  -6  -9   0   2.788   3.199   1
   6   9   0 -0.7247   2.324   1
   6   9   0   8.389   6.305   1
  -6   9   0   2.116   3.731   1
  -6   9   0  0.0927    5.64   1
   6  -9   1   22.86   4.397   1
   6  -9   1   4.427   6.982   1
  -6  -9  -1   14.26   3.838   1
   6   9   1   21.25   6.871   1
  -6   9  -1   28.58   5.016   1
  -6   9  -1   6.065   5.955   1
   6  -9   2   21.20    7.70   1
   6  -9   2   26.65   4.827   1
  -6  -9  -2   25.12   4.346   1
   6   9   2   23.81   6.846   1
   6   9   2   36.96   4.784   1
  -6   9  -2   32.53   5.393   1
  -6   9  -2   7.103   6.361   1
   6  -9   3   10.92   4.197   1
   6  -9   3   24.10   8.209   1
  -6  -9  -3   13.18   3.679   1
  -6  -9  -3   25.27   3.247   1
   6   9   3   20.07    3.57   1
   6   9   3   12.26    6.11   1
  -6   9  -3   18.87   7.602   1
  -6   9  -3   11.51   4.711   1
   6  -9   4 -0.1582   3.952   1
   6  -9   4 -0.5247   7.537   1
  -6  -9  -4  -3.436   3.635   1
  -6  -9  -4    1.08   1.753   1
   6   9   4   0.757   3.122   1
   6   9   4  0.1041   5.896   1
  -6   9  -4  0.1528   1.236   1
  -6   9  -4  0.3501   4.174   1
   6  -9   5   2.849   4.677   1
   6  -9   5   9.305   9.131   1
  -6  -9  -5   4.405   5.138   1
  -6  -9  -5   2.056   1.869   1
   6   9   5   1.718   7.509   1
   6   9   5  0.7577    4.33   1
  -6   9  -5   1.038    4.43   1
  -6   9  -5   3.999   1.442   1
   6  -9   6-0.09369   9.693   1
   6  -9   6 -0.7092   4.269   1
  -6  -9  -6   4.903   5.419   1
  -6  -9  -6   2.832   1.912   1
   6   9   6   6.073   8.949   1
   6   9   6    1.61   5.186   1
  -6   9  -6 -0.1637   4.543   1
  -6   9  -6   1.392   1.454   1
   6  -9   7   5.314   5.315   1
  -6  -9  -7 -0.2544   1.985   1
  -6  -9  -7   3.249   6.587   1
   6   9   7  -9.809   12.27   1
   6   9   7   5.696   7.013   1
  -6   9  -7  0.5312   1.439   1
  -6   9  -7  -1.758   5.065   1
   6  -9   8  -16.31   12.77   1
   6  -9   8   16.47   6.567   1
  -6  -9  -8   8.552   2.723   1
  -6  -9  -8   6.211   12.51   1
   6   9   8    7.83   18.24   1
   6   9   8   16.65   11.92   1
  -6   9  -8   5.727   5.795   1
  -6   9  -8   7.946   1.816   1
   6  -9   9  -6.927   7.666   1
   6  -9   9  -4.796   16.33   1
  -6   9  -9   1.198   1.712   1
  -6   9  -9   2.676   6.222   1
   6  -9  10   12.15   8.855   1
  -6   9 -10   13.42    3.27   1
  -6 -10  11   39.99   9.455   1
  -6 -10  11   19.79   3.573   1
   6  10 -11   35.44   5.251   1
   6  10 -11   66.06   22.15   1
  -6 -10  10  102.50   12.75   1
   6  10 -10   79.47   19.87   1
   6  10 -10   93.18    9.62   1
  -6 -10   9 -0.7457   4.985   1
  -6 -10   9   1.209   1.973   1
   6  10  -9   11.88   13.95   1
   6  10  -9  0.3136   2.057   1
   6 -10  -8   44.19   10.06   1
   6 -10  -8   34.34   5.503   1
  -6 -10   8   26.76   6.111   1
  -6 -10   8   25.98   3.436   1
   6  10  -8   18.93   13.72   1
   6  10  -8   23.81   3.268   1
  -6  10   8   23.19   2.848   1
  -6  10   8   26.17   3.072   1
   6 -10  -7  708.50   67.04   1
   6 -10  -7  659.20   64.54   1
  -6 -10   7  697.80   65.71   1
  -6 -10   7  756.80   72.09   1
   6  10  -7  686.20   64.67   1
   6  10  -7  604.40   60.80   1
  -6  10   7  823.50   77.58   1
  -6  10   7  653.00   61.43   1
   6 -10  -6  221.90   23.98   1
   6 -10  -6  233.90   22.63   1
  -6 -10   6  219.30   20.94   1
   6  10  -6  234.80   26.81   1
  -6  10   6  181.70   17.34   1
  -6  10   6  214.10   20.64   1
   6 -10  -5  237.90   23.05   1
  -6 -10   5  222.10   22.13   1
   6  10  -5  207.50   19.87   1
  -6  10   5  196.00   18.66   1
  -6  10   5  208.50   20.20   1
   6 -10  -4   5.414   6.498   1
   6 -10  -4  0.3472   3.451   1
  -6 -10   4  0.4777   1.604   1
  -6 -10   4   6.043   4.347   1
   6  10  -4   1.469   1.873   1
   6  10  -4   -1.66   10.04   1
  -6  10   4   -3.07   5.986   1
  -6  10   4  -1.926   3.335   1
   6 -10  -3  792.00   75.96   1
   6 -10  -3  960.50   90.62   1
  -6 -10   3  903.50   85.52   1
  -6 -10   3  874.50   82.22   1
   6  10  -3  903.00   84.96   1
   6  10  -3  956.10   92.37   1
  -6  10   3  807.30   77.04   1
  -6  10   3  877.00   82.86   1
   6 -10  -2 2312.00  217.20   1
   6 -10  -2 1829.00  172.90   1
  -6 -10   2 2228.00  209.40   1
  -6 -10   2 2156.00  202.20   1
   6  10  -2 2458.00  232.50   1
   6  10  -2 2233.00  209.60   1
  -6  10   2 2056.00  193.30   1
  -6  10   2 2187.00  206.10   1
   6 -10  -1  111.50   14.08   1
   6 -10  -1  106.00   11.07   1
  -6 -10   1   95.18   10.31   1
  -6 -10   1  102.20   10.06   1
   6  10  -1  104.50   10.41   1
   6  10  -1  107.20   14.44   1
  -6  10   1  124.10   14.27   1
  -6  10   1   95.33   10.39   1
   6 -10   0  -2.511   6.799   1
   6 -10   0   4.694   3.487   1
  -6 -10   0   6.304   1.806   1
  -6 -10   0   6.254   3.445   1
   6  10   0   13.65   8.208   1
   6  10   0   8.716   2.626   1
  -6  10   0  -1.651   6.007   1
  -6  10   0   1.351   3.856   1
   6 -10   1   7.951   7.848   1
   6 -10   1   6.672   3.746   1
  -6 -10  -1   4.656   3.604   1
  -6 -10  -1   5.119   1.771   1
   6  10   1   4.878   2.598   1
   6  10   1  -1.429   7.378   1
  -6  10  -1   4.678   4.013   1
  -6  10  -1   12.85   6.841   1
   6 -10   2  138.90   16.64   1
   6 -10   2  131.40   13.53   1
  -6 -10  -2  138.10   13.96   1
  -6 -10  -2  141.80   13.72   1
   6  10   2  126.40   15.31   1
   6  10   2  123.20   12.30   1
  -6  10  -2  148.60   16.77   1
  -6  10  -2  120.20   12.78   1
   6 -10   3  907.30   87.16   1
   6 -10   3  935.20   88.38   1
  -6 -10  -3 1028.00   96.94   1
  -6 -10  -3 1271.00  119.30   1
   6  10   3  997.60   95.48   1
   6  10   3 1001.00   94.27   1
  -6  10  -3 1037.00   98.04   1
  -6  10  -3 1197.00  112.40   1
   6 -10   4  140.50   17.42   1
   6 -10   4  141.60   14.60   1
  -6 -10  -4  144.40   14.64   1
  -6 -10  -4  127.30   12.41   1
   6  10   4  104.30   10.77   1
   6  10   4  147.40   17.73   1
  -6  10  -4  124.70   13.21   1
   6 -10   5  113.60   16.17   1
   6 -10   5  104.00   11.48   1
  -6 -10  -5   76.36    7.73   1
  -6 -10  -5  110.10   12.19   1
   6  10   5   82.42   14.17   1
   6  10   5   77.73   8.977   1
  -6  10  -5   76.97    9.30   1
   6 -10   6   27.87   11.69   1
   6 -10   6   24.24   5.787   1
  -6 -10  -6   14.47   2.557   1
  -6 -10  -6   20.99   6.592   1
   6  10   6   19.50   13.03   1
   6  10   6   24.48   6.157   1
  -6  10  -6   15.76   2.364   1
  -6  10  -6   29.50   5.957   1
   6 -10   7   95.33   11.29   1
   6 -10   7  101.00   17.13   1
  -6 -10  -7   87.77   12.02   1
  -6 -10  -7   96.54   9.741   1
   6  10   7  114.10   20.69   1
   6  10   7   83.34   11.45   1
  -6  10  -7   92.69   11.15   1
  -6  10  -7  114.00   11.10   1
   6 -10   8  391.30   42.68   1
  -6 -10  -8  338.30   36.67   1
  -6 -10  -8  381.60   36.38   1
   6  10   8  423.70   44.70   1
   6  10   8  353.90   44.14   1
  -6  10  -8  373.70   35.36   1
   6 -10   9  343.80   34.99   1
   6 -10   9  301.60   36.10   1
  -6  10  -9  281.20   28.55   1
  -6  10  -9  285.40   27.17   1
  -6 -11  11   1.352    2.57   1
  -6 -11  11  0.2762   8.188   1
   6  11 -11   14.28   18.75   1
   6  11 -11   5.499    3.00   1
  -6 -11  10  -5.136   6.495   1
  -6 -11  10  -2.492    2.11   1
   6  11 -10 -0.1726   15.88   1
   6  11 -10  -1.311   2.311   1
  -6 -11   9    7.05   5.508   1
  -6 -11   9  0.7055   2.035   1
   6  11  -9   4.342   14.71   1
   6  11  -9  0.2745   2.112   1
   6 -11  -8   5.126   9.329   1
   6 -11  -8   1.583   3.997   1
  -6 -11   8  0.1025   4.967   1
  -6 -11   8   3.806   2.039   1
   6  11  -8   3.748   1.957   1
   6  11  -8  -1.021   13.60   1
  -6  11   8   2.899   1.831   1
  -6  11   8    1.21   1.481   1
   6 -11  -7   2.839   3.251   1
  -6 -11   7   14.38   2.531   1
  -6 -11   7   10.83   5.063   1
   6  11  -7  -20.62   11.93   1
   6  11  -7   8.875   2.227   1
  -6  11   7   11.83   1.991   1
  -6  11   7   9.862   2.825   1
   6 -11  -6  -0.384   2.967   1
   6 -11  -6  -9.589   8.683   1
  -6 -11   6 -0.4839   4.364   1
  -6 -11   6  -0.546   1.776   1
   6  11  -6  0.7549   10.96   1
   6  11  -6  0.5137   1.766   1
  -6  11   6  -4.529   2.793   1
  -6  11   6    2.14   1.381   1
   6 -11  -5  0.8342   3.519   1
   6 -11  -5   5.072   7.865   1
  -6 -11   5   2.241   4.516   1
  -6 -11   5  -1.202   1.733   1
   6  11  -5   3.362   10.80   1
   6  11  -5 -0.3276   1.757   1
  -6  11   5  -2.038    1.34   1
  -6  11   5   1.445    3.14   1
   6 -11  -4  0.8125   7.532   1
   6 -11  -4  -1.982   3.858   1
  -6 -11   4    1.30   1.703   1
   6  11  -4   3.967   10.29   1
  -6  11   4   0.872   3.905   1
  -6  11   4   1.803   1.292   1
   6 -11  -3   9.896   4.001   1
   6 -11  -3   11.38   7.768   1
  -6 -11   3   16.22   4.696   1
   6  11  -3   19.33    2.89   1
  -6  11   3   5.931   4.105   1
   6 -11  -2   23.55   4.667   1
   6 -11  -2   18.86   7.954   1
  -6 -11   2   36.99   5.668   1
  -6  11   2   10.93   6.996   1
  -6  11   2   33.58   5.583   1
   6 -11  -1 -0.5352    7.85   1
   6 -11  -1  -8.071   3.383   1
  -6 -11   1  0.2358   1.681   1
  -6 -11   1  -3.443   3.777   1
   6  11  -1  -1.942   8.727   1
   6  11  -1   1.194   2.122   1
  -6  11   1   9.902   7.026   1
  -6  11   1    2.83   3.951   1
   6 -11   0   6.972   7.875   1
   6 -11   0-0.03788   3.414   1
  -6 -11   0   2.031    3.72   1
  -6 -11   0   3.013   1.795   1
   6  11   0   4.649   2.425   1
   6  11   0  -2.803   8.917   1
  -6  11   0   8.631   6.571   1
  -6  11   0 -0.6345   4.057   1
   6 -11   1   9.094   7.899   1
   6 -11   1   1.295   3.877   1
  -6 -11  -1  0.2398   3.568   1
  -6  11  -1  0.8754   4.288   1
   6 -11   2   1.949   7.831   1
   6 -11   2  -1.413   3.687   1
  -6 -11  -2   2.256   1.848   1
  -6 -11  -2  0.1887   3.291   1
   6  11   2  -2.086   9.564   1
   6  11   2   1.903   2.552   1
  -6  11  -2  -1.159   4.443   1
  -6  11  -2  0.5773   1.274   1
   6 -11   3   72.99   11.87   1
   6  11   3  108.60   11.04   1
  -6  11  -3   86.16   9.947   1
   6 -11   4   12.32   4.794   1
   6 -11   4   27.86   9.962   1
  -6 -11  -4   21.93   4.539   1
  -6 -11  -4   29.47   3.659   1
   6  11   4   30.26   4.563   1
   6  11   4   21.63   11.21   1
  -6  11  -4   15.19   4.812   1
   6 -11   5  -8.445   9.182   1
  -6 -11  -5   6.802   4.663   1
  -6 -11  -5   2.335   1.965   1
   6  11   5  -13.78   11.71   1
   6  11   5  -2.747   3.842   1
  -6  11  -5   2.064   1.396   1
   6 -11   6   1.943   10.07   1
   6 -11   6  -3.493   5.052   1
  -6 -11  -6  -3.374   6.285   1
  -6 -11  -6 -0.7557   1.912   1
   6  11   6  0.3919   5.573   1
   6  11   6   5.237   14.26   1
  -6  11  -6  0.6975   4.826   1
  -6  11  -6   4.202   1.432   1
   6 -11   7  -3.452   10.57   1
   6 -11   7   4.698   5.367   1
  -6 -11  -7   6.545   7.504   1
  -6 -11  -7   1.123    2.21   1
   6  11   7   16.85   17.79   1
   6  11   7   0.909   6.342   1
  -6  11  -7   4.962   1.643   1
  -6  11  -7 -0.7961   5.512   1
   6 -11   8  -4.034   6.721   1
   6 -11   8  -10.35   14.09   1
  -6 -11  -8  -2.361   2.693   1
  -6 -11  -8   20.87   13.56   1
   6  11   8  -12.78   12.49   1
   6  11   8   30.23   25.23   1
  -6  11  -8  -4.698   5.953   1
  -6  11  -8   1.214   1.454   1
   6 -11   9   12.41   14.72   1
  -6  11  -9   19.64   2.961   1
  -6 -12  11   41.54   10.96   1
  -6 -12  11   48.53   6.368   1
   6  12 -11   61.02   7.283   1
   6  12 -11   49.62   18.45   1
  -6 -12  10   51.06    9.67   1
  -6 -12  10   51.39   5.807   1
   6  12 -10   55.36   6.295   1
   6  12 -10   70.55   20.85   1
  -6 -12   9   18.36    2.93   1
  -6 -12   9   18.69   6.688   1
   6  12  -9   20.88   16.28   1
   6  12  -9   17.25   2.983   1
   6 -12  -8  219.10   24.96   1
   6 -12  -8  217.30   21.51   1
  -6 -12   8  234.30   22.44   1
  -6 -12   8  205.10   21.60   1
   6  12  -8  204.90   27.93   1
  -6  12   8  239.70   22.92   1
  -6  12   8  212.20   20.22   1
   6 -12  -7  253.60   24.71   1
   6 -12  -7  312.20   33.57   1
  -6 -12   7  310.30   29.48   1
  -6 -12   7  300.30   29.76   1
   6  12  -7  300.30   28.59   1
   6  12  -7  323.20   36.77   1
  -6  12   7  281.90   27.03   1
  -6  12   7  297.40   28.21   1
   6 -12  -6  106.40   11.07   1
   6 -12  -6   98.10   15.06   1
  -6 -12   6  104.60   12.00   1
  -6 -12   6   89.13   8.908   1
   6  12  -6   83.87   17.04   1
   6  12  -6   80.95   8.173   1
  -6  12   6   75.40   8.082   1
   6 -12  -5  192.30   19.11   1
   6 -12  -5  170.00   20.28   1
  -6 -12   5  172.90   16.64   1
  -6 -12   5  195.60   20.04   1
   6  12  -5  157.90   15.26   1
   6  12  -5  152.10   20.96   1
  -6  12   5  178.60   17.10   1
  -6  12   5  171.10   17.07   1
   6 -12  -4  123.30   12.95   1
   6 -12  -4  109.60   14.85   1
  -6 -12   4  122.50   13.40   1
  -6 -12   4  127.80   12.43   1
   6  12  -4  130.60   12.73   1
   6  12  -4  101.80   16.39   1
  -6  12   4  135.40   13.08   1
  -6  12   4  121.10   12.71   1
   6 -12  -3   32.29   9.163   1
   6 -12  -3   21.84   4.895   1
  -6 -12   3   20.36   4.863   1
  -6 -12   3   31.07   3.656   1
   6  12  -3   10.38   11.76   1
   6  12  -3   27.84   3.478   1
  -6  12   3   21.75   4.966   1
  -6  12   3   39.77   4.258   1
   6 -12  -2   3.181   4.101   1
   6 -12  -2   2.605   7.986   1
  -6 -12   2   7.274   1.956   1
   6  12  -2   5.778   11.18   1
  -6  12   2   5.544   1.538   1
  -6  12   2   14.07   4.573   1
   6 -12  -1  451.40   45.07   1
   6 -12  -1  433.50   41.48   1
  -6 -12   1  527.50   49.77   1
  -6 -12   1  554.00   53.05   1
   6  12  -1  523.00   49.44   1
   6  12  -1  495.90   50.20   1
  -6  12   1  414.30   39.92   1
   6 -12   0  487.40   46.53   1
   6 -12   0  485.70   48.38   1
  -6 -12   0  504.50   47.64   1
  -6 -12   0  487.30   46.58   1
   6  12   0  545.60   51.59   1
   6  12   0  533.20   53.80   1
  -6  12   0  462.70   44.40   1
  -6  12   0  459.60   43.37   1
   6 -12   1   46.12   6.416   1
   6 -12   1   37.74   9.754   1
  -6 -12  -1   46.04   6.141   1
   6  12   1   57.99    6.43   1
  -6  12  -1   55.58   5.682   1
  -6  12  -1   50.41   7.279   1
   6 -12   2  357.70   36.75   1
   6 -12   2  295.80   28.69   1
  -6 -12  -2  336.20   32.43   1
   6  12   2  365.30   34.82   1
  -6  12  -2  386.50   36.53   1
  -6  12  -2  317.50   30.94   1
   6 -12   3  866.80   82.07   1
   6 -12   3  915.60   88.56   1
  -6 -12  -3  883.50   83.50   1
   6  12   3  881.50   83.13   1
  -6  12  -3  936.90   88.05   1
  -6  12  -3  874.90   82.98   1
   6 -12   4 1140.00  109.80   1
  -6 -12  -4 1123.00  105.60   1
  -6 -12  -4 1081.00  102.10   1
   6  12   4  961.40   90.64   1
  -6  12  -4 1011.00   95.03   1
  -6 -12  -5  267.30   25.48   1
  -6 -12  -5  286.20   28.13   1
   6  12   5  265.00   31.47   1
   6  12   5  254.10   24.80   1
  -6  12  -5  250.60   23.82   1
   6 -12   6   1.638   4.947   1
   6 -12   6  -12.48   10.65   1
  -6 -12  -6   2.447   7.251   1
  -6 -12  -6  0.1596   1.963   1
   6  12   6  0.6465   13.70   1
   6  12   6   1.885    5.68   1
  -6  12  -6  0.8306   4.806   1
  -6  12  -6 -0.4863   1.316   1
   6 -12   7  145.40   21.26   1
   6 -12   7  128.20   14.46   1
  -6 -12  -7  103.60   13.77   1
  -6 -12  -7  120.90   12.18   1
   6  12   7  117.20   14.29   1
  -6  12  -7  140.10   15.47   1
   6 -12   8  140.20   21.99   1
   6 -12   8  147.30   17.03   1
  -6  12  -8  126.00   14.51   1
  -6  12  -8  126.30   12.30   1
  -6 -13  11   3.339   5.227   1
  -6 -13  11   5.098   6.337   1
   6  13 -11   1.986   4.054   1
  -6 -13  10 -0.7541   2.198   1
  -6 -13  10   3.097   8.794   1
   6  13 -10 -0.2325   2.706   1
   6  13 -10   30.16   19.47   1
  -6 -13   9  -2.288   6.296   1
  -6 -13   9   2.874   2.137   1
   6  13  -9  -1.716   1.985   1
   6  13  -9   10.55   17.23   1
   6 -13  -8    1.64   4.347   1
   6 -13  -8   26.08   10.82   1
  -6 -13   8  -6.979   5.798   1
  -6 -13   8  -2.222   2.104   1
   6  13  -8   1.842   1.993   1
   6  13  -8  -3.391   14.85   1
  -6  13   8   2.407   1.826   1
  -6  13   8   0.566   2.899   1
   6 -13  -7  0.1792   3.447   1
  -6 -13   7  0.9749   1.932   1
   6  13  -7  -5.327   13.71   1
  -6  13   7   1.655   2.911   1
  -6  13   7 -0.1862   1.658   1
   6 -13  -6  -4.406   3.652   1
   6 -13  -6   5.329   10.04   1
  -6 -13   6   1.797   5.285   1
  -6 -13   6  0.1113   2.073   1
   6  13  -6   2.027    1.89   1
  -6  13   6  -2.501   3.115   1
  -6  13   6   2.619    1.54   1
   6 -13  -5  0.1245   4.425   1
   6 -13  -5   8.577   9.377   1
  -6 -13   5 -0.7064   1.717   1
  -6 -13   5   3.852   5.013   1
   6  13  -5  0.1384   1.779   1
   6  13  -5  -4.332   11.87   1
  -6  13   5   1.585   4.255   1
  -6  13   5  0.3939    1.36   1
   6 -13  -4   5.928   9.179   1
   6 -13  -4  -2.787   4.197   1
  -6 -13   4 -0.8784   4.467   1
  -6 -13   4  -1.391   1.767   1
   6  13  -4 -0.1785   1.709   1
   6  13  -4   13.53   11.55   1
  -6  13   4  0.2717   1.464   1
  -6  13   4   5.326    4.10   1
   6 -13  -3   6.684   8.878   1
   6 -13  -3   3.359   4.098   1
  -6 -13   3   1.473   1.768   1
  -6 -13   3    5.24   4.311   1
   6  13  -3    3.42   1.892   1
   6  13  -3   -3.51   11.22   1
  -6  13   3   6.613   4.347   1
  -6  13   3   1.846   1.491   1
   6 -13  -2   71.02   12.58   1
  -6 -13   2   85.77   9.965   1
   6  13  -2   83.92   15.59   1
   6  13  -2  115.50   11.38   1
   6 -13  -1   2.562   4.062   1
  -6 -13   1 -0.3193   1.776   1
  -6 -13   1 -0.6994   4.197   1
   6  13  -1  -2.325   1.968   1
   6  13  -1   9.034   11.51   1
  -6  13   1   5.001   4.499   1
   6 -13   0  -13.15    8.80   1
   6 -13   0  -2.195   3.781   1
  -6 -13   0   1.026   4.033   1
  -6 -13   0   1.616   1.818   1
   6  13   0  0.7519    2.08   1
   6  13   0  -4.827   11.82   1
  -6  13   0   0.312   1.342   1
  -6  13   0   3.297   4.345   1
   6 -13   1   2.247   4.035   1
   6 -13   1   12.63   9.312   1
  -6 -13  -1   10.13   4.166   1
  -6 -13  -1   14.08   2.467   1
   6  13   1  -1.872   11.72   1
   6  13   1   15.28   3.166   1
  -6  13  -1   14.25   5.002   1
  -6  13  -1   19.15   2.542   1
   6 -13   2    1.17    4.19   1
   6 -13   2   5.988   9.119   1
  -6 -13  -2 -0.2402   1.778   1
  -6 -13  -2  0.1977   3.677   1
   6  13   2 -0.7718   2.669   1
   6  13   2  -6.975   12.32   1
  -6  13  -2   3.253    4.63   1
  -6  13  -2   1.445   1.398   1
   6 -13   3  -2.521    4.30   1
   6 -13   3   17.17    9.69   1
  -6 -13  -3   7.647   2.201   1
  -6 -13  -3   -1.97   3.794   1
   6  13   3   4.456    3.04   1
   6  13   3  -10.43   11.78   1
  -6  13  -3   6.194   5.241   1
  -6  13  -3   9.984   1.858   1
   6 -13   4   7.578   9.856   1
   6 -13   4   8.473   4.733   1
  -6 -13  -4   14.45    2.56   1
  -6 -13  -4   6.658   4.218   1
   6  13   4   2.803   12.82   1
   6  13   4   8.272   3.294   1
  -6  13  -4   14.88   5.314   1
  -6  13  -4   13.63   2.144   1
   6 -13   5   24.38   12.09   1
   6 -13   5  0.5154   5.122   1
  -6 -13  -5   11.75   4.946   1
  -6 -13  -5   11.47   2.544   1
   6  13   5  0.7447   13.20   1
   6  13   5   12.95   4.056   1
  -6  13  -5   17.59   5.317   1
  -6  13  -5   20.98   2.677   1
   6 -13   6  -2.389   11.62   1
  -6 -13  -6    2.36    6.46   1
  -6 -13  -6   4.632   2.252   1
   6  13   6   12.36   16.79   1
   6  13   6  -1.382   5.533   1
  -6  13  -6   2.895   1.475   1
   6 -13   7  -3.646   13.06   1
   6 -13   7   4.411   6.214   1
  -6 -13  -7   12.79   9.577   1
  -6 -13  -7   2.884   2.859   1
   6  13   7   23.52   21.30   1
  -6  13  -7-0.00047   5.532   1
  -6  13  -7   4.236   1.602   1
  -6 -14  10   60.03    6.72   1
  -6 -14  10   44.04   9.794   1
   6  14 -10   19.49   19.05   1
   6  14 -10   51.02   6.194   1
  -6 -14   9  0.9712   2.035   1
  -6 -14   9   1.442    6.83   1
   6  14  -9  -2.845   2.083   1
   6  14  -9   11.35   17.31   1
   6 -14  -8   68.94   15.18   1
   6 -14  -8   60.91   8.218   1
  -6 -14   8   50.91   5.613   1
  -6 -14   8   67.32   9.772   1
   6  14  -8   56.96   6.169   1
   6  14  -8   73.17   19.70   1
  -6  14   8   67.74   7.077   1
  -6  14   8   74.18   8.341   1
   6 -14  -7  407.00   39.03   1
   6 -14  -7  472.60   48.84   1
  -6 -14   7  462.50   43.76   1
  -6 -14   7  494.70   48.06   1
   6  14  -7  434.40   47.68   1
   6  14  -7  429.60   40.69   1
  -6  14   7  425.60   40.56   1
  -6  14   7  471.00   44.62   1
   6 -14  -6  251.10   24.72   1
   6 -14  -6  289.50   32.83   1
  -6 -14   6  255.30   25.83   1
  -6 -14   6  249.50   23.83   1
   6  14  -6  247.70   30.90   1
   6  14  -6  224.70   21.54   1
  -6  14   6  243.10   23.20   1
  -6  14   6  218.30   21.47   1
   6 -14  -5  193.40   23.32   1
   6 -14  -5  218.50   21.87   1
  -6 -14   5  224.70   22.79   1
  -6 -14   5  216.30   20.76   1
   6  14  -5  133.10   21.09   1
   6  14  -5  200.50   19.28   1
  -6  14   5  223.70   21.35   1
  -6  14   5  238.10   23.57   1
   6 -14  -4  196.90   23.34   1
   6 -14  -4  189.50   19.15   1
  -6 -14   4  200.80   20.58   1
  -6 -14   4  198.20   19.01   1
   6  14  -4  188.50   18.13   1
   6  14  -4  167.10   22.59   1
  -6  14   4  201.90   19.32   1
  -6  14   4  185.00   18.67   1
   6 -14  -3   13.15   10.10   1
   6 -14  -3   3.825   4.583   1
  -6 -14   3   10.52   4.797   1
  -6 -14   3   6.639   2.016   1
   6  14  -3   10.35   12.28   1
   6  14  -3   6.981    2.07   1
  -6  14   3   4.334   4.421   1
  -6  14   3   7.846   1.704   1
   6 -14  -2  806.50   78.76   1
   6 -14  -2  671.40   63.77   1
  -6 -14   2  803.30   76.35   1
  -6 -14   2  775.70   73.01   1
   6  14  -2  766.70   72.21   1
   6  14  -2  701.60   69.81   1
  -6  14   2  692.80   65.89   1
   6 -14  -1  359.00   34.62   1
   6 -14  -1  428.90   43.73   1
  -6 -14   1  377.30   35.74   1
  -6 -14   1  396.90   38.38   1
   6  14  -1  409.60   43.15   1
   6  14  -1  389.90   36.98   1
  -6  14   1  352.40   33.37   1
  -6  14   1  375.30   36.44   1
   6 -14   0  232.10   26.17   1
   6 -14   0  202.60   20.22   1
  -6 -14   0  217.50   20.82   1
  -6 -14   0  246.10   24.41   1
   6  14   0  247.00   29.30   1
  -6  14   0  204.30   20.63   1
  -6  14   0  222.70   21.25   1
   6 -14   1   27.34   10.84   1
   6 -14   1   26.12   5.375   1
  -6 -14  -1   40.77   6.329   1
  -6 -14  -1   42.22   4.675   1
   6  14   1   50.75   14.24   1
   6  14   1   41.99   5.015   1
  -6  14  -1   46.68   4.893   1
  -6  14  -1   30.69   6.213   1
   6 -14   2  122.80   16.83   1
  -6 -14  -2  120.20   11.78   1
  -6 -14  -2  119.00   12.72   1
   6  14   2  140.50   13.98   1
   6  14   2  121.70   19.76   1
  -6  14  -2  130.80   12.64   1
   6 -14   3 1835.00  175.30   1
   6 -14   3 1597.00  150.50   1
  -6 -14  -3 1939.00  182.00   1
  -6 -14  -3 1843.00  173.50   1
   6  14   3 1867.00  175.50   1
   6  14   3 1829.00  175.10   1
  -6  14  -3 1756.00  165.50   1
  -6  14  -3 1789.00  167.90   1
   6 -14   4  621.10   61.97   1
   6 -14   4  548.60   52.49   1
  -6 -14  -4  568.20   54.18   1
  -6 -14  -4  558.20   52.70   1
   6  14   4  549.80   52.19   1
   6  14   4  653.70   65.93   1
  -6  14  -4  547.90   52.58   1
  -6  14  -4  509.40   48.06   1
   6 -14   5  153.50   20.60   1
   6 -14   5  138.30   15.11   1
  -6 -14  -5  172.00   17.73   1
  -6 -14  -5  157.30   15.30   1
   6  14   5  139.40   14.27   1
   6  14   5  159.20   23.73   1
  -6  14  -5  135.30   15.18   1
  -6  14  -5  156.60   15.07   1
   6 -14   6 -0.9757   11.80   1
   6 -14   6   12.47   5.876   1
  -6 -14  -6   11.64   7.406   1
  -6 -14  -6   9.809   2.857   1
   6  14   6 -0.8822   18.24   1
   6  14   6   8.427   6.089   1
  -6  14  -6   12.49   2.042   1
  -6  14  -6   19.08   5.886   1
   6 -14   7   18.01   13.22   1
  -6 -14  -7   15.24    3.69   1
  -6 -14  -7   22.78   11.43   1
   6  14   7   19.50   8.427   1
   6  14   7   26.61   21.54   1
  -6  14  -7   20.60   2.764   1
  -6 -15   9  -10.42   7.495   1
  -6 -15   9   2.479   2.262   1
   6  15  -9 -0.5943   2.524   1
   6  15  -9  -7.717   17.33   1
   6 -15  -8 -0.7203   4.881   1
   6 -15  -8  -5.249   12.35   1
  -6 -15   8   1.475   1.948   1
  -6 -15   8  -4.487   6.284   1
   6  15  -8   11.83   16.75   1
   6  15  -8 -0.8248   2.012   1
  -6  15   8   1.188   2.472   1
  -6  15   8  -2.319   3.762   1
   6 -15  -7  -18.68   12.50   1
   6 -15  -7  -5.552   4.403   1
  -6 -15   7   5.519   6.096   1
  -6 -15   7  -1.671   2.115   1
   6  15  -7   1.037   2.113   1
   6  15  -7  -13.55   16.95   1
  -6  15   7   2.422   3.578   1
  -6  15   7   3.351   2.009   1
   6 -15  -6   -1.29    4.87   1
   6 -15  -6  0.6141   12.01   1
  -6 -15   6 -0.9126   2.034   1
  -6 -15   6   5.679   5.802   1
   6  15  -6   1.516   15.16   1
  -6  15   6 -0.6761   1.796   1
  -6  15   6  0.6059   4.086   1
   6 -15  -5  -1.802   10.55   1
  -6 -15   5   4.618    5.62   1
  -6 -15   5   14.20   2.658   1
   6  15  -5   8.789   2.243   1
   6  15  -5   16.88   14.39   1
  -6  15   5   15.39   2.472   1
   6 -15  -4  -1.587   4.959   1
  -6 -15   4   3.173    1.94   1
   6  15  -4   14.90   13.18   1
  -6  15   4   6.648   4.407   1
   6 -15  -3  0.4903   4.737   1
   6 -15  -3  -5.658   10.54   1
  -6 -15   3   2.329   4.626   1
   6  15  -3   5.532   2.084   1
  -6  15   3   4.207   4.525   1
  -6  15   3   11.76   2.024   1
   6 -15  -2  -3.591   9.656   1
   6 -15  -2   2.582   4.623   1
  -6 -15   2    2.93   4.865   1
  -6 -15   2   7.202   2.144   1
   6  15  -2   2.702   12.12   1
   6  15  -2   4.046   2.061   1
  -6  15   2   7.083   4.811   1
  -6  15   2   8.401   1.766   1
   6 -15  -1   6.913   4.371   1
   6 -15  -1  -2.759   9.272   1
  -6 -15   1   3.407   4.982   1
  -6 -15   1   7.168   2.086   1
   6  15  -1  -18.48   12.03   1
   6  15  -1   6.824   2.287   1
  -6  15   1   7.789   1.683   1
  -6  15   1   7.634   4.957   1
   6 -15   0   -6.02    9.16   1
   6 -15   0   1.911   4.394   1
  -6 -15   0   6.711   4.534   1
  -6 -15   0   3.081   1.916   1
   6  15   0  -14.46   11.97   1
   6  15   0   3.602   2.336   1
  -6  15   0   1.582   1.506   1
  -6  15   0  -1.916    4.97   1
   6 -15   1   4.128   9.261   1
  -6 -15  -1   1.216   1.847   1
  -6 -15  -1  -4.943   4.395   1
   6  15   1   4.608   11.99   1
   6  15   1   2.095   2.468   1
  -6  15  -1   1.978   1.326   1
   6 -15   2  -2.527   10.40   1
   6 -15   2   -3.71   4.576   1
  -6 -15  -2 -0.6699   1.888   1
  -6 -15  -2   1.644   4.382   1
   6  15   2  -2.553   2.719   1
   6  15   2  -13.71   13.36   1
  -6  15  -2    1.85   1.389   1
  -6  15  -2   4.381   5.172   1
   6 -15   3   1.937   4.666   1
   6 -15   3   1.986   9.898   1
  -6 -15  -3   4.188    2.03   1
  -6 -15  -3   4.906   4.071   1
   6  15   3    1.99   3.187   1
   6  15   3  0.2258   13.28   1
  -6  15  -3   5.928   1.596   1
  -6  15  -3   5.552   5.151   1
   6 -15   4 -0.5592   10.57   1
   6 -15   4   2.533   5.055   1
  -6 -15  -4   7.285   4.658   1
  -6 -15  -4   13.87   2.665   1
   6  15   4   8.112   3.486   1
   6  15   4  -3.022   13.07   1
  -6  15  -4   15.76   2.324   1
  -6  15  -4   10.42   5.727   1
   6 -15   5   4.232   5.402   1
   6 -15   5  -3.089   11.30   1
  -6 -15  -5   10.03   4.963   1
  -6 -15  -5   6.625   2.454   1
   6  15   5   6.013   14.69   1
   6  15   5   4.972   3.984   1
  -6  15  -5   3.297   4.983   1
  -6  15  -5   4.818   1.541   1
   6 -15   6   4.633   6.099   1
   6 -15   6  -11.94   13.41   1
  -6 -15  -6   5.496   7.821   1
  -6 -15  -6  0.4818    2.77   1
   6  15   6   9.329   5.948   1
   6  15   6   1.394   21.87   1
  -6  15  -6  0.4536   1.496   1
  -6  15  -6   7.408   5.642   1
  -6 -16   8   27.32   3.565   1
  -6 -16   8   45.14   8.588   1
   6  16  -8   53.22   18.90   1
   6  16  -8   37.12   4.511   1
   6 -16  -7  186.40   19.36   1
   6 -16  -7  167.70   23.66   1
  -6 -16   7  180.30   19.73   1
  -6 -16   7  191.10   18.44   1
   6  16  -7  187.20   27.38   1
   6  16  -7  176.40   17.13   1
  -6  16   7  190.20   18.41   1
  -6  16   7  170.30   17.48   1
   6 -16  -6  186.20   24.39   1
  -6 -16   6  202.00   21.35   1
   6  16  -6  171.60   16.79   1
  -6  16   6  174.50   16.90   1
   6 -16  -5  254.50   30.62   1
   6 -16  -5  265.10   26.64   1
  -6 -16   5  265.10   26.76   1
  -6 -16   5  232.90   22.28   1
   6  16  -5  256.20   24.48   1
   6  16  -5  250.30   31.41   1
  -6  16   5  223.10   22.51   1
   6 -16  -4   55.09   8.164   1
   6 -16  -4   35.68   11.90   1
  -6 -16   4   49.10   5.369   1
  -6 -16   4   57.12   8.424   1
   6  16  -4   50.32   5.449   1
   6  16  -4   64.32   16.95   1
  -6  16   4   58.60   6.124   1
  -6  16   4   48.58   7.006   1
   6 -16  -3  103.10   16.65   1
   6 -16  -3   66.44   8.685   1
  -6 -16   3   96.78   9.656   1
  -6 -16   3   92.76   11.14   1
   6  16  -3   93.92   9.402   1
   6  16  -3   72.51   17.22   1
  -6  16   3  109.40   10.73   1
  -6  16   3   82.34   9.912   1
   6 -16  -2  171.00   17.59   1
   6 -16  -2  203.70   24.16   1
  -6 -16   2  195.50   18.79   1
  -6 -16   2  207.40   21.33   1
   6  16  -2  205.80   26.43   1
   6  16  -2  174.10   16.88   1
  -6  16   2  203.40   19.46   1
  -6  16   2  179.90   18.60   1
   6 -16  -1  379.80   36.82   1
   6 -16  -1  460.80   47.27   1
  -6 -16   1  396.70   37.57   1
   6  16  -1  376.50   35.87   1
   6  16  -1  452.70   47.81   1
  -6  16   1  389.00   37.86   1
  -6  16   1  398.50   37.69   1
   6 -16   0  192.20   24.17   1
   6 -16   0  181.00   18.49   1
  -6 -16   0  174.40   16.87   1
  -6 -16   0  198.40   20.24   1
   6  16   0  216.90   20.91   1
   6  16   0  152.30   22.74   1
  -6  16   0  171.60   16.49   1
  -6  16   0  174.00   18.20   1
   6 -16   1   51.21   12.72   1
   6 -16   1   29.90   5.994   1
  -6 -16  -1   38.05   6.554   1
   6  16   1   41.43   5.045   1
  -6  16  -1   46.09    4.88   1
  -6  16  -1   38.13   6.716   1
   6 -16   2  126.10   13.75   1
   6 -16   2  171.50   21.86   1
  -6 -16  -2  133.80   14.23   1
   6  16   2  160.40   15.91   1
  -6  16  -2  151.10   14.57   1
  -6  16  -2  141.80   15.36   1
   6 -16   3  208.50   21.29   1
   6 -16   3  284.40   31.78   1
  -6 -16  -3  252.60   25.09   1
   6  16   3  266.70   25.79   1
  -6  16  -3  228.80   23.46   1
  -6  16  -3  252.80   24.05   1
   6 -16   4  513.50   49.45   1
   6 -16   4  607.10   61.19   1
  -6 -16  -4  564.80   54.14   1
  -6  16  -4  550.50   52.96   1
  -6  16  -4  524.20   49.45   1
   6 -16   5   61.29   14.44   1
   6 -16   5   71.75   9.642   1
  -6 -16  -5   58.19   8.428   1
   6  16   5   52.41   7.029   1
  -6  16  -5   58.99   8.639   1
  -6  16  -5   63.67   6.502   1
  -6 -16  -6   25.83   9.042   1
   6  16   6   23.74   6.827   1
   6 -17  -7   8.456   6.317   1
   6 -17  -7  -11.28   16.45   1
  -6 -17   7   2.885   6.677   1
  -6 -17   7 -0.2422    2.05   1
   6  17  -7-0.04905   2.068   1
  -6  17   7  -3.009   4.859   1
  -6  17   7 -0.9508   2.902   1
   6 -17  -6   5.845   12.40   1
   6 -17  -6   3.456   6.816   1
  -6 -17   6   5.248   2.356   1
  -6 -17   6   2.397   6.469   1
   6  17  -6   5.333   2.347   1
  -6  17   6   15.79   6.527   1
  -6  17   6   3.852    2.22   1
   6 -17  -5   6.531   11.36   1
   6 -17  -5  -4.534   5.962   1
  -6 -17   5  -2.018    1.95   1
   6  17  -5  -6.579   14.36   1
  -6  17   5   1.518   1.981   1
  -6  17   5   1.135   5.129   1
   6 -17  -4   6.884   5.621   1
   6 -17  -4  -8.333   11.22   1
  -6 -17   4   11.07   2.726   1
  -6 -17   4   18.70    6.29   1
   6  17  -4   15.90   2.769   1
   6  17  -4  -24.94   15.25   1
  -6  17   4   6.368   5.028   1
  -6  17   4   21.56   3.067   1
   6 -17  -3   8.697   11.33   1
   6 -17  -3   5.183   5.173   1
  -6 -17   3  -1.341   5.647   1
  -6 -17   3   4.939   2.183   1
   6  17  -3   3.444   1.964   1
   6  17  -3  -3.692   12.84   1
  -6  17   3   4.955    1.80   1
  -6  17   3    1.95    5.03   1
   6 -17  -2  0.4371   4.953   1
   6 -17  -2   1.497   10.39   1
  -6 -17   2   1.785   5.066   1
  -6 -17   2   6.381   2.209   1
   6  17  -2   6.987   2.186   1
   6  17  -2   6.348   13.22   1
  -6  17   2    6.17   1.872   1
   6 -17  -1   8.127   11.23   1
   6 -17  -1 -0.4178   4.641   1
  -6 -17   1    4.37   2.077   1
  -6 -17   1   2.353   5.025   1
   6  17  -1  -10.14   14.66   1
  -6  17   1  0.8245   5.248   1
   6 -17   0   9.666   10.74   1
   6 -17   0   2.563   5.002   1
  -6 -17   0   5.836    4.95   1
  -6 -17   0   1.419   1.981   1
   6  17   0  0.2117   2.316   1
   6  17   0  -4.027   14.41   1
  -6  17   0  -1.078   1.472   1
  -6  17   0  0.1446   5.542   1
   6 -17   1  -4.032   5.171   1
   6 -17   1   1.395   10.83   1
  -6 -17  -1   7.161   5.001   1
  -6 -17  -1   3.158   2.134   1
   6  17   1   4.049   2.542   1
   6  17   1  -14.40   14.44   1
  -6  17  -1   6.117   1.694   1
  -6  17  -1  -1.145   5.623   1
   6 -17   2   13.04   10.89   1
  -6 -17  -2  0.8127   4.403   1
  -6 -17  -2  0.7709   2.084   1
   6  17   2   3.227   3.014   1
   6  17   2   2.606   15.10   1
  -6  17  -2   6.728   1.728   1
   6 -17   3   2.405   10.91   1
   6 -17   3   1.425   5.647   1
  -6 -17  -3  0.5639    2.14   1
  -6 -17  -3   1.908   4.848   1
   6  17   3    3.20   15.78   1
   6  17   3   1.614    3.35   1
  -6  17  -3   1.834   4.985   1
  -6  17  -3  0.7832   1.447   1
   6 -17   4   6.768   11.35   1
   6 -17   4  0.3239   5.455   1
  -6 -17  -4 -0.9443   5.104   1
  -6 -17  -4   1.332   2.245   1
   6  17   4   4.679   3.698   1
   6  17   4  -18.26   15.95   1
  -6  17  -4   4.184   5.743   1
  -6  17  -4   2.253   1.465   1
  -6 -17  -5   2.743   5.521   1
  -6 -17  -5   4.537   2.937   1
   6  17   5   4.024   4.344   1
   6  17   5  -37.20   19.98   1
  -6 -17  -6   3.997   8.016   1
  -6 -17  -6   3.342   3.182   1
   6  17   6   9.237   20.44   1
   6  17   6  -3.203   6.865   1
   6 -18  -6  181.60   20.70   1
   6 -18  -6  141.30   22.85   1
   6  18  -6  142.10   13.96   1
  -6  18   6  155.80   17.50   1
  -6  18   6  150.80   14.84   1
   6 -18  -5  137.50   19.83   1
   6 -18  -5  153.20   17.33   1
  -6 -18   5  141.30   13.80   1
  -6 -18   5  137.90   15.97   1
   6  18  -5  142.40   23.95   1
   6  18  -5  137.30   13.49   1
  -6  18   5  146.40   14.31   1
  -6  18   5  141.60   15.63   1
   6 -18  -4  -2.984   11.46   1
  -6 -18   4   1.583   1.987   1
  -6 -18   4   6.494   5.897   1
   6  18  -4   3.242   15.23   1
   6  18  -4   1.472    2.06   1
  -6  18   4  0.9663   1.823   1
   6 -18  -3   69.37   15.00   1
   6 -18  -3   76.54   10.30   1
  -6 -18   3   78.20   8.027   1
   6  18  -3   39.70   16.02   1
  -6  18   3   64.54   8.731   1
   6 -18  -2  523.00   53.26   1
   6 -18  -2  452.80   43.95   1
  -6 -18   2  534.80   51.80   1
   6  18  -2  523.30   49.49   1
  -6  18   2  464.80   45.08   1
  -6  18   2  574.20   54.19   1
   6 -18  -1  247.80   25.08   1
   6 -18  -1  284.10   31.89   1
  -6 -18   1  289.70   29.07   1
  -6 -18   1  260.20   24.90   1
   6  18  -1  219.90   28.97   1
   6  18  -1  244.00   23.43   1
  -6  18   1  266.90   26.89   1
  -6  18   1  263.80   25.11   1
   6 -18   0  216.90   25.97   1
   6 -18   0  175.40   18.46   1
  -6 -18   0  209.90   20.21   1
  -6 -18   0  218.00   22.56   1
   6  18   0  233.60   22.53   1
   6  18   0  182.10   26.84   1
  -6  18   0  210.30   20.12   1
  -6  18   0  199.50   20.89   1
   6 -18   1   3.743   11.04   1
   6 -18   1   18.14   6.384   1
  -6 -18  -1   18.69   5.704   1
  -6 -18  -1   20.72   3.302   1
   6  18   1   54.72   17.71   1
   6  18   1   20.18   3.657   1
   6 -18   2   29.38   12.21   1
   6 -18   2   20.88   6.341   1
  -6 -18  -2   17.50   3.142   1
  -6 -18  -2   26.82   6.366   1
   6  18   2   36.05   18.27   1
   6  18   2   29.00   4.718   1
  -6  18  -2   28.16   3.351   1
  -6  18  -2   34.04   6.951   1
   6 -18   3  262.90   26.44   1
   6 -18   3  306.60   33.79   1
  -6 -18  -3  261.70   25.18   1
  -6 -18  -3  276.50   27.65   1
   6  18   3  271.50   26.49   1
   6  18   3  260.40   33.89   1
  -6  18  -3  260.90   24.83   1
  -6  18  -3  256.80   26.13   1
  -6 -18  -4   74.31   10.06   1
  -6 -18  -4   52.54   6.063   1
   6  18   4   56.56   7.454   1
   6  18   4   56.23   21.40   1
  -6 -18  -5  125.80   14.66   1
  -6 -18  -5  143.70   14.49   1
   6  18   5  148.60   16.10   1
   6  18   5  155.10   29.29   1
   6 -19  -6   21.75   12.44   1
  -6  19   6   7.223   6.814   1
  -6  19   6    3.75   2.735   1
   6 -19  -5   2.297   8.453   1
   6 -19  -5   13.39   12.87   1
  -6  19   5  -9.616   6.794   1
   6 -19  -4    5.50   6.704   1
   6 -19  -4   9.979   11.18   1
  -6 -19   4   12.59   6.331   1
   6  19  -4   15.96   2.787   1
  -6  19   4   7.586    5.96   1
  -6  19   4   17.87   2.926   1
   6 -19  -3  -4.084   6.907   1
   6 -19  -3   10.40   10.65   1
  -6 -19   3   4.292   5.931   1
  -6 -19   3   6.769   2.293   1
   6  19  -3  -13.37   13.58   1
   6  19  -3   5.312   2.221   1
  -6  19   3    6.51   1.978   1
  -6  19   3   6.177   6.173   1
   6 -19  -2  0.1374   6.475   1
   6 -19  -2  -26.30   11.18   1
  -6 -19   2    4.12   2.171   1
  -6 -19   2   4.273   6.389   1
   6  19  -2 -0.7275   2.189   1
   6  19  -2  -9.894   13.55   1
  -6  19   2   1.534   1.824   1
  -6  19   2   5.562   5.937   1
   6 -19  -1   3.869   6.879   1
   6 -19  -1   5.944   11.06   1
  -6 -19   1   2.413   2.064   1
  -6 -19   1  -5.701   6.195   1
   6  19  -1  -5.028   15.74   1
   6  19  -1   2.911    2.43   1
  -6  19   1-0.02156   1.615   1
   6 -19   0   8.429   5.845   1
   6 -19   0  -6.512   11.35   1
  -6 -19   0  -5.845   6.194   1
  -6 -19   0   1.033   2.246   1
   6  19   0   2.919   15.38   1
  -6  19   0   1.689    5.86   1
  -6  19   0   1.621   1.741   1
   6 -19   1   -5.41   11.42   1
   6 -19   1   -5.07   5.705   1
  -6 -19  -1   4.433   2.328   1
   6  19   1   5.486   16.10   1
  -6  19  -1   7.928    6.17   1
  -6  19  -1   1.108   1.582   1
   6 -19   2  0.3092   11.63   1
  -6 -19  -2   -1.39   2.375   1
   6  19   2  -1.067   18.15   1
   6  19   2   2.014   3.485   1
  -6  19  -2 0.05641   1.556   1
  -6 -19  -3  0.3932   2.382   1
   6  19   3   7.666   18.44   1
   6  19   3  -4.227   4.226   1
  -6 -19  -4 -0.8419    2.85   1
   6  19   4  -27.50   19.97   1
  -6 -19  -5  -1.221   5.473   1
  -6 -19  -5    2.31   4.078   1
   6  19   5   7.642   17.58   1
   6 -20  -5   20.26   9.929   1
   6 -20  -5   38.15   12.18   1
  -6  20   5   24.57   3.835   1
  -6  20   5   32.33   8.433   1
   6 -20  -4  -11.70   10.09   1
   6 -20  -4   5.673   8.883   1
  -6  20   4   4.347   6.362   1
  -6  20   4    1.51   2.128   1
   6 -20  -3  125.80   15.58   1
   6 -20  -3  110.40   19.89   1
  -6  20   3  116.50   14.10   1
   6 -20  -2  327.40   36.07   1
   6 -20  -2  310.40   31.43   1
  -6 -20   2  364.20   36.29   1
   6  20  -2  313.60   30.00   1
  -6  20   2  312.10   31.29   1
  -6  20   2  307.90   29.35   1
   6 -20  -1  310.10   34.77   1
   6 -20  -1  301.80   30.53   1
  -6 -20   1  357.60   35.63   1
  -6 -20   1  250.40   24.11   1
   6  20  -1  329.00   40.15   1
   6  20  -1  300.70   28.83   1
  -6  20   1  304.90   30.65   1
  -6  20   1  305.70   29.08   1
   6 -20   0   29.62   7.966   1
   6 -20   0   34.03   13.10   1
  -6 -20   0   35.29   7.838   1
  -6 -20   0   31.53   4.165   1
   6  20   0   34.29   17.38   1
   6  20   0   33.56   4.641   1
  -6  20   0   35.84   4.102   1
  -6  20   0   36.38   7.826   1
  -6 -20  -1   3.864    2.41   1
  -6 -20  -1 -0.8935   5.949   1
   6  20   1   1.561   3.016   1
   6  20   1   2.768   17.17   1
  -6 -20  -2   63.58   10.18   1
  -6 -20  -3   87.24   9.285   1
  -6 -20  -3   84.06   11.79   1
   6  20   3   87.65   10.58   1
   6  20   3   97.66   24.40   1
  -6 -20  -4  172.60   18.72   1
   6  20   4  180.20   29.23   1
   6  20   4  226.90   23.06   1
   6 -21  -5  0.6894   4.816   1
  -6  21   5   2.429   6.506   1
   6 -21  -4  -6.437   8.381   1
   6 -21  -4  -12.71   9.985   1
  -6  21   4  -2.647   2.244   1
  -6  21   4  -9.303   7.584   1
   6 -21  -3   10.02   8.227   1
   6 -21  -3   21.65   11.52   1
  -6  21   3   15.51   2.938   1
  -6  21   3   9.344   6.617   1
   6 -21  -2  -1.882   10.55   1
  -6  21   2    3.15   2.152   1
  -6  21   1   12.68   2.689   1
  -6  22   4   7.884   5.004   1
   7   0 -11 -0.7791   7.275   1
   7   0 -11   12.77   12.60   1
  -7   0  11 0.09566   1.915   1
  -7   0  11   18.89   10.52   1
   7   0 -10   7.865    5.75   1
   7   0 -10 -0.5452   8.521   1
  -7   0  10  -2.247   2.038   1
  -7   0  10   10.39   7.311   1
   7   0  -9  -5.154   5.348   1
   7   0  -8  0.8319   7.879   1
  -7   0   8   1.215   1.654   1
   7   0  -7   2.031   4.969   1
  -7   0   7 -0.9928   1.501   1
   7   0  -6  -4.348   4.068   1
  -7   0   6   1.291   1.565   1
   7   0  -5   6.683   3.858   1
  -7   0   5   2.542   1.447   1
  -7   0   4   1.127   1.633   1
   7   0  -3   3.075   3.071   1
   7   0  -3   5.865   4.123   1
  -7   0   3 0.03955   1.587   1
   7   0  -2  -2.157   3.677   1
   7   0  -2  -2.439   2.711   1
  -7   0   2   0.299   1.864   1
  -7   0   2  -2.911   3.695   1
   7   0  -1 0.05319   2.737   1
   7   0  -1   1.026   3.673   1
  -7   0   1  -3.732   3.744   1
  -7   0   1 -0.6052   2.278   1
   7   0   0   3.139    3.88   1
   7   0   0 -0.1297    2.73   1
  -7   0   0    2.90   2.419   1
  -7   0   0   3.896   3.676   1
   7   0   1   2.643    4.15   1
   7   0   1-0.05956   2.735   1
  -7   0  -1   4.827   3.723   1
  -7   0  -1   2.074    2.45   1
   7   0   2   3.256   3.113   1
   7   0   2 -0.7078   4.352   1
  -7   0  -2   2.278   2.757   1
  -7   0  -2   5.268   4.261   1
   7   0   3  -3.015   5.308   1
   7   0   3  -4.655   3.356   1
  -7   0  -3   3.924   4.627   1
  -7   0  -3  0.2995   2.737   1
   7   0   4  -3.547   6.805   1
   7   0   4   4.094    3.77   1
  -7   0  -4   6.929   5.696   1
  -7   0  -4  0.3806   2.751   1
   7   0   5   -2.89   3.906   1
   7   0   5   4.609   8.059   1
  -7   0  -5  -5.147   7.058   1
  -7   0  -5   1.894    2.93   1
   7   0   6   -4.19   8.187   1
   7   0   6 -0.7216   4.605   1
  -7   0  -6 -0.6631   2.978   1
   7   0   7   -4.03   7.916   1
   7   0   7  -5.563   4.471   1
  -7   0  -7 -0.9506   9.377   1
  -7   0  -7   -2.22   3.281   1
   7   0   8   9.369   9.475   1
   7   0   8  -6.034   6.211   1
  -7   0  -8  -2.237   11.73   1
  -7   0  -8-0.03641   3.623   1
   7   0   9   17.05   13.31   1
   7   0   9  -4.771   8.752   1
  -7   0  -9  -4.862   4.414   1
  -7   0  -9   24.16   15.31   1
   7  -1 -11   93.13   16.48   1
   7  -1 -11   86.13   13.75   1
  -7  -1  11   62.53   12.35   1
  -7  -1  11   64.52   6.867   1
   7   1 -11   75.23   16.69   1
   7   1 -11   64.18   10.14   1
   7  -1 -10   86.44   13.67   1
   7  -1 -10   83.68   11.12   1
  -7  -1  10   69.85   7.258   1
   7   1 -10  100.40   15.35   1
  -7   1  10   54.15   10.22   1
  -7   1  10   69.07   7.058   1
   7  -1  -9   62.16   11.52   1
   7  -1  -9   69.24   9.276   1
  -7  -1   9   64.54   10.48   1
  -7  -1   9   63.84   6.571   1
   7   1  -9   74.23    8.93   1
   7   1  -9   75.26   12.67   1
  -7   1   9   70.25   9.858   1
  -7   1   9   73.88   7.453   1
   7  -1  -8   4.414   4.908   1
  -7  -1   8   3.344   4.823   1
  -7  -1   8  -1.247   1.641   1
   7   1  -8  0.9468    3.42   1
   7   1  -8   6.485   8.494   1
  -7   1   8  0.0595   5.766   1
   7  -1  -7   6.748   5.068   1
   7  -1  -7   15.06   5.012   1
  -7  -1   7   14.10   4.689   1
  -7  -1   7   10.35   2.061   1
   7   1  -7   13.09   3.621   1
   7   1  -7   17.61   6.309   1
  -7   1   7   25.89   5.996   1
  -7   1   7    7.64   1.965   1
   7  -1  -6   53.96   7.118   1
  -7  -1   6   49.87   5.212   1
  -7  -1   6   59.35   7.333   1
   7   1  -6   43.51   5.583   1
   7   1  -6   43.87   6.637   1
  -7   1   6   61.70   8.289   1
  -7   1   6   42.43   4.533   1
   7  -1  -5  799.30   75.73   1
  -7  -1   5  712.10   66.97   1
  -7  -1   5  713.10   67.51   1
   7   1  -5  693.70   65.96   1
   7   1  -5  652.80   61.74   1
  -7   1   5  702.80   66.10   1
   7  -1  -4  470.40   44.84   1
  -7  -1   4  379.20   35.84   1
   7   1  -4  392.10   37.37   1
   7   1  -4  484.20   46.30   1
  -7   1   4  421.00   39.78   1
   7  -1  -3  125.20   12.65   1
  -7  -1   3  145.90   14.03   1
  -7  -1   3  131.00   13.31   1
   7   1  -3  156.40   15.74   1
   7   1  -3  138.30   13.88   1
  -7   1   3  150.70   14.58   1
   7  -1  -2  647.90   61.48   1
   7  -1  -2  559.60   53.03   1
  -7  -1   2  782.30   73.62   1
  -7  -1   2  627.70   59.45   1
   7   1  -2  692.50   65.60   1
   7   1  -2  705.10   66.70   1
  -7   1   2  607.20   57.58   1
  -7   1   2  787.40   74.16   1
   7  -1  -1 1283.00  120.90   1
   7  -1  -1 1351.00  127.10   1
  -7  -1   1 1519.00  142.90   1
  -7  -1   1 1478.00  138.80   1
   7   1  -1 1412.00  132.90   1
   7   1  -1 1445.00  136.00   1
  -7   1   1 1493.00  140.20   1
  -7   1   1 1434.00  135.00   1
   7  -1   0 1374.00  129.50   1
   7  -1   0 1437.00  135.20   1
  -7  -1   0 1588.00  149.40   1
  -7  -1   0 1540.00  144.60   1
   7   1   0 1585.00  149.10   1
   7   1   0 1454.00  136.90   1
  -7   1   0 1515.00  142.40   1
  -7   1   0 1342.00  126.30   1
   7  -1   1  492.10   47.15   1
   7  -1   1  490.40   46.57   1
  -7  -1  -1  569.90   53.85   1
  -7  -1  -1  505.40   48.10   1
   7   1   1  465.70   44.35   1
   7   1   1  503.10   48.06   1
  -7   1  -1  434.50   41.52   1
  -7   1  -1  497.00   47.06   1
   7  -1   2   59.90   7.002   1
   7  -1   2   70.73   9.343   1
  -7  -1  -2   44.35   6.286   1
  -7  -1  -2   71.55   7.678   1
   7   1   2   71.88   8.699   1
   7   1   2   53.82   6.659   1
  -7   1  -2   54.45    7.26   1
  -7   1  -2   66.26   7.256   1
   7  -1   3  688.00   66.03   1
   7  -1   3  575.10   54.63   1
  -7  -1  -3  692.90   65.44   1
  -7  -1  -3  523.00   49.86   1
   7   1   3  622.50   59.31   1
  -7   1  -3  620.40   58.67   1
  -7   1  -3  591.40   56.56   1
   7  -1   4  808.60   77.68   1
   7  -1   4  661.10   62.71   1
  -7  -1  -4  592.10   56.57   1
  -7  -1  -4  725.90   68.53   1
   7   1   4  605.60   57.64   1
   7   1   4  691.50   66.28   1
  -7   1  -4  700.40   67.07   1
  -7   1  -4  647.20   61.16   1
   7  -1   5  368.80   37.54   1
  -7  -1  -5  333.30   31.89   1
  -7  -1  -5  335.40   33.28   1
   7   1   5  286.20   27.99   1
   7   1   5  375.70   37.73   1
  -7   1  -5  368.30   36.85   1
   7  -1   6   13.51   4.339   1
  -7  -1  -6   6.964   3.261   1
  -7  -1  -6   30.02   9.336   1
   7   1   6   26.52   9.561   1
   7   1   6   13.67   5.633   1
  -7   1  -6   8.501   3.349   1
   7  -1   7   2.237   4.048   1
   7  -1   7  -5.172   8.133   1
  -7  -1  -7   1.272   3.013   1
  -7  -1  -7  -5.418   9.562   1
   7   1   7  0.5288   8.714   1
   7   1   7  -2.337   4.864   1
  -7   1  -7   2.435   9.646   1
  -7   1  -7  -1.727   3.462   1
   7  -1   8   34.39   7.109   1
   7  -1   8   37.70   11.40   1
  -7  -1  -8   37.25   5.351   1
  -7  -1  -8   28.05   12.62   1
   7   1   8   31.08    8.01   1
   7   1   8   30.74   10.75   1
  -7   1  -8   35.13   5.635   1
  -7   1  -8   29.97   11.96   1
   7  -1   9   91.00   17.78   1
  -7  -1  -9   83.74   20.31   1
  -7  -1  -9   69.25   8.364   1
   7   1   9   80.42   16.85   1
   7   1   9   68.63   13.71   1
  -7   1  -9   66.63   6.726   1
   7  -2 -11   4.692   7.613   1
   7  -2 -11  -2.772    9.02   1
  -7  -2  11   1.391   2.633   1
   7   2 -11 -0.8011   6.862   1
   7   2 -11  -3.025   14.76   1
  -7   2  11    1.37   1.031   1
  -7   2  11   -8.73   8.859   1
   7  -2 -10 -0.8608   8.435   1
   7  -2 -10  0.2759   8.297   1
  -7  -2  10  -1.928   2.047   1
  -7  -2  10   2.261    6.97   1
   7   2 -10   7.209   9.826   1
   7   2 -10   7.092   4.663   1
  -7   2  10   1.795   10.06   1
  -7   2  10   1.959   1.715   1
   7  -2  -9  0.3105   8.154   1
   7  -2  -9  0.6386   5.616   1
  -7  -2   9  0.4941   1.819   1
  -7  -2   9   5.588   5.428   1
   7   2  -9  0.2045   3.259   1
   7   2  -9   1.019    8.86   1
  -7   2   9   2.751   7.077   1
  -7   2   9  -0.256   1.629   1
   7  -2  -8   3.822   5.672   1
   7  -2  -8   6.082   4.954   1
  -7  -2   8   2.216   4.088   1
  -7  -2   8  0.9349   1.714   1
   7   2  -8-0.07358   2.795   1
   7   2  -8  -1.892   9.449   1
  -7   2   8  -5.763   5.624   1
  -7   2   8  0.4092   1.565   1
   7  -2  -7 -0.9263   4.883   1
  -7  -2   7   1.891   1.628   1
  -7  -2   7  -4.565   3.611   1
   7   2  -7   5.928   6.917   1
   7   2  -7  0.5565   2.708   1
  -7   2   7   6.519   4.963   1
   7  -2  -6    3.96   4.637   1
   7  -2  -6   1.282   4.122   1
  -7  -2   6   1.442   3.688   1
  -7  -2   6   6.594   1.819   1
   7   2  -6   2.781   2.875   1
   7   2  -6   8.478   4.959   1
  -7   2   6   5.265   2.072   1
  -7   2   6  -2.606   4.555   1
   7  -2  -5   8.401   5.157   1
   7  -2  -5   3.811   3.465   1
  -7  -2   5   6.072   1.695   1
  -7  -2   5   2.301   3.293   1
   7   2  -5  0.7444   4.063   1
   7   2  -5    5.95   2.797   1
  -7   2   5   4.776   4.419   1
  -7   2   5   4.483   1.782   1
   7  -2  -4  -1.337   3.098   1
  -7  -2   4  0.8546   1.437   1
  -7  -2   4   2.283   3.209   1
   7   2  -4   3.841   3.912   1
   7   2  -4  0.2082   2.479   1
  -7   2   4   4.129   1.918   1
   7  -2  -3   1.218   2.847   1
  -7  -2   3   2.872   1.556   1
  -7  -2   3   1.728   2.909   1
   7   2  -3   1.212    2.51   1
   7   2  -3   7.157   3.885   1
  -7   2   3   2.046   2.169   1
   7  -2  -2  0.1258   2.637   1
   7  -2  -2   3.344   3.952   1
  -7  -2   2   1.508   2.943   1
  -7  -2   2   3.223   1.756   1
   7   2  -2    2.76   2.876   1
   7   2  -2    1.03   3.487   1
  -7   2   2   3.167   3.475   1
  -7   2   2   3.352   2.152   1
   7  -2  -1   5.638   2.628   1
   7  -2  -1    5.34   4.296   1
  -7  -2   1   11.52    2.24   1
  -7  -2   1   1.476   3.216   1
   7   2  -1   8.674   3.415   1
   7   2  -1   8.635   3.649   1
  -7   2   1   4.825   3.445   1
  -7   2   1   9.584   2.679   1
   7  -2   0   8.306   2.899   1
   7  -2   0   5.826   4.332   1
  -7  -2   0   5.319   3.635   1
  -7  -2   0   9.519   2.367   1
   7   2   0   3.494   3.767   1
   7   2   0   3.183   3.494   1
  -7   2   0   4.551   3.563   1
  -7   2   0   7.576    2.61   1
   7  -2   1  -1.748   2.915   1
   7  -2   1  0.8546   5.139   1
  -7  -2  -1   -4.41   4.053   1
  -7  -2  -1   1.629   2.079   1
   7   2   1   1.155   3.559   1
   7   2   1   1.193   3.892   1
  -7   2  -1 -0.3081   4.073   1
  -7   2  -1   3.489   2.495   1
   7  -2   2   10.15   6.161   1
   7  -2   2   3.488   3.121   1
  -7  -2  -2   4.814   4.106   1
  -7  -2  -2   4.437   2.446   1
   7   2   2    5.41   4.515   1
   7   2   2  -1.988   3.702   1
  -7   2  -2  -2.597   4.784   1
  -7   2  -2  0.1754   2.703   1
   7  -2   3   11.62   6.608   1
   7  -2   3  -1.949   3.363   1
  -7  -2  -3   2.133   2.742   1
   7   2   3-0.08362   4.031   1
   7   2   3  -4.669   4.475   1
  -7   2  -3  -2.993   5.747   1
  -7   2  -3  -3.775   2.835   1
   7  -2   4   46.51   9.458   1
   7  -2   4   19.22   4.273   1
  -7  -2  -4   11.07   5.155   1
   7   2   4   19.74   4.833   1
   7   2   4   22.72   6.471   1
  -7   2  -4   23.83   4.019   1
  -7   2  -4   5.091   6.511   1
   7  -2   5  0.5152   4.052   1
   7  -2   5   16.13    8.15   1
  -7  -2  -5   2.379   2.544   1
  -7  -2  -5   3.024   5.688   1
   7   2   5   6.244   6.702   1
   7   2   5  -1.777   4.395   1
  -7   2  -5  -4.505   7.954   1
  -7   2  -5   1.559   3.272   1
   7  -2   6   1.311   4.149   1
   7  -2   6  -8.987   8.484   1
  -7  -2  -6  -15.18   8.239   1
   7   2   6   1.113   8.801   1
  -7   2  -6   1.089   3.267   1
  -7   2  -6  0.2761   8.576   1
   7  -2   7   1.506   7.937   1
   7  -2   7   3.078   4.102   1
  -7  -2  -7   3.285   10.17   1
  -7  -2  -7   2.786   2.756   1
   7   2   7   4.581   5.684   1
  -7   2  -7  -6.919   9.124   1
  -7   2  -7   5.886   3.608   1
   7  -2   8   24.52   11.06   1
   7  -2   8   12.71   5.536   1
  -7  -2  -8   7.621   11.76   1
  -7  -2  -8   16.63   3.608   1
   7   2   8   2.138   10.50   1
   7   2   8   13.52    8.12   1
  -7   2  -8   15.94    4.51   1
  -7   2  -8   8.129   11.12   1
   7  -2   9   2.277   7.294   1
   7  -2   9  -10.51   13.40   1
  -7  -2  -9   1.314   3.243   1
  -7  -2  -9   4.219   17.28   1
   7   2   9    7.33   12.28   1
   7   2   9 -0.2126   11.01   1
  -7   2  -9  0.3416    5.64   1
  -7  -3  11   90.28   9.413   1
  -7  -3  11   85.69   14.04   1
   7   3 -11  113.90   13.20   1
   7   3 -11   74.50   18.49   1
   7  -3 -10  176.60   21.42   1
   7  -3 -10  148.10   18.07   1
  -7  -3  10  167.10   17.95   1
  -7  -3  10  138.70   13.63   1
   7   3 -10  143.20   14.67   1
   7   3 -10  171.30   22.33   1
  -7   3  10  151.40   20.17   1
  -7   3  10  130.10   12.58   1
   7  -3  -9  103.60   13.98   1
   7  -3  -9  123.90   15.18   1
  -7  -3   9   92.32   9.235   1
  -7  -3   9  108.90   12.09   1
   7   3  -9  120.70   16.88   1
   7   3  -9  103.60   10.73   1
  -7   3   9  108.40   14.67   1
  -7   3   9  127.50   12.34   1
   7  -3  -8   81.53   10.90   1
   7  -3  -8   81.10   10.11   1
  -7  -3   8   88.17   9.891   1
  -7  -3   8   86.42   8.629   1
   7   3  -8   73.59   13.04   1
   7   3  -8   70.91   7.686   1
  -7   3   8   85.43   8.407   1
  -7   3   8   77.73   10.63   1
   7  -3  -7  654.80   62.53   1
  -7  -3   7  611.10   58.01   1
  -7  -3   7  656.40   61.80   1
   7   3  -7  656.10   63.92   1
  -7   3   7  644.20   61.42   1
   7  -3  -6  226.80   22.63   1
  -7  -3   6  245.20   23.88   1
  -7  -3   6  239.30   22.77   1
   7   3  -6  247.00   25.12   1
   7   3  -6  222.70   21.48   1
  -7   3   6  253.30   24.90   1
   7  -3  -5  382.20   36.67   1
   7  -3  -5  334.80   32.58   1
  -7  -3   5  312.10   29.99   1
  -7  -3   5  334.90   31.68   1
   7   3  -5  305.70   29.22   1
   7   3  -5  325.60   31.78   1
  -7   3   5  356.20   33.75   1
  -7   3   5  296.90   28.82   1
   7  -3  -4  225.80   21.94   1
  -7  -3   4  246.30   23.86   1
  -7  -3   4  203.00   19.36   1
   7   3  -4  190.70   18.49   1
   7   3  -4  218.40   21.75   1
  -7   3   4  230.00   22.05   1
   7  -3  -3   78.35   8.297   1
  -7  -3   3   72.98   7.266   1
  -7  -3   3   63.64   7.183   1
   7   3  -3   62.01   6.752   1
   7   3  -3   76.22   8.833   1
  -7   3   3   89.86    9.13   1
   7  -3  -2  731.60   69.49   1
   7  -3  -2  738.00   69.67   1
  -7  -3   2  695.70   65.74   1
  -7  -3   2  816.00   76.72   1
   7   3  -2  670.20   63.28   1
   7   3  -2  814.30   77.13   1
  -7   3   2  787.60   74.20   1
  -7   3   2  643.30   60.99   1
   7  -3  -1 1140.00  107.30   1
   7  -3  -1 1111.00  105.00   1
  -7  -3   1 1137.00  106.80   1
  -7  -3   1 1084.00  102.10   1
   7   3  -1 1319.00  124.30   1
   7   3  -1 1014.00   95.47   1
  -7   3   1 1049.00   98.67   1
  -7   3   1 1047.00   98.71   1
   7  -3   0  565.20   54.27   1
   7  -3   0  510.70   48.41   1
  -7  -3   0  490.40   46.29   1
  -7  -3   0  573.60   54.40   1
   7   3   0  568.90   54.13   1
   7   3   0  492.50   46.81   1
  -7   3   0  464.20   43.97   1
  -7   3   0  536.30   51.09   1
   7  -3   1  545.00   51.66   1
   7  -3   1  687.70   65.93   1
  -7  -3  -1  645.10   61.17   1
  -7  -3  -1  570.10   53.77   1
   7   3   1  584.70   55.55   1
   7   3   1  619.50   58.92   1
  -7   3  -1  620.70   59.14   1
  -7   3  -1  486.60   46.10   1
   7  -3   2   0.184   2.995   1
   7  -3   2  -5.591   6.243   1
  -7  -3  -2   2.875   2.162   1
  -7  -3  -2   5.038   4.243   1
   7   3   2  -2.887   3.871   1
   7   3   2   4.255   4.513   1
  -7   3  -2  -1.649   5.173   1
  -7   3  -2    1.73   2.779   1
   7  -3   3 1222.00  116.30   1
   7  -3   3  974.20   91.93   1
  -7  -3  -3 1052.00   98.95   1
  -7  -3  -3  885.90   83.76   1
   7   3   3  887.00   83.94   1
   7   3   3 1067.00  100.90   1
  -7   3  -3  938.60   89.30   1
  -7   3  -3  878.50   82.85   1
   7  -3   4  831.90   78.70   1
   7  -3   4  918.50   88.12   1
  -7  -3  -4  841.80   79.27   1
  -7  -3  -4  817.90   77.53   1
   7   3   4  788.10   74.96   1
   7   3   4  882.60   83.69   1
  -7   3  -4  732.50   69.23   1
  -7   3  -4  907.80   86.70   1
   7  -3   5  393.20   37.72   1
  -7  -3  -5  417.70   39.59   1
  -7  -3  -5  352.00   34.32   1
   7   3   5  409.50   39.65   1
   7   3   5  415.10   40.66   1
  -7   3  -5  349.10   33.39   1
   7  -3   6   50.29   10.18   1
   7  -3   6   56.77   7.434   1
  -7  -3  -6   73.79   11.19   1
   7   3   6   63.19   10.97   1
  -7   3  -6   63.03   11.97   1
  -7   3  -6   39.55   5.427   1
   7  -3   7   14.19   8.973   1
   7  -3   7   11.26   4.536   1
  -7  -3  -7    7.14    2.53   1
   7   3   7   21.91   7.024   1
  -7   3  -7   8.887   3.884   1
  -7   3  -7    6.08   9.651   1
   7  -3   8  198.30   24.15   1
  -7  -3  -8  203.70   25.45   1
  -7  -3  -8  233.50   22.58   1
   7   3   8  275.30   29.11   1
   7   3   8  197.40   23.82   1
   7  -3   9  157.40   18.14   1
   7  -3   9  130.30   21.39   1
  -7  -3  -9  124.90   12.91   1
  -7  -3  -9  138.50   25.46   1
   7   3   9  135.10   20.28   1
   7   3   9  141.40   19.88   1
  -7   3  -9  146.00   14.09   1
  -7   3  -9  122.60   14.29   1
  -7  -4  11  -4.676   7.708   1
  -7  -4  11   3.634   2.694   1
   7   4 -11   6.686   4.678   1
   7   4 -11   1.185   14.29   1
   7  -4 -10   4.889   7.394   1
  -7  -4  10    2.18   5.579   1
  -7  -4  10   1.831   2.185   1
   7   4 -10   4.377   3.505   1
   7   4 -10  -6.482   11.42   1
  -7   4  10  -15.96   10.11   1
   7  -4  -9   15.54   8.721   1
   7  -4  -9  -1.942   6.979   1
  -7  -4   9  -2.764   1.857   1
  -7  -4   9   6.995   4.785   1
   7   4  -9 -0.8114   2.705   1
   7   4  -9  -2.753    9.57   1
  -7   4   9  -3.136   10.19   1
  -7   4   9 -0.6736   1.641   1
   7  -4  -8   3.156   4.478   1
   7  -4  -8  -3.026   7.628   1
  -7  -4   8  -6.553   4.041   1
  -7  -4   8   1.031   1.778   1
   7   4  -8   4.786   9.497   1
   7   4  -8 -0.4064   2.671   1
  -7   4   8   2.866   1.514   1
  -7   4   8  -9.019   8.373   1
   7  -4  -7   23.84   5.246   1
   7  -4  -7   27.98   7.643   1
  -7  -4   7   37.95   4.259   1
  -7  -4   7   19.24   4.515   1
   7   4  -7   29.98   9.987   1
   7   4  -7   30.23   4.187   1
  -7   4   7   34.17   3.832   1
  -7   4   7   15.90   6.838   1
   7  -4  -6   23.07   6.424   1
  -7  -4   6   16.51    4.05   1
  -7  -4   6   25.05   3.152   1
   7   4  -6   18.05   7.101   1
   7   4  -6   23.63   3.719   1
  -7   4   6   11.94   5.511   1
   7  -4  -5   6.789    3.46   1
  -7  -4   5   8.172    1.87   1
  -7  -4   5   8.301   3.623   1
   7   4  -5   7.183   2.691   1
   7   4  -5   8.308   5.199   1
  -7   4   5  -6.501   5.255   1
  -7   4   5   10.96   2.573   1
   7  -4  -4 -0.7612    2.87   1
  -7  -4   4  0.3699   1.462   1
  -7  -4   4   1.339   3.211   1
   7   4  -4   0.518   2.499   1
   7   4  -4   1.903   4.198   1
  -7   4   4  0.4709   2.289   1
   7  -4  -3   4.041   5.412   1
   7  -4  -3   2.809   2.661   1
  -7  -4   3   5.908   1.626   1
  -7  -4   3   7.401   3.306   1
   7   4  -3   2.327   2.502   1
   7   4  -3  0.7106   3.917   1
   7  -4  -2   1.371    2.66   1
   7  -4  -2    4.23   4.749   1
  -7  -4   2   3.361   1.619   1
  -7  -4   2 -0.2989   2.908   1
   7   4  -2    1.75   2.428   1
   7   4  -2  -1.843   3.765   1
  -7   4   2   1.883   2.392   1
  -7   4   2   2.343   3.903   1
   7  -4  -1  0.5879   4.933   1
   7  -4  -1 -0.5723   2.483   1
  -7  -4   1   1.129   1.606   1
  -7  -4   1  -1.117   2.986   1
   7   4  -1 -0.2865   3.751   1
   7   4  -1  -1.464   2.723   1
  -7   4   1   6.472   3.996   1
  -7   4   1  -1.245   2.435   1
   7  -4   0   23.26   3.931   1
   7  -4   0   38.49   8.163   1
   7   4   0   36.25   4.829   1
   7   4   0   39.63   6.088   1
  -7   4   0   16.56   5.336   1
  -7   4   0   37.10    4.77   1
   7  -4   1   11.80   6.467   1
   7  -4   1   5.416   3.017   1
  -7  -4  -1   9.897   3.988   1
  -7  -4  -1   8.397    2.10   1
   7   4   1   9.367   3.491   1
   7   4   1   10.23   4.512   1
  -7   4  -1   6.192   2.771   1
  -7   4  -1  -8.718   5.244   1
   7  -4   2   1.318   6.748   1
   7  -4   2 -0.8084   2.991   1
  -7  -4  -2   1.723   4.349   1
  -7  -4  -2    3.01    1.89   1
   7   4   2   3.408   4.398   1
   7   4   2  0.9226   4.094   1
  -7   4  -2  0.1917   5.876   1
  -7   4  -2   2.855   2.961   1
   7  -4   3   7.303   3.615   1
   7  -4   3   5.385   7.548   1
  -7  -4  -3   21.43   3.122   1
  -7  -4  -3   15.47    4.63   1
   7   4   3   11.52   4.893   1
   7   4   3   18.89   5.145   1
  -7   4  -3   3.215   6.744   1
  -7   4  -3   13.65   3.458   1
   7  -4   4   1.189   7.349   1
  -7  -4  -4   5.452   4.792   1
  -7  -4  -4  -1.903   2.004   1
   7   4   4 -0.5298   4.924   1
   7   4   4  -2.635   4.723   1
   7  -4   5   19.31   8.544   1
   7  -4   5   12.28   4.111   1
  -7  -4  -5   7.576   5.013   1
  -7  -4  -5   13.30   2.677   1
   7   4   5   16.51   6.229   1
   7   4   5   12.24   5.594   1
  -7   4  -5   14.96   3.645   1
  -7   4  -5   2.888   8.223   1
   7  -4   6   8.296   7.522   1
   7  -4   6   2.051   3.983   1
  -7  -4  -6  -3.594    6.99   1
   7   4   6   13.29   7.739   1
  -7   4  -6  -1.857    9.15   1
  -7   4  -6   7.032   3.383   1
   7  -4   7   1.696   9.575   1
   7  -4   7   2.367   4.066   1
  -7   4  -7  -12.21   10.04   1
  -7   4  -7   3.858   3.668   1
   7  -4   8   3.239   10.93   1
   7  -4   8  0.6402   5.047   1
  -7  -4  -8  -1.887   14.08   1
  -7  -4  -8  -0.491   2.569   1
   7   4   8   1.434   11.50   1
   7   4   8  -6.822   9.519   1
  -7   4  -8   3.224   3.977   1
   7  -4   9   4.865   7.238   1
   7  -4   9  0.9519   14.60   1
  -7  -4  -9   3.644   3.661   1
  -7  -4  -9  -13.10   20.43   1
   7   4   9   16.23   12.14   1
   7   4   9    2.43   12.77   1
  -7   4  -9   6.972   1.741   1
  -7   4  -9   5.418   5.782   1
  -7  -5  11   75.68   11.37   1
   7   5 -11   82.00   19.48   1
   7  -5 -10  225.20   23.79   1
   7  -5 -10  267.40   27.45   1
  -7  -5  10  288.50   28.66   1
   7   5 -10  308.20   29.70   1
  -7   5  10  248.90   23.52   1
   7  -5  -9  134.70   15.85   1
   7  -5  -9  107.70   14.00   1
  -7  -5   9  112.80   11.12   1
  -7  -5   9  126.60   13.68   1
   7   5  -9  122.50   12.37   1
   7   5  -9  129.40   18.55   1
  -7   5   9  127.10   12.30   1
  -7   5   9  123.70   16.84   1
   7  -5  -8  -5.805   8.749   1
   7  -5  -8  -3.789   4.285   1
  -7  -5   8  -1.812   4.315   1
  -7  -5   8  0.2982   1.704   1
   7   5  -8   1.538   2.616   1
   7   5  -8   9.118   9.608   1
  -7   5   8  -1.545   9.454   1
  -7   5   8  0.4572   1.417   1
   7  -5  -7  597.10   58.29   1
   7  -5  -7  527.40   50.44   1
  -7  -5   7  482.30   45.53   1
  -7  -5   7  459.60   43.98   1
   7   5  -7  507.40   48.09   1
   7   5  -7  533.30   53.36   1
  -7   5   7  468.00   44.14   1
  -7   5   7  596.30   57.97   1
   7  -5  -6 1221.00  116.10   1
  -7  -5   6  965.60   90.77   1
  -7  -5   6 1024.00   96.61   1
   7   5  -6 1052.00  100.90   1
   7   5  -6  950.90   89.56   1
  -7   5   6 1120.00  106.20   1
   7  -5  -5 1365.00  128.50   1
  -7  -5   5 1310.00  123.00   1
  -7  -5   5 1299.00  122.30   1
   7   5  -5 1323.00  124.40   1
   7   5  -5 1321.00  125.20   1
  -7   5   5 1560.00  146.50   1
   7  -5  -4  284.60   28.95   1
   7  -5  -4  258.50   24.91   1
  -7  -5   4  253.10   24.58   1
  -7  -5   4  261.00   24.79   1
   7   5  -4  225.30   22.80   1
   7   5  -4  260.80   25.02   1
  -7   5   4  260.20   24.91   1
   7  -5  -3   47.10   5.686   1
  -7  -5   3   40.65   5.516   1
  -7  -5   3   42.75   4.555   1
   7   5  -3   40.37   4.895   1
   7   5  -3   35.54   6.044   1
  -7   5   3   39.08   7.106   1
  -7   5   3   41.20   4.892   1
   7  -5  -2 1679.00  158.70   1
   7  -5  -2 1343.00  126.30   1
  -7  -5   2 1407.00  132.10   1
  -7  -5   2 1359.00  127.90   1
   7   5  -2 1331.00  125.60   1
   7   5  -2 1326.00  124.70   1
  -7   5   2 1246.00  117.20   1
  -7   5   2 1424.00  134.30   1
   7  -5  -1 1264.00  120.00   1
   7  -5  -1  974.70   91.82   1
  -7  -5   1  945.70   89.16   1
  -7  -5   1  884.00   83.10   1
   7   5  -1  856.50   80.70   1
   7   5  -1  942.80   89.24   1
  -7   5   1  813.50   76.66   1
  -7   5   1 1064.00  100.70   1
   7  -5   0 1121.00  105.60   1
  -7  -5   0  923.90   86.83   1
  -7  -5   0 1095.00  103.20   1
   7   5   0  945.70   89.14   1
   7   5   0 1144.00  108.10   1
  -7   5   0 1237.00  117.00   1
  -7   5   0  901.20   84.95   1
   7  -5   1  237.80   23.09   1
   7  -5   1  292.40   29.90   1
  -7  -5  -1  239.50   23.30   1
  -7  -5  -1  233.20   22.21   1
   7   5   1  253.00   25.05   1
   7   5   1  210.20   20.47   1
  -7   5  -1  209.20   21.48   1
  -7   5  -1  211.20   20.56   1
   7  -5   2   15.58   7.839   1
   7  -5   2   3.701   3.339   1
  -7  -5  -2-0.08734   3.917   1
  -7  -5  -2    4.33   1.926   1
   7   5   2   10.89   3.914   1
   7   5   2   4.338   4.822   1
  -7   5  -2    6.21   3.458   1
  -7   5  -2   5.498   6.451   1
   7  -5   3  386.30   38.61   1
  -7  -5  -3  364.40   34.52   1
  -7  -5  -3  366.50   35.36   1
   7   5   3  413.50   40.05   1
   7   5   3  366.20   35.33   1
  -7   5  -3  357.30   35.64   1
  -7  -5  -4  663.90   63.15   1
  -7  -5  -4  662.20   62.38   1
   7   5   4  764.00   72.78   1
   7   5   4  660.40   62.88   1
  -7   5  -4  627.10   59.43   1
   7  -5   5  742.70   70.43   1
   7  -5   5  608.60   59.34   1
  -7  -5  -5  665.10   63.37   1
  -7  -5  -5  673.00   63.40   1
   7   5   5  805.30   76.85   1
   7   5   5  694.50   66.31   1
  -7   5  -5  681.50   66.22   1
  -7   5  -5  660.70   62.61   1
   7  -5   6   80.48   12.38   1
   7  -5   6  101.40   11.26   1
  -7  -5  -6   80.34   10.63   1
   7   5   6   94.95   12.46   1
  -7   5  -6   99.72   14.88   1
  -7   5  -6   81.25   9.002   1
   7  -5   7   14.22   10.79   1
  -7  -5  -7   6.251   2.325   1
   7   5   7   6.126   7.282   1
   7   5   7   9.874   11.34   1
  -7   5  -7  -0.246   10.76   1
   7  -5   8  141.50   15.54   1
  -7  -5  -8  152.30   15.10   1
  -7  -5  -8  160.40   24.35   1
   7   5   8  137.30   19.00   1
   7   5   8  123.30   19.94   1
  -7   5  -8  163.00   15.66   1
  -7   5  -8  148.90   15.62   1
   7  -5   9  369.10   41.89   1
   7  -5   9  386.30   38.67   1
  -7  -5  -9  369.80   35.78   1
  -7  -5  -9  296.40   39.58   1
   7   5   9  353.40   39.24   1
  -7   5  -9  391.00   38.43   1
  -7   5  -9  408.00   38.55   1
  -7  -6  11   9.558   7.431   1
  -7  -6  11 -0.1007   2.669   1
   7   6 -11   3.089    4.33   1
   7   6 -11   4.046   16.84   1
  -7  -6  10  0.3942   2.194   1
  -7  -6  10   1.887   5.887   1
   7   6 -10  -1.697   3.019   1
   7   6 -10 -0.9775   13.63   1
   7  -6  -9  0.6321   7.251   1
   7  -6  -9  -5.291   6.528   1
  -7  -6   9  -0.234   4.878   1
  -7  -6   9 0.07525   1.803   1
   7   6  -9   7.092   10.78   1
  -7   6   9   2.232    9.03   1
  -7   6   9-0.00089   1.583   1
   7  -6  -8    5.06   8.423   1
  -7  -6   8  0.9393   4.302   1
   7   6  -8   2.098   2.638   1
   7  -6  -7  -1.234   3.921   1
   7  -6  -7   3.745   7.967   1
  -7  -6   7  0.8332   1.702   1
  -7  -6   7  0.1054   4.066   1
   7   6  -7   1.584   2.469   1
   7   6  -7  -4.108   10.01   1
  -7   6   7  -11.14   8.747   1
  -7   6   7  0.4759   1.705   1
   7  -6  -6  -2.368   3.621   1
   7  -6  -6  -3.994   7.511   1
  -7  -6   6    1.57   1.708   1
  -7  -6   6 -0.2451   3.838   1
   7   6  -6 -0.5273    2.54   1
   7   6  -6   2.266   8.627   1
  -7   6   6 -0.7942   2.211   1
  -7   6   6  -11.43   7.163   1
   7  -6  -5 -0.9628   2.812   1
  -7  -6   5  -1.758   1.593   1
  -7  -6   5  0.7315   3.538   1
   7   6  -5  -1.245   7.401   1
  -7   6   5   1.805   2.511   1
   7  -6  -4   2.593   7.072   1
   7  -6  -4  -1.599    2.77   1
  -7  -6   4  0.4673   1.502   1
  -7  -6   4  -1.316   3.374   1
   7   6  -4    3.57   2.513   1
   7   6  -4  -3.003   5.779   1
  -7   6   4    4.69   6.527   1
  -7   6   4   2.112   2.367   1
   7  -6  -3   4.349   2.737   1
   7  -6  -3   4.234    6.77   1
  -7  -6   3   4.681   1.657   1
  -7  -6   3  0.2364   3.256   1
   7   6  -3  0.5293    4.97   1
   7   6  -3    2.30   2.487   1
  -7   6   3  0.4103   2.406   1
  -7   6   3   5.419   5.844   1
   7  -6  -2   1.628   2.679   1
   7  -6  -2  -2.442   7.004   1
  -7  -6   2 -0.8964   1.506   1
  -7  -6   2 -0.6826   3.128   1
   7   6  -2  0.4933   4.535   1
   7   6  -2    4.55    2.64   1
  -7   6   2   2.045   5.734   1
  -7   6   2   1.284   2.562   1
   7  -6  -1  0.2379   2.786   1
   7  -6  -1   4.731    7.22   1
  -7  -6   1   1.944   1.649   1
  -7  -6   1   3.075   3.175   1
   7   6  -1  -1.265   4.213   1
   7   6  -1-0.02731   2.448   1
  -7   6   1    4.09   2.883   1
  -7   6   1 -0.7597   5.711   1
   7  -6   0   7.014   7.119   1
   7  -6   0    1.57   2.972   1
  -7  -6   0   0.553   1.567   1
  -7  -6   0  0.8433   3.073   1
   7   6   0   -1.39   2.572   1
   7   6   0  -1.478   4.427   1
  -7   6   0   1.559   3.119   1
  -7   6   0  -9.137   6.017   1
   7  -6   1   1.307   3.398   1
   7  -6   1   1.407   7.054   1
  -7  -6  -1   2.799   3.371   1
  -7  -6  -1   1.036   1.661   1
   7   6   1   5.428   2.893   1
   7   6   1   2.227   4.524   1
  -7   6  -1   3.007   5.971   1
  -7   6  -1  0.0209   3.277   1
   7  -6   2   11.28   7.521   1
   7  -6   2   6.888   3.923   1
  -7  -6  -2   21.58   3.063   1
  -7  -6  -2   8.953   4.108   1
  -7   6  -2   18.23   4.269   1
  -7   6  -2   13.15   7.434   1
   7  -6   3   23.44   4.988   1
   7  -6   3   22.39   8.069   1
  -7  -6  -3   26.95   5.632   1
   7   6   3   24.73   6.011   1
   7   6   3   33.80   5.949   1
  -7   6  -3   3.231   7.455   1
  -7   6  -3   31.02   5.304   1
   7  -6   4   2.898   7.823   1
   7  -6   4   4.001   4.163   1
  -7  -6  -4   1.448   4.735   1
  -7  -6  -4    6.23   2.078   1
   7   6   4   6.743   4.917   1
   7   6   4  0.9106    5.69   1
  -7   6  -4   5.623   3.808   1
  -7   6  -4   1.199   7.765   1
   7  -6   5   13.42   8.206   1
   7  -6   5   5.195   4.257   1
  -7  -6  -5   14.33   2.622   1
  -7  -6  -5   7.342    5.28   1
   7   6   5   9.856   5.588   1
   7   6   5   3.403   6.258   1
  -7   6  -5   18.30   4.333   1
  -7   6  -5   10.91   8.596   1
   7  -6   6   1.297    8.76   1
   7  -6   6  -2.406   4.224   1
  -7  -6  -6  -8.069   5.828   1
   7   6   6   9.628   6.299   1
  -7   6  -6  -2.992   9.015   1
  -7   6  -6 -0.1951    3.84   1
   7  -6   7   3.436   10.52   1
   7  -6   7   2.005   4.514   1
  -7  -6  -7   3.728    2.15   1
   7   6   7  -1.646   7.102   1
  -7   6  -7   1.812   3.626   1
  -7  -6  -8  -1.836   2.702   1
  -7  -6  -8   21.76   16.66   1
   7   6   8  -16.91   13.18   1
   7   6   8   2.041   10.91   1
  -7   6  -8  0.1241   1.511   1
   7  -6   9  -1.949   7.495   1
   7  -6   9   11.24   14.11   1
  -7   6  -9  0.7519   5.726   1
  -7  -7  11   25.22   8.527   1
  -7  -7  11   24.63   3.986   1
   7   7 -11   67.81   21.60   1
   7   7 -11   25.50    5.33   1
  -7  -7  10   97.70   12.11   1
  -7  -7  10  113.30   11.29   1
   7   7 -10  115.00   11.86   1
   7   7 -10  104.30   19.32   1
   7  -7  -9   71.02   9.908   1
   7  -7  -9   45.77   9.891   1
  -7  -7   9   69.57   7.141   1
  -7  -7   9   82.14   10.20   1
   7   7  -9   83.92   8.928   1
   7   7  -9   66.24   15.15   1
  -7   7   9   71.72   7.158   1
   7  -7  -8   4.046   8.147   1
   7  -7  -8  -4.167   4.383   1
  -7  -7   8   1.171   1.846   1
   7   7  -8   3.703   11.19   1
   7   7  -8  -2.206   2.558   1
  -7   7   8  -6.095   10.82   1
  -7   7   8  0.5222   1.446   1
   7  -7  -7  463.90   45.89   1
  -7  -7   7  463.30   43.80   1
  -7  -7   7  442.80   42.53   1
   7   7  -7  494.60   46.88   1
   7   7  -7  449.40   46.25   1
  -7   7   7  441.80   44.04   1
   7  -7  -6  982.40   92.69   1
  -7  -7   6  958.80   90.64   1
  -7  -7   6  981.90   92.31   1
   7   7  -6  970.30   94.31   1
   7   7  -6 1011.00   95.20   1
  -7   7   6 1092.00  102.70   1
   7  -7  -5  772.50   72.98   1
   7  -7  -5  799.00   76.90   1
   7   7  -5  765.30   72.18   1
  -7   7   5  758.50   71.52   1
  -7   7   5  782.00   74.92   1
   7  -7  -4  412.50   41.10   1
   7  -7  -4  345.90   33.07   1
  -7  -7   4  357.30   34.39   1
  -7  -7   4  318.10   30.15   1
   7   7  -4  324.70   32.90   1
   7   7  -4  362.30   34.50   1
  -7   7   4  402.70   39.55   1
  -7   7   4  318.60   30.39   1
   7  -7  -3  226.20   24.13   1
   7  -7  -3  177.20   17.36   1
  -7  -7   3  173.90   17.39   1
  -7  -7   3  186.10   17.80   1
   7   7  -3  142.80   15.94   1
   7   7  -3  192.00   18.64   1
  -7   7   3  183.80   19.57   1
  -7   7   3  153.50   15.09   1
   7  -7  -2 1025.00   97.96   1
   7  -7  -2  836.20   78.90   1
  -7  -7   2  848.90   79.80   1
  -7  -7   2  823.00   77.77   1
   7   7  -2  878.50   82.79   1
   7   7  -2  757.10   72.23   1
  -7   7   2  896.50   85.32   1
  -7   7   2  769.60   72.63   1
   7  -7  -1 2207.00  207.20   1
   7  -7  -1 2417.00  228.10   1
  -7  -7   1 1970.00  185.10   1
  -7  -7   1 1834.00  172.10   1
   7   7  -1 1841.00  172.90   1
   7   7  -1 1912.00  180.20   1
  -7   7   1 1864.00  175.10   1
  -7   7   1 2440.00  229.70   1
   7  -7   0  373.00   37.32   1
   7  -7   0  343.20   32.96   1
  -7  -7   0  286.40   27.18   1
  -7  -7   0  278.90   26.95   1
   7   7   0  257.40   24.75   1
   7   7   0  277.80   27.56   1
  -7   7   0  350.10   34.72   1
  -7   7   0  293.30   28.32   1
   7  -7   1   3.133   3.732   1
   7  -7   1  -3.033   7.317   1
  -7  -7  -1   1.406   1.729   1
  -7  -7  -1-0.00427   3.393   1
   7   7   1   2.286   2.806   1
   7   7   1  -2.515   4.709   1
  -7   7  -1   2.739   3.591   1
  -7   7  -1   5.753   7.483   1
   7  -7   2    4.91   7.087   1
  -7  -7  -2-0.05099   1.677   1
  -7  -7  -2   5.202   3.698   1
   7   7   2    4.58   3.096   1
   7   7   2   4.934   5.137   1
  -7   7  -2  -1.236   6.958   1
   7  -7   3  359.60   34.71   1
  -7  -7  -3  420.20   39.72   1
  -7  -7  -3  382.70   36.82   1
   7   7   3  376.90   36.16   1
   7   7   3  333.60   32.81   1
  -7   7  -3  394.70   37.91   1
   7  -7   4  585.40   57.24   1
   7  -7   4  660.60   62.78   1
  -7  -7  -4  573.80   54.10   1
  -7  -7  -4  691.10   65.74   1
   7   7   4  619.40   59.48   1
   7   7   4  635.50   60.50   1
  -7   7  -4  587.90   55.92   1
  -7   7  -4  614.10   59.76   1
   7  -7   5  308.50   30.05   1
   7  -7   5  227.80   24.78   1
  -7  -7  -5  289.10   28.54   1
   7   7   5  278.10   27.50   1
  -7   7  -5  274.50   26.79   1
  -7   7  -5  275.40   29.11   1
   7  -7   6   78.95   13.16   1
  -7  -7  -6   75.96   7.788   1
   7   7   6   68.33   10.72   1
   7   7   6   82.06   10.74   1
  -7   7  -6   93.54   13.82   1
   7  -7   7  -5.052   10.87   1
   7  -7   7   5.372   5.145   1
  -7  -7  -7   4.672   8.877   1
  -7  -7  -7   3.129   2.275   1
   7   7   7   22.04   8.923   1
  -7   7  -7   1.667   1.403   1
  -7   7  -7  0.7015   4.297   1
  -7  -7  -8  161.60   24.92   1
  -7  -7  -8  199.10   19.45   1
   7   7   8  206.30   27.01   1
   7   7   8  160.60   22.33   1
  -7   7  -8  233.60   22.26   1
   7  -7   9  386.60   39.18   1
  -7   7  -9  329.40   32.91   1
  -7   7  -9  355.40   33.71   1
  -7  -8  11  0.8856   7.753   1
   7   8 -11  -1.132   3.857   1
   7   8 -11  -10.25   18.78   1
  -7  -8  10  -1.912   6.191   1
  -7  -8  10   1.171   2.159   1
   7   8 -10   9.265   13.78   1
   7   8 -10    2.07   3.176   1
   7  -8  -9  -11.73   9.348   1
   7  -8  -9  -4.372   5.513   1
  -7  -8   9    1.57   4.955   1
  -7  -8   9   3.323   1.959   1
   7   8  -9   1.479   2.696   1
   7   8  -9  -20.58   12.84   1
  -7   8   9  -0.498   1.567   1
  -7   8   9  0.1544   1.524   1
   7  -8  -8   3.377   4.572   1
   7  -8  -8  -4.544   8.241   1
  -7  -8   8  -0.526    1.77   1
  -7  -8   8  -8.376   4.599   1
   7   8  -8 0.03437   2.388   1
   7   8  -8  -14.10   11.66   1
  -7   8   8   9.624   8.901   1
  -7   8   8 0.09547   1.586   1
   7  -8  -7   13.81   8.453   1
  -7  -8   7   14.82   2.471   1
  -7  -8   7   6.125   4.385   1
   7   8  -7   8.494   10.19   1
   7   8  -7   13.70   2.985   1
  -7   8   7   4.599   9.682   1
   7  -8  -6   1.042   7.042   1
   7  -8  -6-0.08619   3.106   1
  -7  -8   6   2.159    1.81   1
   7   8  -6  -11.03   9.985   1
  -7   8   6   1.288   2.579   1
   7  -8  -5  -1.147   2.981   1
   7  -8  -5  0.3706   7.154   1
  -7  -8   5   1.423   3.946   1
   7   8  -5  0.2284   2.308   1
  -7   8   5   2.042   2.499   1
  -7   8   5   5.513    7.06   1
   7  -8  -4   1.487   2.995   1
   7  -8  -4  0.5444   7.448   1
  -7  -8   4   3.452   3.754   1
  -7  -8   4   7.608   1.929   1
   7   8  -4  -4.172   8.584   1
   7   8  -4   6.428   2.617   1
  -7   8   4   7.126    2.82   1
  -7   8   4   11.17    7.40   1
   7  -8  -3   14.46   7.785   1
   7  -8  -3   7.542   3.295   1
  -7  -8   3   15.38    2.39   1
  -7  -8   3   11.08   3.872   1
   7   8  -3   13.39   3.026   1
   7   8  -3   10.44   6.913   1
  -7   8   3   11.16   3.186   1
  -7   8   3  -10.64    7.04   1
   7  -8  -2   2.176   3.489   1
   7  -8  -2  -3.699   7.269   1
  -7  -8   2   3.681   1.691   1
  -7  -8   2   6.019   3.828   1
   7   8  -2   8.275   2.815   1
   7   8  -2  -1.129   5.947   1
  -7   8   2   2.136   3.405   1
  -7   8   2  0.9119   7.882   1
   7  -8  -1  0.1273   3.579   1
   7  -8  -1  0.9958   7.797   1
  -7  -8   1  0.4318   1.512   1
  -7  -8   1  0.1182    3.49   1
   7   8  -1   6.339    5.49   1
   7   8  -1   2.285   2.555   1
  -7   8   1   -1.21   3.449   1
  -7   8   1  -1.596   6.791   1
   7  -8   0   2.349   7.283   1
   7  -8   0  -2.611   3.504   1
  -7  -8   0 -0.1836    1.68   1
  -7  -8   0   1.974   3.621   1
   7   8   0 -0.7286   2.708   1
   7   8   0  0.5934   5.434   1
  -7   8   0  -5.025   6.942   1
  -7   8   0  0.3976   3.847   1
   7  -8   1  -2.262   7.235   1
  -7  -8  -1   14.41   2.408   1
  -7  -8  -1   5.307   3.571   1
   7   8   1   15.14   3.262   1
   7   8   1   5.778   5.377   1
  -7   8  -1 -0.3237   6.877   1
   7  -8   2   15.37   4.735   1
  -7  -8  -2   10.78   3.771   1
  -7  -8  -2   14.53    2.43   1
   7   8   2   16.87   5.969   1
   7   8   2   14.59   3.382   1
  -7   8  -2   17.26   4.748   1
   7  -8   3 -0.7598   7.861   1
   7  -8   3   -1.59   4.038   1
  -7  -8  -3  0.2889   1.781   1
  -7  -8  -3   3.169    4.09   1
   7   8   3 -0.4054   3.248   1
   7   8   3   4.602   5.868   1
  -7   8  -3  -13.98   7.926   1
  -7   8  -3 -0.1204   4.242   1
   7  -8   4    9.79    4.73   1
   7  -8   4   -1.29    8.53   1
  -7  -8  -4 -0.5819   4.973   1
   7   8   4 -0.9631   4.724   1
  -7   8  -4   15.39   8.623   1
  -7   8  -4   2.083   4.258   1
   7  -8   5  0.1352   4.676   1
   7  -8   5  -12.63   8.529   1
  -7  -8  -5 -0.6979   1.887   1
  -7  -8  -5   2.258   5.944   1
   7   8   5  0.2688   6.394   1
   7   8   5   3.856   5.031   1
  -7   8  -5   3.379   4.149   1
  -7   8  -5  -13.27   9.754   1
   7  -8   6  -2.458   4.471   1
  -7  -8  -6  -1.623   1.962   1
   7   8   6   -0.24   7.366   1
  -7   8  -6  -1.135   4.238   1
   7  -8   7  -12.17   11.22   1
   7  -8   7   1.216   5.409   1
  -7  -8  -7   2.755   2.338   1
  -7  -8  -7 -0.4709   8.268   1
   7   8   7   4.863   10.21   1
   7   8   7  -2.283   8.114   1
  -7   8  -7  -4.726   4.503   1
  -7   8  -7 -0.7099   1.359   1
   7  -8   8    5.31   13.27   1
  -7  -8  -8   4.997   18.36   1
  -7  -8  -8   4.651   2.967   1
   7   8   8   5.965   15.48   1
   7   8   8   3.466   14.26   1
   7  -8   9 -0.3171   8.529   1
   7  -8   9  -11.96   14.63   1
  -7   8  -9   1.272   1.781   1
  -7   8  -9 -0.1141   6.282   1
  -7  -9  11   25.16   4.121   1
  -7  -9  11   34.10   10.20   1
   7   9 -11   43.57   6.519   1
   7   9 -11   55.07   21.98   1
  -7  -9  10  140.90   13.89   1
  -7  -9  10  112.00   13.74   1
   7   9 -10  139.10   22.91   1
   7  -9  -9   88.15   14.73   1
   7  -9  -9   68.66   9.326   1
  -7  -9   9   91.67   11.15   1
  -7  -9   9   87.06    8.80   1
   7   9  -9   96.77   10.01   1
   7   9  -9   58.73   15.55   1
  -7   9   9   82.52   8.144   1
   7  -9  -8   12.66   5.124   1
   7  -9  -8   23.11   9.591   1
  -7  -9   8   10.07   2.203   1
  -7  -9   8   18.34   5.533   1
   7   9  -8   11.21   11.83   1
   7   9  -8   14.02   3.033   1
  -7   9   8   12.33   2.178   1
  -7   9   8   14.51   2.339   1
   7  -9  -7  437.70   41.94   1
  -7  -9   7  447.10   43.15   1
  -7  -9   7  434.00   41.03   1
   7   9  -7  408.40   43.18   1
   7   9  -7  468.70   44.44   1
  -7   9   7  481.80   45.61   1
  -7   9   7  374.30   38.49   1
   7  -9  -6  308.40   31.72   1
   7  -9  -6  326.00   31.32   1
  -7  -9   6  298.30   29.15   1
  -7  -9   6  334.80   31.73   1
   7   9  -6  347.00   33.04   1
   7   9  -6  306.20   33.31   1
  -7   9   6  335.70   32.03   1
  -7   9   6  333.10   34.21   1
   7  -9  -5  146.10   17.07   1
   7  -9  -5  179.00   17.67   1
  -7  -9   5  167.20   16.09   1
  -7  -9   5  174.90   18.14   1
   7   9  -5  178.00   17.33   1
   7   9  -5  188.40   23.13   1
  -7   9   5  149.20   14.67   1
  -7   9   5  162.00   18.70   1
   7  -9  -4   75.32   11.13   1
   7  -9  -4   86.29   9.199   1
  -7  -9   4   84.99   8.466   1
   7   9  -4   90.54   14.48   1
  -7   9   4   67.57   10.83   1
  -7   9   4   82.08   8.618   1
   7  -9  -3   19.92   8.082   1
   7  -9  -3   7.315   3.447   1
  -7  -9   3  0.6788   3.611   1
   7   9  -3  0.4514   2.459   1
  -7   9   3   3.078   3.329   1
  -7   9   3   14.02   7.609   1
   7  -9  -2  852.50   80.56   1
  -7  -9   2  710.60   67.37   1
   7   9  -2  796.00   75.07   1
  -7   9   2  740.10   70.05   1
  -7   9   2  773.30   74.05   1
   7  -9  -1   12.72   7.513   1
   7  -9  -1   21.56   4.595   1
  -7  -9   1   17.52   4.263   1
   7   9  -1   26.43   4.002   1
  -7   9   1   24.83   7.525   1
  -7   9   1   21.03   4.669   1
   7  -9   0   90.10   12.68   1
  -7  -9   0   84.46   8.488   1
  -7  -9   0   91.36   9.963   1
   7   9   0   95.46   9.859   1
  -7   9   0   73.43   10.87   1
   7  -9   1  229.20   22.61   1
  -7  -9  -1  204.40   20.14   1
   7   9   1  186.60   18.19   1
  -7   9  -1  194.90   19.49   1
   7  -9   2   95.05   10.53   1
   7  -9   2   83.93   11.85   1
  -7  -9  -2   82.97   9.158   1
   7   9   2   86.13   9.022   1
  -7   9  -2   97.36   10.82   1
  -7   9  -2   87.81   12.27   1
   7  -9   3  250.50   26.54   1
   7  -9   3  263.50   25.81   1
  -7  -9  -3  267.00   26.04   1
   7   9   3  217.60   21.21   1
  -7   9  -3  250.00   26.52   1
  -7   9  -3  239.80   23.72   1
   7  -9   4  321.20   33.27   1
   7  -9   4  396.20   38.29   1
  -7  -9  -4  398.70   37.74   1
   7   9   4  324.00   32.80   1
   7   9   4  365.70   35.27   1
  -7   9  -4  396.20   38.18   1
  -7   9  -4  340.00   35.02   1
   7  -9   5  386.50   37.47   1
   7  -9   5  284.10   30.31   1
  -7  -9  -5  381.70   37.69   1
  -7  -9  -5  347.20   32.95   1
   7   9   5  328.00   33.35   1
  -7   9  -5  296.10   28.05   1
  -7   9  -5  354.10   34.37   1
   7  -9   6  178.90   18.59   1
   7  -9   6  151.10   20.30   1
  -7  -9  -6  147.10   14.38   1
   7   9   6  115.00   13.79   1
   7   9   6  139.30   18.06   1
  -7   9  -6  165.20   17.19   1
  -7   9  -6  164.20   15.77   1
   7  -9   7   8.186   5.954   1
   7  -9   7   5.397   11.60   1
  -7  -9  -7  -17.93   8.139   1
  -7  -9  -7   3.562   2.453   1
   7   9   7   19.62   13.78   1
   7   9   7  -13.43   8.258   1
  -7   9  -7  0.7274   5.385   1
  -7   9  -7   2.133   1.534   1
  -7  -9  -8  109.20   22.46   1
  -7  -9  -8  112.00   11.67   1
   7   9   8  122.90   27.36   1
   7   9   8  126.50   20.36   1
  -7   9  -8  123.90   12.06   1
   7  -9   9  100.10   16.75   1
  -7 -10  11  0.3259   3.171   1
  -7 -10  11  -5.624   9.683   1
   7  10 -11  0.1546   3.943   1
   7  10 -11  -17.78   20.20   1
  -7 -10  10   2.096   2.396   1
  -7 -10  10   4.279   6.986   1
   7  10 -10  -1.667   3.183   1
   7  10 -10  -8.501   15.63   1
   7 -10  -9   14.42   10.68   1
   7 -10  -9  -6.125   5.265   1
  -7 -10   9  -1.362   1.957   1
   7  10  -9  -11.89   15.08   1
  -7  10   9  -1.635   1.717   1
   7 -10  -8 -0.8429   10.44   1
   7 -10  -8   2.752   4.432   1
  -7 -10   8  0.1494   1.844   1
  -7 -10   8  -5.716   4.938   1
   7  10  -8  -2.418   12.62   1
   7  10  -8   2.598   2.283   1
  -7  10   8    1.47   1.892   1
  -7  10   8   1.801   1.699   1
   7 -10  -7  -1.819   3.918   1
  -7 -10   7   1.923   1.772   1
  -7 -10   7  -5.145   4.651   1
   7  10  -7  -1.421    2.16   1
   7  10  -7  -14.68   11.38   1
  -7  10   7  -1.574    2.80   1
   7 -10  -6 -0.5905   3.277   1
   7 -10  -6   2.472   8.132   1
  -7 -10   6   2.529   4.438   1
  -7 -10   6   1.018   1.662   1
   7  10  -6-0.02316   12.86   1
   7  10  -6  -0.408   2.083   1
  -7  10   6  -10.98   9.023   1
  -7  10   6    3.46    2.79   1
   7 -10  -5   1.092    3.17   1
   7 -10  -5  -1.993   7.297   1
  -7 -10   5   2.492   1.741   1
  -7 -10   5  -5.181    4.16   1
   7  10  -5   18.83   11.57   1
   7  10  -5  0.7259   2.204   1
  -7  10   5   4.505   8.356   1
  -7  10   5   4.174   2.702   1
   7 -10  -4   15.52   7.534   1
   7 -10  -4-0.08374   3.378   1
  -7 -10   4  -1.309   3.893   1
  -7 -10   4   4.807   1.794   1
   7  10  -4   6.683   11.09   1
   7  10  -4   6.702   2.368   1
  -7  10   4   1.882   3.047   1
  -7  10   4   4.625   8.112   1
   7 -10  -3  0.4652   7.369   1
   7 -10  -3   9.372   4.043   1
  -7 -10   3  -3.824   4.078   1
  -7 -10   3   11.83   2.212   1
   7  10  -3   6.615   2.593   1
   7  10  -3   21.97   10.57   1
  -7  10   3   3.837    3.71   1
  -7  10   3   1.192    8.11   1
   7 -10  -2   7.641   4.272   1
   7 -10  -2   2.235   7.187   1
  -7 -10   2   8.306   2.065   1
   7  10  -2  -3.707   8.385   1
  -7  10   2   14.77    4.42   1
  -7  10   2   2.617   7.659   1
   7 -10  -1   10.48   8.103   1
  -7 -10   1   2.735   1.758   1
   7  10  -1   10.45   8.334   1
  -7  10   1   1.416   7.915   1
   7 -10   0  -3.216   4.263   1
  -7 -10   0   1.101   1.656   1
   7  10   0   8.959   7.375   1
   7  10   0  0.2296   2.673   1
  -7  10   0   1.175    4.37   1
   7 -10   1   5.279   3.922   1
   7 -10   1   1.735   7.894   1
  -7 -10  -1   4.784   1.921   1
  -7  10  -1   3.549   7.527   1
  -7  10  -1   2.202   4.378   1
   7 -10   2  -5.355   8.144   1
   7 -10   2   4.723   4.018   1
  -7 -10  -2   11.13   2.302   1
   7  10   2   15.85   7.916   1
  -7  10  -2  -4.028    8.20   1
  -7  10  -2   10.63   4.649   1
   7 -10   3   37.80   10.18   1
   7 -10   3   25.54    5.57   1
   7  10   3   29.10   9.408   1
  -7  10  -3   18.20   9.349   1
  -7  10  -3   44.24   6.647   1
   7 -10   4   9.797   8.336   1
  -7 -10  -4   1.886   4.698   1
  -7 -10  -4   8.664   2.256   1
   7  10   4   7.519   8.818   1
   7  10   4   2.559   4.166   1
  -7  10  -4   11.34   1.864   1
   7 -10   5  -9.396   8.872   1
   7 -10   5  -1.294    5.06   1
  -7 -10  -5  0.7138   5.858   1
  -7 -10  -5   1.417   1.916   1
   7  10   5  -3.482   4.998   1
   7  10   5   8.126   8.784   1
  -7  10  -5   1.917   1.282   1
  -7  10  -5    1.92   4.814   1
   7 -10   6   1.412   11.28   1
   7 -10   6   16.25   5.684   1
  -7 -10  -6   2.393   2.218   1
  -7 -10  -6   13.09   6.846   1
   7  10   6  0.2768   6.021   1
   7  10   6 0.08164   11.55   1
  -7  10  -6   3.917   4.961   1
  -7  10  -6   8.086   1.832   1
   7 -10   7   5.467   5.751   1
  -7 -10  -7   7.274   8.266   1
  -7 -10  -7  -1.068   2.481   1
   7  10   7    5.01   17.39   1
   7  10   7 -0.9493   8.025   1
  -7  10  -7  -3.614   5.066   1
   7 -10   8   6.671   7.303   1
  -7 -10  -8   3.667   16.92   1
   7  10   8  -7.149   11.84   1
  -7  10  -8   13.24    2.29   1
  -7  10  -8   8.884   6.301   1
  -7 -11  11   79.62   9.431   1
   7  11 -11   83.05   21.49   1
   7  11 -11   71.90   8.799   1
  -7 -11  10   65.90   7.071   1
  -7 -11  10   68.40   10.92   1
   7  11 -10   91.16   22.99   1
   7  11 -10   72.05   8.217   1
   7 -11  -9   15.99   6.527   1
   7 -11  -9   38.34   12.12   1
  -7 -11   9   25.55   3.653   1
  -7 -11   9   43.48   8.242   1
   7  11  -9   41.68    5.17   1
   7  11  -9   38.82   17.19   1
  -7  11   9   27.21   3.308   1
   7 -11  -8   12.09   12.26   1
  -7 -11   8   6.108   2.166   1
   7  11  -8   7.062   13.74   1
   7  11  -8   2.067   2.272   1
  -7  11   8    1.54   1.925   1
  -7  11   8   3.891   2.447   1
   7 -11  -7   60.14   12.90   1
   7 -11  -7   38.46    5.65   1
  -7 -11   7   45.93   7.442   1
   7  11  -7   39.69   4.715   1
  -7  11   7   48.65   5.884   1
  -7  11   7   34.79   3.894   1
   7 -11  -6  211.30   23.75   1
   7 -11  -6  224.30   22.00   1
  -7 -11   6  216.30   20.68   1
  -7 -11   6  232.30   23.37   1
   7  11  -6  195.00   24.73   1
   7  11  -6  238.50   22.90   1
  -7  11   6  197.00   19.22   1
  -7  11   6  186.80   17.86   1
   7 -11  -5  148.30   18.02   1
   7 -11  -5  211.40   20.76   1
  -7 -11   5  196.80   20.01   1
  -7 -11   5  182.20   17.48   1
   7  11  -5  197.00   19.03   1
   7  11  -5  181.10   23.63   1
  -7  11   5  167.00   15.99   1
  -7  11   5  161.90   15.98   1
   7 -11  -4  195.30   19.36   1
   7 -11  -4  143.10   17.30   1
  -7 -11   4  179.60   17.24   1
  -7 -11   4  182.10   18.51   1
   7  11  -4  190.80   24.28   1
   7  11  -4  189.80   18.35   1
  -7  11   4  152.40   18.21   1
  -7  11   4  159.70   15.92   1
   7 -11  -3   65.48   8.028   1
   7 -11  -3   43.31   9.417   1
  -7 -11   3   66.25   6.752   1
  -7 -11   3   56.11   7.438   1
   7  11  -3   73.01   7.657   1
   7  11  -3   60.76   14.12   1
  -7  11   3   63.41   10.75   1
  -7  11   3   61.54   7.671   1
   7 -11  -2   10.70   7.624   1
  -7 -11   2   13.99   2.398   1
  -7 -11   2   7.575   3.982   1
   7  11  -2   10.91   10.97   1
   7  11  -2   12.23    2.86   1
  -7  11   2   7.814   7.635   1
   7 -11  -1 1043.00   98.50   1
  -7 -11   1  992.90   93.34   1
  -7 -11   1  987.00   93.28   1
   7  11  -1 1058.00   99.62   1
   7  11  -1 1076.00  103.70   1
  -7  11   1  949.50   89.78   1
   7 -11   0  657.70   62.46   1
   7 -11   0  597.10   58.44   1
  -7 -11   0  686.60   64.67   1
  -7 -11   0  656.40   62.36   1
   7  11   0  623.70   61.64   1
   7  11   0  685.70   64.79   1
  -7  11   0  622.60   59.22   1
  -7  11   0  663.10   64.43   1
   7 -11   1   74.08   8.729   1
   7 -11   1   67.98   11.78   1
  -7 -11  -1   71.96    8.52   1
  -7 -11  -1   75.51   7.628   1
   7  11   1  106.80   15.71   1
   7  11   1   66.82   7.311   1
  -7  11  -1   65.53   8.198   1
  -7  11  -1   94.90   13.84   1
   7 -11   2   4.994   8.267   1
   7 -11   2  0.3127   4.175   1
  -7 -11  -2   1.735   1.746   1
  -7 -11  -2   1.377   3.614   1
   7  11   2   5.711   2.946   1
   7  11   2  -5.975   9.628   1
  -7  11  -2  0.9748   7.537   1
  -7  11  -2   5.338   4.528   1
   7 -11   3  220.90   24.33   1
   7 -11   3  231.30   23.36   1
  -7 -11  -3  313.20   29.76   1
  -7 -11  -3  230.30   22.72   1
   7  11   3  239.40   27.09   1
   7  11   3  249.80   24.17   1
  -7  11  -3  260.60   26.09   1
   7 -11   4  865.60   84.89   1
   7 -11   4  967.90   91.65   1
  -7 -11  -4  924.10   86.94   1
  -7 -11  -4 1031.00   97.56   1
   7  11   4  985.90   95.57   1
   7  11   4  794.20   75.14   1
  -7  11  -4  785.30   73.86   1
  -7  11  -4  819.10   77.71   1
   7 -11   5  211.30   24.85   1
   7 -11   5  225.80   22.81   1
  -7 -11  -5  223.10   22.93   1
  -7 -11  -5  183.80   17.76   1
   7  11   5  210.60   25.66   1
   7  11   5  202.30   20.63   1
  -7  11  -5  182.80   18.74   1
  -7  11  -5  159.90   15.34   1
   7 -11   6   36.40   12.09   1
  -7 -11  -6   28.29   8.064   1
  -7 -11  -6   25.46   3.592   1
   7  11   6   23.33   7.041   1
   7  11   6   47.12   17.47   1
  -7  11  -6   27.82   3.269   1
   7 -11   7  -5.915   6.175   1
   7 -11   7  -8.801   11.79   1
  -7 -11  -7  -5.753   9.689   1
  -7 -11  -7   1.212   2.732   1
   7  11   7  -38.15   22.03   1
   7  11   7  -5.594   8.364   1
  -7  11  -7  0.4748   1.508   1
  -7  11  -7 -0.1592   5.257   1
  -7 -12  11  -2.586   6.934   1
   7  12 -11   2.344   4.146   1
  -7 -12  10  0.1768   7.988   1
  -7 -12  10 -0.4671    2.27   1
   7  12 -10   13.88   19.47   1
   7  12 -10   3.129   3.442   1
   7 -12  -9   2.137   10.40   1
   7 -12  -9  -1.541   6.543   1
  -7 -12   9 -0.5507   6.175   1
  -7 -12   9   3.628   2.303   1
   7  12  -9   -0.69   2.493   1
   7  12  -9  -17.01   17.16   1
  -7  12   9  0.3418    1.77   1
   7 -12  -8   10.42   12.67   1
  -7 -12   8  0.7532   5.868   1
  -7 -12   8   5.214   2.154   1
   7  12  -8   3.161   2.318   1
   7  12  -8-0.07942   15.62   1
  -7  12   8   2.109   2.188   1
   7 -12  -7 -0.7908   3.576   1
   7 -12  -7   2.055   11.22   1
  -7 -12   7  -2.701    5.17   1
  -7 -12   7   3.546   1.904   1
   7  12  -7   1.823   2.208   1
   7  12  -7   18.14   13.63   1
  -7  12   7   3.274   1.552   1
  -7  12   7   1.414   3.017   1
   7 -12  -6   7.397   9.427   1
   7 -12  -6   2.653   3.589   1
  -7 -12   6  -1.053   1.848   1
  -7 -12   6  -1.704   5.247   1
   7  12  -6  -2.792   12.55   1
   7  12  -6 -0.7651   2.102   1
  -7  12   6    5.67   3.009   1
  -7  12   6-0.02096   1.437   1
   7 -12  -5  -3.379   8.304   1
   7 -12  -5 -0.7001   3.582   1
  -7 -12   5 -0.7667   1.716   1
  -7 -12   5   5.425   4.729   1
   7  12  -5  -1.325   2.067   1
   7  12  -5  -12.90   11.77   1
  -7  12   5   3.784   3.213   1
  -7  12   5  0.6521   1.411   1
   7 -12  -4   8.793   8.256   1
   7 -12  -4  -5.661   4.453   1
  -7 -12   4   4.406   1.819   1
  -7 -12   4   3.125   4.699   1
   7  12  -4   5.293   2.284   1
   7  12  -4   9.895   12.48   1
  -7  12   4  -1.357   3.673   1
  -7  12   4    3.51   1.556   1
   7 -12  -3  0.4518   4.163   1
   7 -12  -3   1.681   7.626   1
  -7 -12   3 -0.0145   1.652   1
  -7 -12   3   1.963   4.071   1
   7  12  -3 0.00202    2.16   1
   7  12  -3   15.80   12.30   1
  -7  12   3  0.2223   1.427   1
  -7  12   3  -3.664   4.092   1
   7 -12  -2  0.2478   4.288   1
   7 -12  -2  -6.153   8.975   1
  -7 -12   2   2.162   4.115   1
  -7 -12   2   3.366   1.815   1
   7  12  -2   5.671   2.419   1
   7  12  -2   15.63   12.39   1
  -7  12   2   2.697   4.261   1
   7 -12  -1  0.4066    9.32   1
  -7 -12   1  0.3749   1.779   1
  -7 -12   1   1.518   3.912   1
   7  12  -1   7.062   12.12   1
   7  12  -1   1.029   2.354   1
  -7  12   1 -0.8126   1.298   1
  -7  12   1   2.197   4.637   1
   7 -12   0  -3.439   4.197   1
   7 -12   0   6.935   8.773   1
  -7 -12   0  -6.334   3.738   1
  -7 -12   0  -1.822   1.731   1
   7  12   0  0.8253   2.664   1
   7  12   0  -13.90   10.98   1
  -7  12   0  0.4498   1.346   1
  -7  12   0  -1.838   4.165   1
   7 -12   1  -2.337   8.198   1
   7 -12   1  -1.209   4.088   1
  -7 -12  -1   2.131   4.088   1
  -7 -12  -1   1.138   1.725   1
   7  12   1  -4.472   10.94   1
   7  12   1   3.447   2.643   1
  -7  12  -1  -1.419   4.538   1
  -7  12  -1   1.053   1.309   1
   7 -12   2 -0.4795   4.641   1
   7 -12   2   3.328   8.521   1
  -7 -12  -2   3.005   4.079   1
  -7 -12  -2   3.495   1.895   1
   7  12   2    3.47   2.931   1
   7  12   2  -10.84   11.00   1
  -7  12  -2   8.126   1.687   1
  -7  12  -2  0.8382   4.656   1
   7 -12   3   30.94   5.871   1
  -7 -12  -3   40.88   4.701   1
  -7 -12  -3   20.84   4.974   1
   7  12   3   31.90   4.629   1
   7  12   3   24.53   13.20   1
  -7  12  -3   33.66   6.254   1
   7 -12   4   2.836   9.421   1
   7 -12   4   6.047   5.095   1
  -7 -12  -4   5.167   2.131   1
  -7 -12  -4   1.826   4.645   1
   7  12   4  -17.64   11.89   1
   7  12   4   2.193   3.558   1
  -7  12  -4   10.10   1.852   1
  -7  12  -4   4.359   4.824   1
   7 -12   5  0.0361   5.212   1
   7 -12   5   4.136   10.67   1
  -7 -12  -5  -3.831   5.799   1
  -7 -12  -5  -2.225   2.112   1
   7  12   5   1.161    4.87   1
  -7  12  -5  -2.578   5.106   1
  -7  12  -5 -0.8708   1.332   1
   7 -12   6   1.671   5.594   1
   7 -12   6  -1.596   11.19   1
  -7 -12  -6   0.541   2.309   1
  -7 -12  -6  -8.878   7.741   1
   7  12   6   10.00   17.88   1
   7  12   6   2.709   6.753   1
  -7  12  -6  0.2643   1.376   1
  -7  12  -6   4.448   5.401   1
   7 -12   7  -19.44   13.89   1
  -7 -12  -7    1.21   2.936   1
  -7 -12  -7   3.829   10.12   1
   7  12   7   8.221   8.282   1
   7  12   7  -2.091   20.97   1
  -7  12  -7   3.338   1.608   1
  -7 -13  10   72.15   12.24   1
  -7 -13  10   49.88   5.969   1
   7  13 -10   62.69   7.585   1
   7  13 -10   65.99   22.85   1
  -7 -13   9   15.39   7.324   1
  -7 -13   9   11.32   2.597   1
   7  13  -9   17.78   3.372   1
   7  13  -9   22.77   17.29   1
   7 -13  -8  -1.982   5.947   1
   7 -13  -8  -5.465   13.51   1
  -7 -13   8 0.08529   2.024   1
  -7 -13   8   5.325    6.16   1
   7  13  -8   8.593   17.66   1
   7  13  -8  -1.058   2.297   1
  -7  13   8  -3.534    3.58   1
  -7  13   8  0.9197   2.139   1
   7 -13  -7   73.57    8.72   1
   7 -13  -7  102.20   18.19   1
  -7 -13   7   78.99   10.29   1
  -7 -13   7   87.25   8.815   1
   7  13  -7   92.30   19.60   1
   7  13  -7   81.20   8.359   1
  -7  13   7   84.92   8.521   1
  -7  13   7   79.65   8.757   1
   7 -13  -6  103.90   11.23   1
  -7 -13   6  103.10   10.20   1
  -7 -13   6  127.10   14.32   1
   7  13  -6  103.50   10.39   1
   7  13  -6   90.67   18.30   1
  -7  13   6  117.30   11.46   1
  -7  13   6  103.20   10.77   1
   7 -13  -5  137.50   18.14   1
  -7 -13   5  129.90   12.66   1
   7  13  -5  148.40   21.24   1
  -7  13   5  130.80   12.67   1
   7 -13  -4  202.90   20.44   1
  -7 -13   4  182.60   18.88   1
   7  13  -4  191.40   18.50   1
  -7  13   4  165.80   16.87   1
  -7  13   4  171.70   16.48   1
   7 -13  -3   12.80   4.883   1
   7 -13  -3   16.81   9.547   1
  -7 -13   3   11.30   2.214   1
  -7 -13   3   9.566   4.682   1
   7  13  -3   8.591   2.497   1
   7  13  -3   7.517   12.68   1
  -7  13   3   7.086   4.487   1
  -7  13   3   9.192   1.857   1
   7 -13  -2  681.80   66.98   1
   7 -13  -2  771.80   73.25   1
  -7 -13   2  721.10   68.63   1
  -7 -13   2  722.50   68.04   1
   7  13  -2  706.70   70.78   1
   7  13  -2  760.10   71.70   1
  -7  13   2  720.60   68.44   1
  -7  13   2  688.60   64.81   1
   7 -13  -1  359.90   37.28   1
   7 -13  -1  372.60   36.02   1
  -7 -13   1  373.30   35.36   1
  -7 -13   1  389.20   37.63   1
   7  13  -1  414.30   44.05   1
   7  13  -1  409.20   38.92   1
  -7  13   1  362.60   34.29   1
  -7  13   1  369.70   35.76   1
   7 -13   0  452.50   45.66   1
   7 -13   0  454.70   43.62   1
  -7 -13   0  449.80   43.24   1
  -7 -13   0  446.90   42.24   1
   7  13   0  476.00   49.63   1
   7  13   0  511.20   48.49   1
  -7  13   0  421.00   39.77   1
  -7  13   0  411.40   39.65   1
   7 -13   1   61.17   12.39   1
  -7 -13  -1   69.49   8.689   1
  -7 -13  -1   65.74   6.788   1
   7  13   1   77.18   8.294   1
   7  13   1   98.80   17.70   1
  -7  13  -1   59.71   6.082   1
   7 -13   2   14.66   4.956   1
  -7 -13  -2   15.27   2.557   1
  -7 -13  -2   13.67   4.829   1
   7  13   2   11.98   3.312   1
   7  13   2   6.827   13.01   1
  -7  13  -2   15.67   4.925   1
   7 -13   3  506.30   48.56   1
   7 -13   3  519.10   52.27   1
  -7 -13  -3  468.10   44.26   1
  -7 -13  -3  495.30   47.45   1
   7  13   3  437.00   41.65   1
   7  13   3  663.70   67.41   1
  -7  13  -3  473.30   45.50   1
  -7  13  -3  482.30   45.50   1
   7 -13   4  384.60   40.47   1
   7 -13   4  323.40   31.68   1
  -7 -13  -4  408.50   38.71   1
  -7 -13  -4  341.50   33.27   1
   7  13   4  378.90   41.46   1
   7  13   4  347.10   33.38   1
  -7  13  -4  358.50   34.91   1
  -7  13  -4  431.40   40.75   1
   7 -13   5  223.20   22.71   1
  -7 -13  -5  206.00   21.39   1
  -7 -13  -5  183.40   17.76   1
   7  13   5  176.90   18.20   1
   7  13   5  194.40   27.54   1
  -7  13  -5  170.80   17.64   1
   7 -13   6   8.862   6.331   1
   7 -13   6   23.94   13.36   1
  -7 -13  -6   16.34   8.636   1
   7  13   6  -5.674   20.85   1
   7  13   6   17.44   7.388   1
  -7  13  -6   17.78   6.085   1
  -7  13  -6   13.95   2.149   1
  -7 -13  -7   -2.48   9.421   1
   7  13   7   6.387   8.154   1
   7  13   7  -3.229   20.08   1
  -7 -14   9   5.544   7.822   1
  -7 -14   9   0.487   2.164   1
   7  14  -9   1.708   17.76   1
   7  14  -9   1.691   2.904   1
   7 -14  -8 -0.6616   14.64   1
   7 -14  -8   2.297   6.351   1
  -7 -14   8  0.6994   5.808   1
  -7 -14   8  0.3032   1.958   1
   7  14  -8  -2.749   2.327   1
   7  14  -8   24.84   16.52   1
  -7  14   8   1.935   2.329   1
  -7  14   8   5.057   4.227   1
   7 -14  -7   10.78   14.93   1
   7 -14  -7   1.985    4.53   1
  -7 -14   7   5.852   6.456   1
   7  14  -7   12.58   2.872   1
  -7  14   7   14.33   4.077   1
  -7  14   7   11.96   2.378   1
   7 -14  -6   4.706   12.27   1
  -7 -14   6    8.14   2.201   1
  -7 -14   6    3.22   5.483   1
   7  14  -6   5.549   2.175   1
   7  14  -6   1.496   14.42   1
  -7  14   6   6.342   1.838   1
   7 -14  -5  -1.367   4.581   1
   7 -14  -5  -3.308   10.45   1
  -7 -14   5   2.135   5.529   1
  -7 -14   5  0.6618    1.81   1
   7  14  -5   1.104    2.13   1
   7  14  -5   11.89   13.01   1
  -7  14   5   3.147   3.737   1
   7 -14  -4   3.334   5.071   1
   7 -14  -4  -11.13   9.216   1
  -7 -14   4   1.188   4.722   1
  -7 -14   4   2.732   1.871   1
   7  14  -4   3.669   2.161   1
   7  14  -4  -8.585   12.05   1
  -7  14   4   3.503   1.515   1
  -7  14   4   4.205   4.114   1
   7 -14  -3 -0.4981   9.454   1
   7 -14  -3 -0.2732   4.995   1
  -7 -14   3 -0.4404   1.775   1
   7  14  -3-0.09572   12.34   1
  -7  14   3   5.932   4.723   1
  -7  14   3 -0.6595   1.355   1
   7 -14  -2   9.666   4.926   1
   7 -14  -2   8.741   9.271   1
  -7 -14   2   9.526   2.216   1
  -7 -14   2   2.703   4.885   1
   7  14  -2   9.904   2.578   1
   7  14  -2   3.359   13.28   1
  -7  14   2   10.78   4.741   1
  -7  14   2   18.53   2.514   1
   7 -14  -1   3.957   4.621   1
   7 -14  -1   2.329   8.971   1
  -7 -14   1   4.057   4.504   1
   7  14  -1  -2.175   2.484   1
  -7  14   1 -0.0707   1.378   1
  -7  14   1  0.5898   4.667   1
   7 -14   0  -12.44   9.289   1
   7  14   0  0.7826   2.635   1
  -7  14   0 -0.3688   1.355   1
   7 -14   1   2.659   4.507   1
   7 -14   1  0.7407   10.68   1
  -7 -14  -1   2.128   1.843   1
  -7 -14  -1  -2.005   4.312   1
   7  14   1   3.048   2.708   1
   7  14   1   3.198   14.48   1
  -7  14  -1  -4.489   4.598   1
   7 -14   2  -12.72   9.692   1
   7 -14   2   2.458   4.752   1
  -7 -14  -2   3.356   4.078   1
   7  14   2  -3.098   14.84   1
   7  14   2  0.4016   2.868   1
  -7  14  -2    6.26   1.632   1
  -7  14  -2   6.292   4.572   1
   7 -14   3   9.421   10.37   1
   7 -14   3   3.214   4.834   1
  -7 -14  -3  -4.615   4.346   1
   7  14   3  -1.487   3.084   1
  -7  14  -3    2.47   4.912   1
  -7  14  -3 -0.6647   1.317   1
   7 -14   4   16.43    5.87   1
  -7 -14  -4   17.51    5.43   1
  -7 -14  -4   16.34   3.139   1
   7  14   4   18.86   4.296   1
  -7  14  -4   33.13   6.159   1
   7 -14   5  -0.462   5.416   1
   7 -14   5  -8.262   11.29   1
  -7 -14  -5   3.151   2.249   1
   7  14   5   3.337   4.845   1
   7  14   5  -2.903   15.63   1
  -7  14  -5   1.536   1.426   1
  -7 -14  -6  0.4299   2.888   1
   7  14   6   13.64   21.55   1
   7  14   6   1.363   7.533   1
  -7 -15   8   2.814   6.775   1
  -7 -15   8   1.342   2.102   1
   7  15  -8   8.741   16.68   1
   7  15  -8 -0.8239   2.339   1
   7 -15  -7  127.70   21.37   1
  -7 -15   7  103.20   10.31   1
  -7 -15   7  104.00   12.98   1
   7  15  -7  110.10   11.08   1
   7  15  -7  124.00   22.75   1
  -7  15   7  112.80   11.26   1
  -7  15   7   88.03   10.15   1
   7 -15  -6  124.20   13.54   1
   7 -15  -6  135.60   20.76   1
  -7 -15   6  100.30   10.04   1
  -7 -15   6  139.20   15.93   1
   7  15  -6  106.50   20.57   1
   7  15  -6  112.40   11.34   1
  -7  15   6   92.35   10.08   1
   7 -15  -5  173.00   22.79   1
  -7 -15   5  157.90   15.28   1
  -7 -15   5  176.50   18.59   1
   7  15  -5  144.80   22.34   1
   7  15  -5  163.10   15.87   1
   7 -15  -4  194.60   20.04   1
   7 -15  -4  192.70   23.78   1
  -7 -15   4  193.70   18.61   1
  -7 -15   4  204.30   21.10   1
   7  15  -4  192.30   18.59   1
   7  15  -4  173.40   23.94   1
  -7  15   4  181.60   18.44   1
  -7  15   4  188.80   18.12   1
   7 -15  -3 -0.2065   5.119   1
   7 -15  -3  -6.811   10.12   1
  -7 -15   3   8.284    4.89   1
  -7 -15   3   2.304   1.844   1
   7  15  -3  -4.516   12.86   1
   7  15  -3   1.534   2.165   1
  -7  15   3 0.08733   1.397   1
  -7  15   3  -4.247   4.785   1
   7 -15  -2  214.90   25.13   1
   7 -15  -2  188.60   19.39   1
  -7 -15   2  194.90   19.99   1
  -7 -15   2  214.50   20.54   1
   7  15  -2  235.70   22.68   1
  -7  15   2  238.80   22.75   1
  -7  15   2  197.90   20.06   1
   7 -15  -1  776.60   73.81   1
   7 -15  -1  730.50   72.03   1
  -7 -15   1  839.40   79.85   1
  -7 -15   1  746.50   70.30   1
   7  15  -1  855.60   80.68   1
   7  15  -1  722.90   72.99   1
  -7  15   1  775.50   72.98   1
  -7  15   1  726.00   69.07   1
   7 -15   0  419.00   43.47   1
  -7 -15   0  400.30   37.91   1
  -7 -15   0  406.50   39.38   1
   7  15   0  453.70   43.22   1
   7  15   0  405.40   44.08   1
  -7  15   0  375.20   36.62   1
  -7  15   0  406.80   38.46   1
   7 -15   1  143.40   19.44   1
   7 -15   1  120.20   13.01   1
  -7 -15  -1  127.20   12.45   1
  -7 -15  -1  122.70   13.55   1
   7  15   1  133.80   21.39   1
  -7  15  -1  125.50   12.16   1
  -7  15  -1  109.50   12.15   1
   7 -15   2   3.268   4.799   1
   7 -15   2   9.548   11.18   1
  -7 -15  -2  -3.551   4.296   1
  -7 -15  -2 -0.8656   1.855   1
   7  15   2   13.92   14.23   1
  -7  15  -2  0.9034   1.309   1
  -7  15  -2 -0.5409   4.993   1
   7 -15   3  235.50   23.75   1
  -7 -15  -3  243.50   24.36   1
  -7 -15  -3  262.60   25.13   1
   7  15   3  246.50   24.09   1
   7  15   3  228.20   29.40   1
  -7  15  -3  239.60   23.90   1
   7 -15   4  460.80   44.53   1
   7 -15   4  499.00   51.28   1
  -7 -15  -4  441.70   41.90   1
   7  15   4  414.40   39.79   1
   7  15   4  423.70   46.84   1
  -7  15  -4  441.70   41.73   1
  -7  15  -4  423.30   41.02   1
   7 -15   5   68.62   16.93   1
  -7 -15  -5   62.92   7.141   1
  -7 -15  -5   58.27   9.407   1
   7  15   5   64.82   22.26   1
   7  15   5   59.36   8.162   1
  -7  15  -5   63.24   6.478   1
  -7 -15  -6   32.97   4.913   1
  -7 -15  -6   41.58   10.67   1
   7  15   6   42.55   19.93   1
   7  15   6   36.01    9.04   1
   7 -16  -7  -5.959   15.56   1
   7 -16  -7   2.886   6.348   1
  -7 -16   7  -2.616   6.982   1
   7  16  -7  -1.001   2.331   1
  -7  16   7  -1.809   4.473   1
   7 -16  -6  -2.067   5.763   1
   7 -16  -6   12.30   14.13   1
  -7 -16   6   1.539   6.043   1
  -7 -16   6  -1.647   1.986   1
   7  16  -6    1.08   2.171   1
   7  16  -6  -9.103   14.04   1
  -7  16   6   2.941   2.105   1
  -7  16   6   4.051   4.558   1
   7 -16  -5   1.766   11.75   1
   7 -16  -5   0.615   5.875   1
  -7 -16   5   3.123    6.12   1
  -7 -16   5   5.155    2.10   1
   7  16  -5  -13.05   14.66   1
   7  16  -5   3.309   2.447   1
  -7  16   5  0.5325   4.547   1
  -7  16   5   4.592    1.93   1
   7 -16  -4 -0.8955   5.654   1
   7 -16  -4  -1.947   10.61   1
  -7 -16   4   5.798    5.67   1
   7  16  -4   2.516   2.252   1
  -7  16   4   2.283   4.857   1
  -7  16   4   3.528   1.712   1
   7 -16  -3  -2.964   10.35   1
   7 -16  -3  -11.45   6.229   1
  -7 -16   3 -0.1214   5.065   1
  -7 -16   3    3.98   2.004   1
   7  16  -3   3.057   2.236   1
   7  16  -3   13.60   13.31   1
  -7  16   3 0.08757   1.522   1
   7 -16  -2  -13.14   10.32   1
   7 -16  -2   6.535   5.468   1
  -7 -16   2   2.942   5.131   1
  -7 -16   2  -1.215   1.906   1
   7  16  -2  -8.627   13.03   1
   7  16  -2  -2.229   2.314   1
  -7  16   2 -0.3287   5.104   1
   7 -16  -1   12.41   10.30   1
   7 -16  -1   6.776   5.233   1
  -7 -16   1-0.04215   1.863   1
  -7 -16   1 0.05645   5.135   1
   7  16  -1  0.4374   2.575   1
   7  16  -1   5.509   12.62   1
  -7  16   1   3.264    1.48   1
  -7  16   1 -0.7692   4.874   1
   7 -16   0   2.195   10.91   1
   7 -16   0 -0.3765   4.626   1
  -7 -16   0   1.077   1.899   1
  -7 -16   0   9.853   5.198   1
   7  16   0-0.01145   2.777   1
   7  16   0  -2.764   14.48   1
  -7  16   0   8.341   5.013   1
  -7  16   0    4.13   1.486   1
   7 -16   1   9.907   11.21   1
   7 -16   1    2.91   4.871   1
  -7 -16  -1    6.72   4.543   1
  -7 -16  -1   1.488   2.062   1
   7  16   1 -0.8345   2.965   1
   7  16   1   4.564   14.10   1
  -7  16  -1   1.353   1.369   1
  -7  16  -1   1.799   4.833   1
   7 -16   2  0.2565   5.427   1
  -7 -16  -2  0.6695   2.124   1
  -7 -16  -2   6.495    5.15   1
   7  16   2  -27.54   15.18   1
   7  16   2  0.1314   3.282   1
  -7  16  -2  -2.776   4.689   1
   7 -16   3   2.084   5.485   1
   7 -16   3   1.619   11.35   1
  -7 -16  -3   1.415   5.291   1
  -7 -16  -3   1.181   2.327   1
   7  16   3   5.483   15.80   1
   7  16   3    3.09   3.605   1
  -7  16  -3   3.271   5.026   1
  -7  16  -3   1.548   1.406   1
   7 -16   4   3.483   11.70   1
  -7 -16  -4   3.694   5.621   1
  -7 -16  -4   5.909    2.76   1
   7  16   4  0.4287   18.17   1
   7  16   4   3.802   4.076   1
  -7  16  -4   12.49   2.081   1
  -7 -16  -5   5.653   6.913   1
  -7 -16  -5   8.965   3.326   1
   7  16   5   23.04   17.82   1
   7  16   5   9.851    5.36   1
   7 -17  -7   98.17   20.25   1
  -7  17   7  104.40   10.77   1
   7 -17  -6  295.20   35.24   1
   7 -17  -6  333.20   33.65   1
  -7 -17   6  289.50   29.53   1
  -7  17   6  295.20   29.20   1
  -7  17   6  299.10   28.60   1
   7 -17  -5  136.90   20.99   1
  -7 -17   5  148.50   16.82   1
  -7 -17   5  152.20   14.81   1
   7  17  -5  144.00   14.21   1
   7  17  -5  150.10   23.31   1
  -7  17   5  170.50   16.51   1
   7 -17  -4    6.65   13.08   1
   7 -17  -4   14.62   7.285   1
  -7 -17   4   22.93   6.359   1
  -7 -17   4   15.21   2.696   1
   7  17  -4   7.086   15.19   1
   7  17  -4   17.19   3.024   1
   7 -17  -3   21.13   12.39   1
   7 -17  -3   19.60   6.799   1
  -7 -17   3   15.44   2.738   1
  -7 -17   3   8.173   5.928   1
   7  17  -3   11.22   2.995   1
   7  17  -3   11.31   14.62   1
  -7  17   3   24.33   3.082   1
  -7  17   3   19.21   5.612   1
   7 -17  -2  256.10   26.01   1
   7 -17  -2  251.80   28.86   1
  -7 -17   2  216.80   22.56   1
  -7 -17   2  228.20   21.88   1
   7  17  -2  226.00   29.10   1
   7  17  -2  223.70   21.65   1
  -7  17   2  232.90   22.23   1
  -7  17   2  218.40   22.14   1
   7 -17  -1  339.30   33.48   1
   7 -17  -1  361.40   38.62   1
   7  17  -1  345.00   32.99   1
  -7  17   1  306.00   30.16   1
  -7  17   1  329.00   31.20   1
   7 -17   0  474.60   49.05   1
  -7 -17   0  458.60   44.59   1
   7  17   0  490.80   46.68   1
  -7  17   0  438.20   41.42   1
   7 -17   1   56.01   8.056   1
   7 -17   1   66.17   14.54   1
  -7 -17  -1   44.57    5.43   1
  -7 -17  -1   54.42   8.004   1
   7  17   1   67.10   7.581   1
   7  17   1   37.52   17.62   1
  -7  17  -1   58.81   8.129   1
  -7  17  -1   65.12   6.641   1
   7 -17   2  0.6955   11.61   1
   7 -17   2   11.30    5.45   1
  -7 -17  -2  -0.639   5.636   1
   7  17   2  0.7404   3.391   1
   7  17   2  -11.45   16.04   1
  -7  17  -2   -4.98   5.166   1
  -7  17  -2   5.451   1.609   1
   7 -17   3  169.90   23.07   1
  -7 -17  -3  172.40   18.24   1
   7  17   3  160.90   16.46   1
  -7  17  -3  196.90   18.84   1
  -7 -17  -4  185.40   18.21   1
   7  17   4  177.10   18.19   1
  -7 -17  -5  282.10   27.21   1
   7  17   5  261.30   37.65   1
   7  17   5  285.30   29.03   1
   7 -18  -6  -10.66   9.111   1
  -7  18   6   1.084   2.476   1
  -7  18   6 -0.2159   5.803   1
   7 -18  -5 -0.9412   8.526   1
   7 -18  -5   11.47   12.73   1
  -7  18   5   3.036    2.11   1
  -7  18   5   10.37    6.39   1
   7 -18  -4   2.284   13.11   1
   7 -18  -4  -6.501   7.097   1
  -7 -18   4   2.945   6.337   1
   7  18  -4 -0.8073   2.147   1
  -7  18   4   2.574   6.096   1
  -7  18   4    3.02   1.949   1
   7 -18  -3  -14.79   11.49   1
   7 -18  -3  -2.598   6.721   1
  -7 -18   3   3.401   5.742   1
  -7 -18   3   1.558   2.118   1
   7  18  -3  -3.848   14.94   1
   7  18  -3   3.321   2.386   1
  -7  18   3   8.891    6.02   1
  -7  18   3   5.375   1.982   1
   7 -18  -2  -20.88   11.34   1
  -7 -18   2  -3.236   2.079   1
  -7 -18   2  -10.89   5.754   1
   7  18  -2   5.108   14.48   1
   7  18  -2   2.969   2.591   1
  -7  18   2-0.08638   1.541   1
   7 -18  -1   4.991   6.318   1
  -7 -18   1   1.751   2.032   1
  -7 -18   1   1.938   5.623   1
   7  18  -1  -4.735   2.848   1
   7  18  -1  -1.221   15.27   1
  -7  18   1  -6.147    5.37   1
   7 -18   0   7.842   11.29   1
   7 -18   0   6.683    5.71   1
  -7 -18   0   -0.30   5.446   1
  -7 -18   0   2.397   2.176   1
   7  18   0   2.638   14.79   1
   7  18   0  -3.977   3.026   1
  -7  18   0   1.662   1.584   1
  -7  18   0  -4.136   5.312   1
   7 -18   1   4.255   5.717   1
  -7 -18  -1   2.044   5.125   1
  -7 -18  -1   1.035   2.068   1
   7  18   1  -1.795   16.11   1
   7  18   1  -4.259   3.203   1
  -7  18  -1   3.443   5.113   1
  -7  18  -1    1.56   1.538   1
  -7 -18  -2 -0.2146   2.142   1
  -7 -18  -2   2.204   5.783   1
   7  18   2   4.263   3.845   1
   7  18   2   5.022   17.49   1
  -7  18  -2 0.09448   1.458   1
  -7 -18  -3   3.561    6.51   1
  -7 -18  -3   2.308   2.603   1
   7  18   3  -1.956   16.20   1
   7  18   3   5.504   4.609   1
  -7 -18  -4   1.118   2.774   1
  -7 -18  -4   -4.89   6.892   1
   7  18   4   7.347   5.222   1
   7  18   4  -20.67   18.96   1
  -7 -18  -5   11.42   5.608   1
   7 -19  -5   99.00   14.78   1
  -7  19   5  129.10   15.31   1
  -7  19   5  121.60   12.15   1
   7 -19  -4   65.48   13.28   1
   7 -19  -4   57.22   15.49   1
  -7  19   4   62.61   6.675   1
   7 -19  -3   1.584   8.083   1
   7 -19  -3  -1.844   13.61   1
  -7  19   3  -1.293   5.729   1
   7 -19  -2  185.50   20.22   1
   7 -19  -2  206.70   26.08   1
  -7 -19   2  146.90   17.05   1
   7  19  -2  198.40   19.44   1
  -7  19   2  202.90   21.09   1
  -7  19   2  225.70   21.62   1
   7 -19  -1  265.10   30.92   1
   7 -19  -1  254.80   26.47   1
  -7 -19   1  256.70   26.40   1
   7  19  -1  271.00   26.20   1
  -7  19   1  246.00   23.47   1
  -7  19   1  219.10   22.51   1
   7 -19   0   19.30   13.48   1
  -7 -19   0   35.91   7.644   1
   7  19   0   26.68   4.523   1
   7  19   0   38.96   18.83   1
  -7  19   0   29.78   3.572   1
  -7 -19  -1   5.409    6.33   1
  -7 -19  -1   2.377   2.485   1
   7  19   1   1.447   17.13   1
   7  19   1   3.454   3.753   1
  -7 -19  -2   1.731   6.642   1
   7  19   2   -1.01   4.438   1
  -7 -19  -3   55.90   10.05   1
   7  19   3   56.12   8.161   1
   7  19   4  109.20   12.56   1
   7 -20  -5   -6.95    5.17   1
   7 -20  -5   7.539   6.458   1
  -7  20   5  -5.757    7.09   1
  -7  20   5   8.136   3.939   1
   7 -20  -4  -6.328   8.551   1
   7 -20  -4  -13.83   11.21   1
  -7  20   4   5.263   7.589   1
  -7  20   4   2.186   2.136   1
   7 -20  -3   3.837   8.145   1
   7 -20  -3   3.823   11.47   1
  -7  20   3   5.627   5.974   1
  -7  20   3   3.463   2.248   1
   7 -20  -2  -14.64   12.04   1
  -7  20   2  0.1459   1.925   1
  -7  21   4   16.52   4.766   1
   8   0 -11   75.18   13.54   1
   8   0 -11  108.20   20.29   1
  -8   0  11   52.36   6.104   1
   8   0 -10   95.02   12.30   1
   8   0 -10   93.78   16.08   1
  -8   0  10   91.56   9.385   1
  -8   0  10   89.48   13.98   1
   8   0  -9  310.60   33.68   1
   8   0  -9  289.80   28.95   1
  -8   0   9  327.20   33.10   1
  -8   0   9  309.10   29.38   1
   8   0  -8  295.00   30.48   1
   8   0  -8  344.80   33.62   1
  -8   0   8  304.00   28.88   1
  -8   0   8  358.80   35.47   1
   8   0  -7  221.50   22.07   1
   8   0  -7  183.50   19.25   1
  -8   0   7  215.50   22.11   1
  -8   0   7  233.10   22.20   1
   8   0  -6   10.82   4.878   1
   8   0  -6   10.09   4.714   1
  -8   0   6    4.32   1.735   1
  -8   0   6   8.955   5.997   1
   8   0  -5  178.10   18.21   1
   8   0  -5  173.30   17.64   1
  -8   0   5  172.90   16.59   1
  -8   0   5  183.30   18.80   1
   8   0  -4  618.60   58.95   1
   8   0  -4  689.80   65.51   1
  -8   0   4  650.50   61.26   1
  -8   0   4  723.10   68.72   1
   8   0  -3   84.24   9.764   1
   8   0  -3  111.60   11.95   1
  -8   0   3   76.01   7.726   1
   8   0  -2  574.50   54.68   1
   8   0  -2  595.50   56.77   1
  -8   0   2  618.90   58.92   1
  -8   0   2  636.70   60.04   1
   8   0  -1 1456.00  137.20   1
   8   0  -1 1513.00  142.60   1
  -8   0   1 1553.00  146.20   1
  -8   0   1 1571.00  147.60   1
   8   0   0 1189.00  112.20   1
   8   0   0 1301.00  122.60   1
  -8   0   0 1340.00  126.30   1
  -8   0   0 1480.00  139.10   1
   8   0   1  578.50   55.04   1
   8   0   1  596.80   57.00   1
  -8   0  -1  590.80   56.30   1
  -8   0  -1  749.60   70.76   1
   8   0   2  308.70   30.55   1
  -8   0  -2  313.80   30.70   1
   8   0   4  242.20   23.93   1
   8   0   4  307.00   31.45   1
  -8   0  -4  250.10   24.20   1
  -8   0  -4  256.20   26.38   1
   8   0   5  260.70   28.06   1
   8   0   5  184.40   18.99   1
  -8   0  -5  245.60   26.70   1
  -8   0  -5  247.20   24.00   1
   8   0   6   78.58   13.45   1
   8   0   6   62.31    8.49   1
  -8   0  -6   78.61   14.25   1
  -8   0  -6   63.45   7.498   1
   8   0   7   38.69   11.40   1
  -8   0  -7   18.88   12.64   1
   8   0   8   3.275   8.023   1
   8   0   8   13.36   11.13   1
  -8   0  -8   11.68   14.65   1
  -8   0  -8   7.906   4.476   1
   8   0   9   80.79   16.07   1
   8   0   9   57.47   13.32   1
  -8   0  -9   78.84   10.36   1
   8  -1 -11  -11.42   11.85   1
  -8  -1  11  -2.058   11.93   1
  -8  -1  11   1.681   3.008   1
   8   1 -11   2.666   8.691   1
   8   1 -11  -4.064   15.96   1
  -8   1  11  -1.052   2.405   1
  -8   1  11  -16.67   17.62   1
   8  -1 -10   3.294   7.912   1
   8  -1 -10   6.051   10.33   1
  -8  -1  10   2.681   2.331   1
  -8  -1  10  -10.37   9.545   1
   8   1 -10  0.8405   10.85   1
   8   1 -10   5.055   6.533   1
  -8   1  10 -0.1691   2.357   1
  -8   1  10  -4.148   11.28   1
   8  -1  -9  0.2459    6.00   1
   8  -1  -9  -2.615   8.925   1
  -8  -1   9  -9.076   8.227   1
  -8  -1   9 -0.4764   1.865   1
   8   1  -9   9.009   5.619   1
   8   1  -9  -2.967   9.652   1
  -8   1   9   1.328    1.82   1
  -8   1   9  -2.329   7.386   1
   8  -1  -8  0.4683   5.248   1
   8  -1  -8   1.382   6.178   1
  -8  -1   8 -0.3831   1.713   1
  -8  -1   8   3.868   6.585   1
   8   1  -8   4.265   8.297   1
   8   1  -8   2.102   4.434   1
  -8   1   8 -0.3447   1.651   1
  -8   1   8   4.172    6.30   1
   8  -1  -7   13.11    5.19   1
   8  -1  -7   5.702   5.171   1
  -8  -1   7   2.763   5.351   1
  -8  -1   7   11.06    2.08   1
   8   1  -7   12.84   4.371   1
   8   1  -7  0.7254   5.914   1
  -8   1   7   13.94   2.318   1
  -8   1   7   4.336   5.846   1
   8  -1  -6   3.904    4.56   1
   8  -1  -6  -1.318   4.817   1
  -8  -1   6   3.876   1.666   1
  -8  -1   6   1.428   4.997   1
   8   1  -6   2.877   3.768   1
   8   1  -6   2.421   4.605   1
  -8   1   6  0.7937   1.671   1
  -8   1   6  -1.715   5.851   1
   8  -1  -5   2.125   4.846   1
   8  -1  -5   3.805   4.277   1
  -8  -1   5  -4.963    4.71   1
  -8  -1   5   2.154   1.679   1
   8   1  -5   6.434   3.872   1
   8   1  -5   1.044   4.379   1
  -8   1   5   1.729   5.284   1
  -8   1   5   1.714   1.843   1
   8  -1  -4  -4.804   4.597   1
   8  -1  -4  -4.251   3.812   1
  -8  -1   4  -2.007   1.819   1
  -8  -1   4  -1.853   4.542   1
  -8   1   4  0.1839   1.927   1
  -8   1   4  -4.447   4.816   1
   8  -1  -3   1.937   4.569   1
   8  -1  -3 -0.6891   3.642   1
  -8  -1   3   8.088   4.807   1
  -8  -1   3  0.9705   1.816   1
   8   1  -3  0.4233   4.254   1
   8   1  -3   2.886   4.261   1
  -8   1   3  0.7159   4.678   1
  -8   1   3    2.38   2.129   1
   8  -1  -2   21.11   4.377   1
   8  -1  -2   39.81   6.605   1
  -8  -1   2   21.00   5.614   1
  -8  -1   2   40.87   4.642   1
   8   1  -2   42.80   6.551   1
   8   1  -2   31.22   5.496   1
  -8   1   2   26.40    5.61   1
  -8   1   2   40.78   4.971   1
   8  -1  -1   11.33   3.678   1
   8  -1  -1   17.53   5.455   1
  -8  -1   1   23.94   3.438   1
  -8  -1   1   10.40   5.241   1
   8   1  -1   12.57   4.223   1
   8   1  -1   21.89   5.391   1
  -8   1   1   6.018   4.729   1
  -8   1   1   25.43   3.873   1
   8  -1   0   3.903    3.24   1
   8  -1   0  -2.426   5.072   1
  -8  -1   0   8.407   4.775   1
  -8  -1   0   4.088   2.459   1
   8   1   0   3.256   3.902   1
   8   1   0    7.09   4.723   1
  -8   1   0   4.587   2.741   1
  -8   1   0   6.616   4.562   1
   8  -1   1 -0.5633   3.304   1
   8  -1   1   5.305   5.415   1
  -8  -1  -1 -0.2939   4.624   1
  -8  -1  -1   1.271   2.618   1
   8   1   1  -3.258   4.764   1
   8   1   1  0.3874   4.071   1
  -8   1  -1 -0.6494   4.874   1
  -8   1  -1   3.758   2.851   1
   8  -1   2   3.785   6.011   1
  -8  -1  -2   2.154   5.149   1
   8   1   2   15.29   5.492   1
  -8   1  -2   3.216   5.442   1
   8  -1   3   2.845   3.708   1
  -8  -1  -3   5.177   2.855   1
   8   1   3   1.599    5.95   1
   8   1   3  -3.529   4.198   1
  -8   1  -3    4.83   2.984   1
   8  -1   4   30.08   9.246   1
   8  -1   4   19.39   4.625   1
  -8  -1  -4   10.24   6.403   1
  -8  -1  -4   35.34   4.816   1
   8   1   4   16.73   4.907   1
   8   1   4   28.69   7.869   1
  -8   1  -4   14.44   7.987   1
  -8   1  -4   33.39   4.847   1
   8  -1   5   1.945   4.144   1
   8  -1   5   1.092   8.799   1
  -8  -1  -5   4.713   8.142   1
  -8  -1  -5    1.62   2.953   1
   8   1   5   -9.33   5.017   1
   8   1   5   11.40   8.223   1
  -8   1  -5 -0.4952   3.021   1
  -8   1  -5  -6.639   9.684   1
   8  -1   6   -0.18    4.49   1
   8  -1   6  -12.47   9.025   1
  -8  -1  -6 -0.7763   2.947   1
  -8  -1  -6  -8.673   10.21   1
   8   1   6 -0.2627   9.249   1
   8   1   6  -1.181   5.119   1
  -8   1  -6  0.9807   10.69   1
  -8   1  -6    2.65   3.355   1
   8  -1   7  -3.581    8.93   1
   8  -1   7   7.471   5.828   1
  -8  -1  -7   1.174   12.48   1
  -8   1  -7   3.845   3.837   1
   8  -1   8   14.83   10.93   1
   8  -1   8 -0.7142   6.991   1
  -8  -1  -8  -10.75   15.00   1
  -8  -1  -8  -2.567   3.871   1
   8   1   8  -2.196    8.93   1
  -8   1  -8  -1.565    4.74   1
  -8   1  -8 0.06851   14.04   1
   8  -1   9   5.599   11.40   1
   8  -1   9   24.32   11.75   1
  -8  -1  -9   7.985   9.049   1
   8   1   9   14.29   9.653   1
   8  -2 -11   8.991   14.56   1
  -8  -2  11   26.81    4.48   1
  -8  -2  11   23.79   14.77   1
   8   2 -11   54.52   11.27   1
   8   2 -11   55.19   19.52   1
   8  -2 -10   68.84   13.70   1
  -8  -2  10   79.39   13.81   1
  -8  -2  10   67.72   7.293   1
   8   2 -10   81.48   10.74   1
   8   2 -10   85.19   16.27   1
  -8   2  10   62.98   6.871   1
   8  -2  -9  255.00   27.80   1
   8  -2  -9  217.50   23.12   1
  -8  -2   9  232.20   22.22   1
  -8  -2   9  237.10   24.61   1
   8   2  -9  182.60   22.95   1
  -8   2   9  211.40   23.03   1
  -8   2   9  230.90   22.05   1
   8  -2  -8   52.17   8.366   1
   8  -2  -8   64.06   9.229   1
  -8  -2   8   65.47    6.74   1
  -8  -2   8   60.27    8.85   1
   8   2  -8   74.39   12.92   1
   8   2  -8   56.06   7.012   1
  -8   2   8   38.36    8.53   1
  -8   2   8   61.45   6.316   1
   8  -2  -7   52.06   7.691   1
   8  -2  -7   47.06   7.346   1
  -8  -2   7   60.08   6.196   1
  -8  -2   7   50.37   7.664   1
   8   2  -7   50.36   6.325   1
   8   2  -7   49.40   9.228   1
  -8   2   7   49.10   7.939   1
  -8   2   7   53.12    5.56   1
   8  -2  -6  199.80   20.23   1
   8  -2  -6  143.70   15.14   1
  -8  -2   6  155.20   14.96   1
  -8  -2   6  185.30   18.69   1
   8   2  -6  164.30   16.33   1
   8   2  -6  161.60   17.15   1
  -8   2   6  150.90   14.55   1
  -8   2   6  160.20   16.84   1
   8  -2  -5  206.10   20.80   1
   8  -2  -5  226.20   22.42   1
  -8  -2   5  225.20   21.46   1
  -8  -2   5  214.20   21.24   1
   8   2  -5  202.30   19.81   1
   8   2  -5  214.20   21.63   1
  -8   2   5  237.20   22.62   1
  -8   2   5  199.30   20.18   1
   8  -2  -4  732.30   69.43   1
   8  -2  -4  701.90   66.71   1
  -8  -2   4  689.40   64.89   1
  -8  -2   4  720.30   68.45   1
   8   2  -4  729.50   69.43   1
   8   2  -4  682.90   64.64   1
  -8   2   4  806.50   75.94   1
  -8   2   4  666.90   63.42   1
   8  -2  -3   75.63    9.26   1
   8  -2  -3   71.74   8.204   1
  -8  -2   3  101.20   11.11   1
  -8  -2   3   77.55   7.753   1
   8   2  -3   75.66   8.528   1
   8   2  -3   89.11   10.34   1
  -8   2   3   92.10   10.50   1
  -8   2   3   82.48   8.532   1
   8  -2  -2   26.92   5.861   1
   8  -2  -2   30.42   4.808   1
  -8  -2   2   30.51   5.729   1
  -8  -2   2   32.92   3.869   1
   8   2  -2   31.97   5.294   1
   8   2  -2   35.59   5.955   1
  -8   2   2   33.97   4.493   1
  -8   2   2   22.30   5.441   1
   8  -2  -1 1636.00  153.80   1
   8  -2  -1 1645.00  155.00   1
  -8  -2   1 1683.00  158.00   1
  -8  -2   1 1888.00  177.70   1
   8   2  -1 1719.00  161.90   1
   8   2  -1 1784.00  167.80   1
  -8   2   1 1657.00  156.00   1
  -8   2   1 1798.00  168.90   1
   8  -2   0  934.90   88.24   1
   8  -2   0 1017.00   96.48   1
  -8  -2   0 1022.00   96.14   1
  -8  -2   0 1173.00  110.70   1
   8   2   0  990.30   93.61   1
   8   2   0  965.20   91.32   1
  -8   2   0  940.10   88.56   1
  -8   2   0  944.20   89.40   1
   8  -2   1  846.20   80.70   1
   8  -2   1  783.90   74.18   1
  -8  -2  -1  828.50   78.04   1
  -8  -2  -1  848.50   80.39   1
   8   2   1  769.40   73.00   1
   8   2   1  785.90   74.57   1
  -8   2  -1  746.60   71.02   1
  -8   2  -1  740.40   69.92   1
   8  -2   2  114.40   12.08   1
   8  -2   2  145.40   16.71   1
  -8  -2  -2  122.90   13.44   1
   8   2   2  122.10   13.39   1
  -8   2  -2  125.70   14.48   1
  -8   2  -2  117.90   12.00   1
   8  -2   3  128.80   13.35   1
   8  -2   3  150.20   18.06   1
  -8  -2  -3  160.90   15.73   1
   8   2   3  116.90   13.35   1
   8   2   3  129.80   13.83   1
  -8   2  -3  117.30   14.60   1
  -8   2  -3  136.50   13.65   1
   8  -2   4  172.50   17.41   1
   8  -2   4  226.70   24.84   1
  -8  -2  -4  202.40   19.62   1
  -8  -2  -4  164.00   17.45   1
   8   2   4  174.10   18.87   1
   8   2   4  161.10   16.87   1
  -8   2  -4  178.60   17.63   1
  -8   2  -4  191.60   21.56   1
   8  -2   5  227.90   25.17   1
   8  -2   5  212.90   21.36   1
  -8  -2  -5  220.30   23.51   1
  -8  -2  -5  232.50   22.44   1
   8   2   5  226.60   23.03   1
   8   2   5  237.70   25.48   1
  -8   2  -5  240.10   26.85   1
  -8   2  -5  210.80   20.66   1
   8  -2   6   87.55   13.71   1
   8  -2   6   84.44   10.11   1
  -8  -2  -6   73.63   7.972   1
  -8  -2  -6  119.80   16.76   1
   8   2   6   89.46   11.27   1
   8   2   6  110.60   15.96   1
  -8   2  -6   73.60   8.521   1
  -8   2  -6  121.70   17.20   1
   8  -2   7   0.295   5.001   1
  -8  -2  -7  0.5205    2.79   1
  -8  -2  -7   14.24   12.94   1
   8   2   7  -4.701   10.04   1
   8   2   7  -7.958   6.913   1
  -8   2  -7  0.1381   12.27   1
  -8   2  -7   9.914   4.024   1
   8  -2   8   21.15   7.543   1
   8  -2   8   15.40   12.06   1
  -8  -2  -8   28.70   16.17   1
  -8  -2  -8   19.02   4.435   1
   8   2   8   22.25   10.66   1
  -8   2  -8   27.59   6.058   1
  -8   2  -8   12.44   15.10   1
   8  -2   9  122.50   18.47   1
   8  -2   9   87.16   16.40   1
  -8   2  -9  130.10   15.39   1
  -8  -3  11  -21.31   14.02   1
   8   3 -11   2.102   7.945   1
   8  -3 -10  -15.29   11.49   1
  -8  -3  10   5.267   7.972   1
   8   3 -10   6.564   4.872   1
  -8   3  10   4.298   15.89   1
  -8   3  10  0.7792   2.052   1
   8  -3  -9  -6.917   7.681   1
   8  -3  -9  -1.581   8.511   1
   8   3  -9  -1.077   3.688   1
  -8   3   9   1.005   1.743   1
  -8   3   9   4.678   10.59   1
   8  -3  -8 -0.5323   6.626   1
   8  -3  -8   3.015   5.189   1
  -8  -3   8  -7.413   5.048   1
  -8  -3   8   1.521   1.734   1
   8   3  -8   11.98   10.03   1
   8   3  -8    2.09   2.999   1
  -8   3   8   5.211   7.562   1
  -8   3   8   1.556   1.701   1
   8  -3  -7 -0.8448    5.20   1
   8  -3  -7   18.84   6.362   1
  -8  -3   7   17.82   5.026   1
  -8  -3   7   14.66   2.397   1
   8   3  -7   13.62   3.331   1
   8   3  -7   21.19   8.801   1
  -8   3   7   12.14   6.734   1
  -8   3   7   15.81   2.464   1
   8  -3  -6   4.025   4.716   1
   8  -3  -6   22.22   6.048   1
  -8  -3   6   10.82   4.274   1
  -8  -3   6   16.85   2.499   1
   8   3  -6    3.34   5.804   1
   8   3  -6   10.96   3.142   1
  -8   3   6   3.704   5.957   1
  -8   3   6   13.72   2.435   1
   8  -3  -5   6.152   5.241   1
   8  -3  -5  -4.171   3.697   1
  -8  -3   5   3.614   3.873   1
  -8  -3   5   3.438   1.671   1
   8   3  -5   1.676   2.676   1
   8   3  -5 -0.2442   4.629   1
  -8   3   5  0.7771   2.003   1
  -8   3   5  0.1231   5.692   1
   8  -3  -4   2.065   3.632   1
   8  -3  -4   4.665   4.991   1
  -8  -3   4   4.916   1.778   1
  -8  -3   4 -0.1293   3.705   1
   8   3  -4   2.955   2.989   1
   8   3  -4  0.2356    4.52   1
  -8   3   4   4.493    5.19   1
  -8   3   4   7.849   2.643   1
   8  -3  -3  -9.943   5.207   1
   8  -3  -3  0.5639   3.354   1
  -8  -3   3-0.05871   1.606   1
  -8  -3   3  -1.109   3.888   1
   8   3  -3  -1.248   2.924   1
   8   3  -3  -2.593    4.48   1
  -8   3   3  0.2484   5.347   1
  -8   3   3  -5.946   2.537   1
   8  -3  -2  0.4152   5.056   1
   8  -3  -2    2.56   3.018   1
  -8  -3   2  -1.492   4.098   1
  -8  -3   2    7.96   1.986   1
   8   3  -2   4.781   4.689   1
   8   3  -2   8.174   3.562   1
  -8   3   2   1.436   4.846   1
  -8   3   2   11.90    3.03   1
   8  -3  -1   67.34   9.697   1
   8  -3  -1   47.53   6.068   1
  -8  -3   1   50.80   7.074   1
   8   3  -1   66.71   8.474   1
   8   3  -1   78.07   8.809   1
  -8   3   1   44.87   7.341   1
   8  -3   0   4.141    3.40   1
   8  -3   0  -3.049   5.943   1
  -8  -3   0  -1.377   4.833   1
  -8  -3   0   1.397   1.961   1
   8   3   0    3.27   4.289   1
   8   3   0  0.1138   4.302   1
  -8   3   0    2.12   5.688   1
  -8   3   0-0.00844   2.712   1
   8  -3   1   3.317   6.841   1
  -8  -3  -1  -4.135   4.987   1
  -8  -3  -1   3.217   2.159   1
   8   3   1   5.633    4.81   1
   8   3   1  -1.637   4.202   1
  -8   3  -1  -6.507   5.964   1
   8  -3   2   9.855   3.789   1
  -8  -3  -2   10.18    5.38   1
   8   3   2   12.63   5.602   1
  -8   3  -2   15.11    3.56   1
   8  -3   3  -4.124   8.157   1
   8  -3   3  -3.759   3.729   1
  -8  -3  -3   1.099   2.212   1
   8   3   3   8.188   5.241   1
  -8   3  -3  0.2618   2.896   1
  -8   3  -3  -6.201   7.618   1
   8  -3   4   12.66   4.519   1
   8  -3   4   24.68   9.665   1
  -8  -3  -4   14.25   5.957   1
  -8  -3  -4   23.89   3.555   1
   8   3   4   28.96   6.796   1
   8   3   4   32.34   6.708   1
  -8   3  -4   24.58   4.269   1
  -8   3  -4   11.02   9.656   1
   8  -3   5   12.64   8.926   1
   8  -3   5   3.513   4.358   1
  -8  -3  -5    3.86   2.564   1
  -8  -3  -5   -3.27   6.678   1
   8   3   5 0.06592   6.904   1
   8   3   5   3.133   5.864   1
  -8   3  -5  -1.697   10.07   1
  -8   3  -5   7.081   3.434   1
   8  -3   6  -3.675   9.338   1
  -8  -3  -6 0.08349   2.429   1
  -8  -3  -6    7.04   9.365   1
   8   3   6   7.525   6.387   1
   8   3   6  -1.986   9.088   1
  -8   3  -6  -10.73   10.35   1
   8  -3   7   4.467    9.14   1
   8  -3   7  -7.608   5.115   1
  -8  -3  -7   2.364   2.661   1
  -8  -3  -7  -13.15   12.38   1
   8   3   7  -1.329   7.447   1
   8   3   7   5.396   11.46   1
  -8   3  -7  0.2721   3.841   1
  -8   3  -7 -0.5663   11.58   1
   8  -3   8   13.16   12.83   1
   8  -3   8   10.60   6.602   1
  -8  -3  -8   1.046   3.143   1
   8   3   8  -15.61   10.74   1
   8   3   8   2.597   11.30   1
  -8   3  -8   3.257   4.772   1
  -8   3  -8   12.75   15.00   1
   8  -3   9   13.30   12.27   1
   8  -3   9   11.17   12.58   1
  -8   3  -9   6.536   6.299   1
  -8   3  -9   13.28   2.418   1
  -8  -4  11   52.26   6.342   1
  -8  -4  11   42.11   12.42   1
   8   4 -11   83.63   21.93   1
   8   4 -11   63.37   9.846   1
   8  -4 -10  101.70   16.64   1
   8  -4 -10   86.38   14.91   1
  -8  -4  10   65.18   10.70   1
  -8  -4  10   86.78   8.962   1
   8   4 -10   92.58   17.74   1
   8   4 -10   81.11   9.341   1
  -8   4  10  102.00   10.23   1
  -8   4  10  114.50   22.01   1
   8  -4  -9   85.44   12.29   1
  -8  -4   9   77.64   7.931   1
   8   4  -9   58.75   7.239   1
   8   4  -9   82.97   15.33   1
  -8   4   9   87.58   8.733   1
   8  -4  -8   9.848   8.609   1
   8  -4  -8   2.467   4.936   1
  -8  -4   8    0.15   4.663   1
  -8  -4   8   3.295   1.755   1
   8   4  -8  -11.79   10.11   1
  -8   4   8  -2.108    1.63   1
  -8   4   8  -4.197   9.621   1
   8  -4  -7  465.00   44.91   1
   8  -4  -7  441.20   43.51   1
  -8  -4   7  406.60   39.15   1
   8   4  -7  360.50   34.44   1
  -8   4   7  418.90   39.58   1
  -8   4   7  398.20   39.52   1
   8  -4  -6  163.00   16.71   1
   8  -4  -6  117.20   13.91   1
  -8  -4   6  139.10   13.47   1
  -8  -4   6  147.60   15.13   1
   8   4  -6   96.43   12.84   1
   8   4  -6  118.40   11.97   1
  -8   4   6  139.20   15.57   1
  -8   4   6  124.80   12.18   1
   8  -4  -5  338.60   32.72   1
   8  -4  -5  328.50   32.65   1
  -8  -4   5  317.10   30.05   1
  -8  -4   5  313.40   30.30   1
   8   4  -5  270.30   25.97   1
   8   4  -5  280.60   28.06   1
  -8   4   5  332.00   32.71   1
  -8   4   5  347.10   32.99   1
   8  -4  -4  420.40   40.20   1
   8  -4  -4  417.90   40.75   1
  -8  -4   4  433.20   40.91   1
  -8  -4   4  423.10   40.50   1
   8   4  -4  377.20   35.96   1
   8   4  -4  389.80   37.95   1
  -8   4   4  397.80   38.61   1
  -8   4   4  484.50   45.91   1
  -8  -4   3   70.76   7.136   1
  -8  -4   3   78.01   8.997   1
   8   4  -3   65.29   8.609   1
   8   4  -3   63.43   7.224   1
  -8   4   3   76.49    9.78   1
  -8   4   3   65.80    7.20   1
   8  -4  -2  211.10   20.66   1
   8  -4  -2  245.50   25.16   1
  -8  -4   2  210.00   20.73   1
  -8  -4   2  191.50   18.32   1
   8   4  -2  194.00   18.96   1
   8   4  -2  209.30   21.14   1
  -8   4   2  202.70   19.65   1
  -8   4   2  208.50   21.24   1
   8  -4  -1  292.90   28.24   1
   8  -4  -1  340.80   34.09   1
  -8  -4   1  276.50   26.27   1
  -8  -4   1  294.90   28.67   1
   8   4  -1  259.50   25.13   1
   8   4  -1  300.90   29.54   1
  -8   4   1  264.80   25.43   1
  -8   4   1  290.30   28.95   1
   8  -4   0 1212.00  115.30   1
   8  -4   0 1005.00   94.79   1
  -8  -4   0 1146.00  108.20   1
  -8  -4   0  923.90   86.88   1
   8   4   0  949.10   89.62   1
   8   4   0 1075.00  101.70   1
  -8   4   0 1108.00  105.10   1
  -8   4   0  827.60   78.04   1
   8  -4   1  260.80   25.45   1
   8  -4   1  347.20   35.06   1
  -8  -4  -1  298.60   29.25   1
   8   4   1  276.10   27.02   1
  -8   4  -1  250.90   24.37   1
  -8   4  -1  279.40   28.22   1
   8  -4   2   1.628   3.325   1
  -8  -4  -2  -5.264   5.362   1
  -8  -4  -2   1.637   2.176   1
   8   4   2   7.007   5.629   1
   8   4   2   10.85   5.406   1
  -8   4  -2   8.419   3.108   1
   8  -4   3  239.90   26.35   1
   8  -4   3  183.60   18.28   1
  -8  -4  -3  207.40   19.90   1
   8   4   3  202.00   20.79   1
  -8   4  -3  172.60   19.82   1
  -8   4  -3  186.60   18.29   1
   8  -4   4  443.20   42.45   1
   8  -4   4  491.90   48.91   1
  -8  -4  -4  409.50   39.75   1
  -8  -4  -4  445.30   42.15   1
   8   4   4  532.10   51.41   1
   8   4   4  418.00   40.56   1
  -8   4  -4  476.10   47.57   1
  -8   4  -4  413.10   39.39   1
   8  -4   5  383.60   37.01   1
   8  -4   5  359.30   36.59   1
  -8  -4  -5  396.80   37.63   1
  -8  -4  -5  340.40   33.67   1
   8   4   5  378.20   37.40   1
   8   4   5  422.90   41.52   1
  -8   4  -5  377.30   38.97   1
  -8   4  -5  377.20   36.11   1
   8  -4   6   87.26   10.18   1
   8  -4   6   54.56   12.55   1
  -8  -4  -6   92.93   13.92   1
  -8  -4  -6   77.31   8.044   1
   8   4   6   98.38   12.91   1
   8   4   6  103.50   14.81   1
  -8   4  -6   90.73   9.914   1
   8  -4   7  -2.337   5.495   1
   8  -4   7   3.635   10.56   1
  -8  -4  -7   2.069    2.42   1
  -8  -4  -7   3.283   12.39   1
   8   4   7   1.258   11.43   1
   8   4   7  -2.712   8.203   1
  -8   4  -7  -6.692   11.71   1
  -8   4  -7  0.6556   4.095   1
   8  -4   8   13.90   13.12   1
  -8  -4  -8   20.90   4.299   1
   8   4   8   23.48   12.94   1
   8   4   8   9.222   11.68   1
  -8   4  -8   33.43   3.775   1
   8  -4   9  117.00   17.31   1
   8  -4   9   63.42   13.21   1
  -8   4  -9   65.99   9.965   1
  -8  -5  11 -0.1476    2.87   1
  -8  -5  11   9.186   9.092   1
   8   5 -11  -3.674   18.02   1
   8   5 -11   6.699   5.597   1
   8  -5 -10  -6.332   10.11   1
   8  -5 -10  -12.63   10.41   1
  -8  -5  10 -0.1537   6.842   1
  -8  -5  10  0.9592   2.347   1
   8   5 -10   3.769   3.737   1
   8   5 -10  0.9144   12.97   1
  -8   5  10 -0.3463   2.122   1
  -8   5  10   8.113   16.12   1
   8  -5  -9  -4.171   6.576   1
  -8  -5   9  -4.223   5.286   1
  -8  -5   9   2.266   1.907   1
   8   5  -9   -3.05   11.00   1
   8   5  -9 -0.9317   2.986   1
  -8   5   9  -5.427   17.10   1
  -8   5   9   4.407   1.945   1
   8  -5  -8   -8.94   4.962   1
   8  -5  -8   3.081   9.662   1
  -8  -5   8  0.5894   1.706   1
  -8  -5   8   1.805   4.747   1
   8   5  -8   -7.53   11.13   1
   8   5  -8  -1.639    2.66   1
  -8   5   8   1.219   1.634   1
  -8   5   8  -5.726   11.39   1
   8  -5  -7  -1.173   4.745   1
   8  -5  -7  -15.51   8.198   1
  -8  -5   7   3.517   1.779   1
   8   5  -7   6.338   9.844   1
  -8   5   7  -6.668   8.957   1
  -8   5   7   3.727   1.868   1
   8  -5  -6   9.637   7.706   1
   8  -5  -6   9.507   4.343   1
  -8  -5   6   15.51    4.56   1
  -8  -5   6   10.52   2.189   1
   8   5  -6   12.84    3.18   1
   8   5  -6  -3.034   7.913   1
  -8   5   6   16.04   2.803   1
  -8   5   6   8.698   7.604   1
   8  -5  -5   16.09   4.151   1
   8  -5  -5   26.78   7.898   1
  -8  -5   5    9.86   4.213   1
   8   5  -5   20.28   3.577   1
  -8   5   5   10.35   7.396   1
   8  -5  -4   5.252   3.235   1
   8  -5  -4   2.988   6.987   1
  -8  -5   4  -1.136   3.848   1
  -8  -5   4   3.924   1.897   1
   8   5  -4   3.126   2.621   1
  -8   5   4    7.75   2.765   1
  -8   5   4  -12.48   6.828   1
   8  -5  -3    1.54    3.06   1
   8  -5  -3   2.626   6.817   1
  -8  -5   3  -1.017   3.772   1
  -8  -5   3   3.276   1.746   1
   8   5  -3   2.203   5.032   1
   8   5  -3   2.796   2.684   1
  -8   5   3   5.134   6.362   1
  -8   5   3   1.853   2.596   1
   8  -5  -2 -0.1871   3.204   1
   8  -5  -2  0.5877    6.82   1
  -8  -5   2   2.058   3.726   1
  -8  -5   2  0.7644   1.558   1
   8   5  -2 -0.3349   2.767   1
   8   5  -2 0.03591   4.733   1
  -8   5   2  -1.953   6.218   1
  -8   5   2   1.818    2.64   1
   8  -5  -1   32.15   8.876   1
   8  -5  -1   21.43   4.084   1
  -8  -5   1   28.28   5.087   1
  -8  -5   1   34.75   4.045   1
   8   5  -1   22.18   5.855   1
   8   5  -1   36.28   5.047   1
  -8   5   1   21.88   6.902   1
  -8   5   1   25.23   4.019   1
   8  -5   0   42.59    9.50   1
  -8  -5   0   33.66    5.66   1
   8   5   0   35.85   5.164   1
  -8   5   0   19.25   7.721   1
   8  -5   1   15.20   3.951   1
  -8  -5  -1   20.74   5.418   1
   8   5   1   28.27   5.219   1
  -8   5  -1   15.40   3.535   1
   8  -5   2 -0.4795   7.854   1
   8  -5   2   4.791   3.555   1
  -8   5  -2   1.915   2.866   1
  -8   5  -2  -13.56   8.138   1
   8  -5   3  -4.116   8.186   1
   8  -5   3 -0.1576   3.728   1
  -8  -5  -3   1.182   1.822   1
  -8  -5  -3  -6.979    5.33   1
   8   5   3 -0.5017   5.578   1
  -8   5  -3   4.854   2.978   1
  -8   5  -3  0.2947   8.967   1
   8  -5   4  -2.806   8.038   1
   8  -5   4  -3.807   4.022   1
  -8  -5  -4   3.237    5.62   1
  -8  -5  -4   3.341   2.025   1
   8   5   4   1.845   6.378   1
   8   5   4   5.662   5.271   1
  -8   5  -4  -1.212    3.39   1
  -8   5  -4  -1.775    9.57   1
   8  -5   5   13.50   8.766   1
  -8  -5  -5   8.248    2.34   1
  -8  -5  -5  -3.448   6.167   1
   8   5   5  -6.084    6.58   1
   8   5   5   22.12   6.751   1
  -8   5  -5   5.159   9.859   1
   8  -5   6   5.874   9.942   1
   8  -5   6  -4.457   4.345   1
  -8  -5  -6  -10.94   8.129   1
  -8  -5  -6  -1.051   2.078   1
   8   5   6 -0.9388   8.274   1
   8   5   6  -1.097   6.992   1
  -8   5  -6    1.98   3.568   1
  -8   5  -6 -0.9357   11.19   1
   8  -5   7   5.014   5.817   1
   8  -5   7 -0.1332   11.17   1
  -8  -5  -7   4.091   2.558   1
  -8  -5  -7   7.456   12.80   1
   8   5   7  -3.533   12.06   1
   8   5   7   19.73   9.265   1
  -8   5  -7  -1.301   12.90   1
  -8   5  -7   1.638   4.408   1
   8  -5   8  -10.56   6.807   1
  -8  -5  -8  -2.775   3.565   1
   8   5   8  -9.859   13.32   1
   8   5   8  -14.21   11.26   1
  -8   5  -8   7.799    5.40   1
  -8   5  -8  -1.801   1.581   1
   8  -5   9  -2.416   9.724   1
   8  -5   9   1.806   9.183   1
  -8   5  -9    5.39   2.675   1
  -8  -6  11   36.05   10.80   1
  -8  -6  11   28.40   4.514   1
   8   6 -11   50.87   21.27   1
   8   6 -11   35.09   6.599   1
   8  -6 -10   24.85   11.59   1
   8  -6 -10   53.95   12.98   1
  -8  -6  10   42.92   5.149   1
  -8  -6  10   56.07    9.44   1
   8   6 -10   44.56   6.156   1
   8   6 -10   82.95   17.99   1
  -8   6  10   52.78    5.74   1
  -8   6  10   4.473   15.27   1
   8  -6  -9  154.10   20.92   1
  -8  -6   9  153.90   16.46   1
  -8  -6   9  164.20   15.88   1
   8   6  -9  159.40   15.86   1
   8   6  -9  162.20   22.24   1
  -8   6   9  185.50   26.25   1
   8  -6  -8   1.761   5.098   1
   8  -6  -8  -1.388   9.628   1
  -8  -6   8  0.6586   1.701   1
  -8  -6   8   -2.65   4.781   1
   8   6  -8  0.8604   2.772   1
   8   6  -8   4.538   11.59   1
  -8   6   8  0.6348   1.577   1
  -8   6   8   11.20   13.31   1
   8  -6  -7  262.30   26.04   1
   8  -6  -7  270.30   29.13   1
  -8  -6   7  239.30   22.82   1
  -8  -6   7  220.10   22.01   1
   8   6  -7  214.80   20.86   1
   8   6  -7  236.50   27.39   1
  -8   6   7  214.20   24.75   1
  -8   6   7  229.10   21.88   1
   8  -6  -6 1697.00  159.80   1
   8  -6  -6 2232.00  211.20   1
  -8  -6   6 1541.00  144.60   1
  -8  -6   6 1586.00  149.50   1
   8   6  -6 1841.00  175.10   1
   8   6  -6 1547.00  145.40   1
  -8   6   6 1870.00  177.00   1
  -8   6   6 1917.00  180.00   1
   8  -6  -5  552.50   54.45   1
   8  -6  -5  439.70   42.03   1
  -8  -6   5  420.40   39.72   1
   8   6  -5  450.20   44.73   1
  -8   6   5  467.00   44.28   1
  -8   6   5  523.40   51.40   1
   8  -6  -4  165.90   16.50   1
   8  -6  -4  227.10   24.37   1
  -8  -6   4  161.10   16.38   1
  -8  -6   4  189.40   18.12   1
   8   6  -4  150.80   16.86   1
   8   6  -4  176.80   17.29   1
  -8   6   4  209.60   22.32   1
  -8   6   4  182.30   17.76   1
   8  -6  -3   10.49    7.77   1
   8  -6  -3   13.77   3.744   1
  -8  -6   3   9.783   4.008   1
   8   6  -3   9.698   3.034   1
  -8   6   3   12.90   3.019   1
  -8   6   3   10.37   7.035   1
   8  -6  -2  155.80   15.53   1
   8  -6  -2  228.20   25.02   1
  -8  -6   2  150.50   15.27   1
   8   6  -2  152.00   15.03   1
  -8   6   2  172.00   16.82   1
  -8   6   2  171.20   19.15   1
   8  -6  -1  939.90   90.26   1
  -8  -6   1  695.00   65.85   1
  -8   6   1  863.90   82.66   1
   8  -6   0   11.84   8.768   1
   8  -6   0   4.681   3.321   1
  -8  -6   0   8.506   2.094   1
  -8  -6   0   9.171   4.177   1
   8   6   0   4.015   3.179   1
   8   6   0 -0.9505   5.201   1
  -8   6   0   7.289   3.052   1
  -8   6   0   13.37   7.784   1
   8  -6   1   6.871   3.603   1
   8  -6   1   8.178   7.885   1
  -8  -6  -1   5.116   1.854   1
   8   6   1   2.742   5.083   1
   8   6   1  0.3614    3.79   1
  -8   6  -1   3.796    2.88   1
  -8   6  -1   3.989   8.237   1
   8  -6   2   25.23   4.795   1
   8  -6   2   26.80   9.111   1
  -8  -6  -2   22.49   3.008   1
   8   6   2   20.36   6.256   1
  -8   6  -2   23.05   4.102   1
  -8   6  -2   33.61   10.12   1
   8  -6   3   53.89   10.95   1
   8  -6   3   66.55   8.019   1
  -8  -6  -3   75.49   9.741   1
  -8  -6  -3   64.15   6.626   1
   8   6   3   67.32   8.635   1
   8   6   3   68.50   9.777   1
  -8   6  -3   63.64   7.334   1
  -8   6  -3   48.71   10.95   1
   8  -6   4  551.60   54.37   1
   8  -6   4  602.70   57.43   1
  -8  -6  -4  649.50   62.18   1
  -8  -6  -4  636.70   60.02   1
   8   6   4  653.40   62.92   1
   8   6   4  627.60   59.95   1
   8  -6   5  354.50   34.34   1
   8  -6   5  264.00   27.96   1
  -8  -6  -5  329.20   31.28   1
  -8  -6  -5  345.00   34.05   1
   8   6   5  316.30   31.38   1
   8   6   5  339.80   34.17   1
  -8   6  -5  327.60   31.61   1
   8  -6   6  168.20   20.83   1
   8  -6   6  199.40   20.26   1
  -8  -6  -6  167.40   18.84   1
  -8  -6  -6  172.40   16.75   1
   8   6   6  164.90   18.87   1
   8   6   6  200.10   22.04   1
  -8   6  -6  196.60   23.71   1
  -8   6  -6  191.70   19.32   1
   8  -6   7   22.17   6.669   1
   8  -6   7   20.95   11.76   1
  -8  -6  -7   39.18   12.79   1
  -8  -6  -7   14.93   3.417   1
   8   6   7   34.22   12.10   1
   8   6   7   28.62   10.45   1
  -8   6  -7   8.114   5.272   1
  -8   6  -7   28.12   3.314   1
   8  -6   8   53.41   16.12   1
   8  -6   8   45.99   9.291   1
  -8  -6  -8   43.64   6.267   1
   8   6   8   39.16   14.32   1
   8   6   8   44.55   16.93   1
  -8   6  -8   61.35   6.364   1
  -8   6  -8   42.86   7.592   1
   8  -6   9   72.30   14.49   1
  -8  -7  11   2.168   2.864   1
   8   7 -11   1.732   4.397   1
   8   7 -11  -17.18   19.01   1
   8  -7 -10  -11.17   11.27   1
   8  -7 -10  -6.937   11.55   1
  -8  -7  10   -6.03   6.131   1
   8   7 -10 -0.7065   3.378   1
  -8   7  10   1.524   2.025   1
   8  -7  -9  0.7819   10.20   1
  -8  -7   9  -3.418   1.975   1
  -8  -7   9  -2.492   5.684   1
   8   7  -9   4.057   13.16   1
   8   7  -9   4.595   3.008   1
  -8   7   9   7.775   14.85   1
   8  -7  -8   7.629   9.489   1
   8  -7  -8   2.725   5.195   1
  -8  -7   8  0.8582    1.68   1
  -8  -7   8  -2.004   5.077   1
   8   7  -8  0.9998   2.877   1
   8   7  -8   6.088   11.44   1
  -8   7   8  -1.447   1.635   1
  -8   7   8   14.60   12.43   1
   8  -7  -7   10.82   9.068   1
   8  -7  -7  -1.962   4.215   1
  -8  -7   7  -3.099   4.747   1
  -8  -7   7-0.00794   1.711   1
   8   7  -7  -2.374   2.752   1
   8   7  -7   8.449   11.17   1
  -8   7   7  -1.921   2.017   1
  -8   7   7  -5.223   11.88   1
   8  -7  -6    7.39   4.155   1
   8  -7  -6   19.68   9.193   1
  -8  -7   6   14.48   2.413   1
  -8  -7   6   9.206   4.568   1
   8   7  -6   18.28   10.89   1
   8   7  -6   15.01   3.386   1
  -8   7   6  -10.70   10.37   1
  -8   7   6   15.77   3.273   1
   8  -7  -5   20.76   9.008   1
   8  -7  -5   3.242   3.433   1
  -8  -7   5   3.848    4.20   1
  -8  -7   5   7.151   1.939   1
   8   7  -5  -6.725   9.482   1
  -8   7   5   11.84   2.943   1
  -8   7   5   12.12   9.403   1
   8  -7  -4   7.124   7.931   1
   8  -7  -4   5.013   3.152   1
  -8  -7   4  -6.265   4.208   1
  -8  -7   4    4.50   1.825   1
   8   7  -4   4.075   2.774   1
   8   7  -4 -0.4632   7.089   1
  -8   7   4  -12.00   8.021   1
  -8   7   4   6.085   2.655   1
   8  -7  -3    5.80   7.701   1
   8  -7  -3  -0.483   3.048   1
  -8  -7   3 -0.7922   1.503   1
   8   7  -3   5.162   5.998   1
  -8   7   3  -3.256    7.69   1
  -8   7   3    1.50   2.522   1
   8  -7  -2   10.82   8.587   1
   8  -7  -2   2.185   3.511   1
  -8  -7   2   3.732   1.754   1
   8   7  -2  -2.966   5.564   1
  -8   7   2  -3.356   8.365   1
  -8   7   2   3.218   2.816   1
   8  -7  -1   23.46   8.965   1
   8  -7  -1   17.63    4.20   1
  -8  -7   1   35.40   4.044   1
   8   7  -1   17.25   6.145   1
  -8   7   1   19.96   3.761   1
  -8   7   1   10.45   8.723   1
   8  -7   0   21.03    4.25   1
  -8  -7   0   22.50   3.029   1
   8   7   0   24.00   6.405   1
  -8   7   0   15.04   3.608   1
   8  -7   1   19.35   4.305   1
   8  -7   1   31.11   9.245   1
  -8  -7  -1   30.94   3.697   1
  -8  -7  -1   18.36   4.947   1
   8   7   1   17.28   4.467   1
   8   7   1   21.05   6.275   1
  -8   7  -1   29.27   4.708   1
  -8   7  -1   7.691   8.978   1
   8  -7   2  -1.077   3.686   1
   8  -7   2  -4.345   7.925   1
  -8  -7  -2    2.93   4.528   1
  -8  -7  -2   3.413   1.785   1
   8   7   2   4.799    5.75   1
   8   7   2   1.865   3.763   1
  -8   7  -2   3.181    8.35   1
  -8   7  -2   6.585   3.613   1
   8  -7   3  -10.14   8.079   1
   8  -7   3  -2.101   4.021   1
  -8  -7  -3   5.904   5.578   1
  -8  -7  -3  0.2209   1.686   1
   8   7   3   2.755   4.525   1
   8   7   3   2.611   6.161   1
  -8   7  -3   11.95   9.092   1
  -8   7  -3  -2.702   3.574   1
  -8  -7  -4   1.021   5.838   1
  -8  -7  -4   10.34   2.335   1
   8   7   4   10.78   5.463   1
   8   7   4 -0.1511   6.534   1
  -8   7  -4   10.38   10.39   1
   8  -7   5  -8.293   8.257   1
   8  -7   5   6.633   4.722   1
  -8  -7  -5   4.464   2.076   1
  -8  -7  -5   5.779   6.031   1
   8   7   5   11.98   5.929   1
   8   7   5   1.831   6.761   1
  -8   7  -5   3.096   9.932   1
  -8   7  -5    5.72   3.844   1
   8  -7   6   3.151   4.849   1
   8  -7   6   5.986   9.984   1
  -8  -7  -6   3.304    2.40   1
   8   7   6   -1.53   7.858   1
   8   7   6    4.03    7.28   1
  -8   7  -6   3.525    4.04   1
  -8   7  -6  -5.584   11.06   1
   8  -7   7   7.048   5.726   1
   8  -7   7  -4.912   12.36   1
  -8  -7  -7 -0.2461   11.18   1
   8   7   7  -4.653   10.45   1
  -8   7  -7   7.155    4.63   1
   8  -7   8  -3.322   6.635   1
   8  -7   8  -2.231   13.78   1
  -8  -7  -8  -1.945    3.68   1
   8   7   8   13.37   12.01   1
   8   7   8  -7.352   11.92   1
  -8   7  -8   2.579   1.694   1
  -8   7  -8  -8.575   5.813   1
  -8  -8  11   27.16   10.50   1
  -8  -8  11   16.11   4.022   1
   8   8 -11   19.83   5.323   1
   8   8 -11   52.82   21.40   1
  -8  -8  10   80.78   11.62   1
  -8  -8  10   89.99   9.312   1
   8   8 -10  102.10   10.99   1
   8   8 -10  113.20   23.97   1
   8  -8  -9   84.76   15.03   1
  -8  -8   9   77.01   7.986   1
  -8  -8   9  117.50   13.74   1
   8   8  -9   85.21   17.93   1
  -8   8   9   69.61   7.182   1
   8  -8  -8  -1.342   5.547   1
   8  -8  -8   17.28   10.77   1
  -8  -8   8  0.9107   4.904   1
  -8  -8   8  -3.024   1.829   1
   8   8  -8  -5.739   12.18   1
   8   8  -8  0.2419   2.864   1
  -8   8   8 -0.6679   1.779   1
  -8   8   8  -2.469   14.08   1
   8  -8  -7  142.40   17.97   1
   8  -8  -7  165.60   17.12   1
  -8  -8   7  158.30   15.30   1
  -8  -8   7  155.50   16.41   1
   8   8  -7  124.10   18.92   1
   8   8  -7  153.70   15.23   1
  -8   8   7  159.80   15.57   1
  -8   8   7  163.50   21.40   1
   8  -8  -6  232.90   25.35   1
   8  -8  -6  234.40   23.08   1
  -8  -8   6  243.60   23.21   1
  -8  -8   6  247.60   24.56   1
   8   8  -6  307.90   33.87   1
   8   8  -6  260.90   25.14   1
  -8   8   6  273.80   29.55   1
  -8   8   6  298.00   28.58   1
   8  -8  -5  481.10   45.86   1
   8  -8  -5  504.30   49.96   1
  -8  -8   5  536.40   51.40   1
   8   8  -5  499.70   47.41   1
  -8   8   5  508.30   48.19   1
  -8   8   5  573.60   56.43   1
   8  -8  -4  330.50   31.79   1
   8  -8  -4  324.80   33.65   1
  -8  -8   4  328.60   31.91   1
  -8  -8   4  316.70   30.02   1
   8   8  -4  315.10   33.10   1
   8   8  -4  322.10   30.82   1
  -8   8   4  325.10   33.65   1
  -8   8   4  290.50   27.85   1
   8  -8  -3  112.10   14.88   1
  -8  -8   3   88.52   9.907   1
  -8  -8   3  100.00   9.828   1
   8   8  -3   75.62   11.54   1
   8   8  -3   94.00   9.718   1
  -8   8   3   76.61   8.308   1
  -8   8   3   99.98   13.85   1
  -8  -8   2   5.354   3.969   1
  -8  -8   2   5.932   1.708   1
   8   8  -2   8.718   2.863   1
   8   8  -2   4.917   6.289   1
  -8   8   2 -0.6942   3.167   1
  -8   8   2   6.437   8.767   1
   8  -8  -1   27.50   4.817   1
  -8  -8   1   18.72   2.672   1
  -8  -8   1   16.98   4.329   1
   8   8  -1   14.10   3.239   1
   8   8  -1   9.846   6.364   1
  -8   8   1   19.14   3.919   1
   8  -8   0  387.20   37.15   1
   8  -8   0  356.60   36.40   1
  -8  -8   0  341.00   32.30   1
  -8  -8   0  384.30   36.93   1
   8   8   0  324.40   32.28   1
   8   8   0  322.90   30.91   1
  -8   8   0  328.50   31.56   1
  -8   8   0  402.90   40.49   1
   8  -8   1  312.00   30.19   1
   8  -8   1  306.00   31.79   1
  -8  -8  -1  301.50   29.37   1
  -8  -8  -1  299.30   28.41   1
   8   8   1  284.00   28.59   1
   8   8   1  266.60   25.73   1
  -8   8  -1  264.50   25.66   1
  -8   8  -1  322.80   33.26   1
   8  -8   2   31.92   5.707   1
   8  -8   2   27.58   8.992   1
  -8  -8  -2   30.12   5.732   1
  -8  -8  -2   35.10   4.039   1
   8   8   2   33.96   7.725   1
   8   8   2   31.48   5.129   1
  -8   8  -2   35.46   10.12   1
  -8   8  -2   32.66    5.25   1
   8  -8   3   50.23    7.00   1
   8  -8   3   46.29   10.39   1
  -8  -8  -3   44.99   4.941   1
  -8  -8  -3   42.91   7.406   1
   8   8   3   40.30   8.439   1
   8   8   3   44.55   6.676   1
  -8   8  -3   47.22   6.401   1
  -8   8  -3   21.01   10.34   1
   8  -8   4  303.70   29.70   1
  -8  -8  -4  308.50   29.33   1
  -8  -8  -4  314.70   31.21   1
   8   8   4  290.70   28.68   1
   8   8   4  275.40   28.40   1
  -8   8  -4  279.20   27.21   1
   8  -8   5  744.30   70.87   1
   8  -8   5  593.90   58.98   1
  -8  -8  -5  707.00   66.65   1
  -8  -8  -5  682.20   65.38   1
   8   8   5  642.30   61.70   1
   8   8   5  673.10   65.26   1
  -8   8  -5  624.40   62.33   1
  -8   8  -5  660.60   62.81   1
   8  -8   6  240.60   24.41   1
   8  -8   6  190.90   22.50   1
  -8  -8  -6  222.10   21.42   1
  -8  -8  -6  183.00   19.91   1
   8   8   6  214.30   22.65   1
   8   8   6  215.20   24.15   1
  -8   8  -6  152.50   16.63   1
  -8   8  -6  210.50   20.05   1
   8  -8   7   21.87   6.557   1
   8  -8   7   33.89   13.70   1
  -8  -8  -7   16.49   3.792   1
  -8  -8  -7   17.08   11.28   1
   8   8   7   29.17   11.18   1
  -8   8  -7   32.67   5.949   1
  -8   8  -7   25.67   3.134   1
   8  -8   8   3.419   15.74   1
  -8  -9  11  -11.23   9.847   1
   8   9 -11  -24.62   20.28   1
   8   9 -11  -5.371    4.57   1
  -8  -9  10  -6.471   7.105   1
  -8  -9  10  -3.114   2.298   1
   8   9 -10   14.45   16.43   1
   8   9 -10   4.049   3.559   1
   8  -9  -9  -29.34   12.83   1
  -8  -9   9  0.9179    6.32   1
  -8  -9   9 0.04061   2.043   1
   8   9  -9  -20.95   13.97   1
   8   9  -9 -0.6955   3.268   1
  -8   9   9   1.246   2.157   1
  -8   9   9  0.1665    2.08   1
   8  -9  -8  0.1907   5.322   1
   8  -9  -8   7.839   10.80   1
  -8  -9   8  -0.143   1.792   1
   8   9  -8  -3.752   11.87   1
  -8   9   8  -2.886   13.53   1
  -8   9   8    2.59    2.07   1
   8  -9  -7   1.694   4.277   1
   8  -9  -7  0.8184   9.486   1
  -8  -9   7   1.087   1.734   1
  -8  -9   7  -1.345    4.85   1
   8   9  -7   3.221   12.60   1
   8   9  -7  0.4008   2.707   1
  -8   9   7  0.8737   2.568   1
  -8   9   7   -1.80   12.40   1
   8  -9  -6  -3.778   3.511   1
   8  -9  -6  -5.126   8.247   1
  -8  -9   6  -4.825   5.006   1
  -8  -9   6   1.472   1.649   1
   8   9  -6  -19.99   11.23   1
   8   9  -6  -2.369   2.632   1
  -8   9   6  0.9429   11.05   1
  -8   9   6    1.45   2.807   1
   8  -9  -5  -2.649    7.91   1
   8  -9  -5   1.798   3.517   1
  -8  -9   5  -1.929   1.797   1
   8   9  -5   -1.31   2.722   1
   8   9  -5  -7.611   11.75   1
  -8   9   5   2.748   9.198   1
  -8   9   5  -1.333   2.677   1
   8  -9  -4 -0.2445   7.839   1
  -8  -9   4  0.6441   1.641   1
  -8  -9   4  0.2663   4.255   1
   8   9  -4  -8.434   10.11   1
   8   9  -4    1.90   2.693   1
  -8   9   4   -2.78   9.136   1
   8  -9  -3  -3.127   8.133   1
   8  -9  -3  -4.874   3.329   1
  -8  -9   3   2.412   4.052   1
  -8  -9   3  0.7447   1.608   1
   8   9  -3   5.938   8.474   1
   8   9  -3   -1.36   2.641   1
  -8   9   3 -0.4195   2.765   1
  -8   9   3  -8.316   8.411   1
   8  -9  -2   1.318   3.396   1
  -8  -9   2  0.6422   4.088   1
  -8  -9   2 -0.6723   1.645   1
   8   9  -2  0.8826   2.702   1
   8   9  -2   12.82   8.161   1
  -8   9   2  -1.499   3.006   1
   8  -9  -1   19.69   9.021   1
   8  -9  -1   6.126   3.945   1
  -8  -9   1   15.97   2.496   1
  -8  -9   1   3.306   4.106   1
   8   9  -1   15.22   7.438   1
   8   9  -1   10.69    3.10   1
  -8   9   1   17.52   9.302   1
  -8   9   1   8.932   3.602   1
   8  -9   0   1.252   4.083   1
   8  -9   0   7.485   8.775   1
  -8  -9   0  -2.084    4.03   1
  -8  -9   0  -1.123   1.636   1
   8   9   0 -0.2945   2.793   1
   8   9   0  -1.351   6.839   1
  -8   9   0  -6.416   9.283   1
  -8   9   0  -1.255   3.585   1
   8  -9   1   3.069   8.321   1
   8  -9   1   1.785   4.118   1
  -8  -9  -1   3.216   4.056   1
  -8  -9  -1   1.641    1.73   1
  -8   9  -1   5.578   3.943   1
  -8   9  -1  -4.087   9.211   1
   8  -9   2  -10.09    7.85   1
   8  -9   2 -0.9416   4.194   1
  -8  -9  -2   2.577   1.827   1
  -8  -9  -2   2.865   4.606   1
   8   9   2    3.32   3.159   1
   8   9   2  -1.371   6.801   1
  -8   9  -2   7.603   4.193   1
  -8   9  -2    1.01   9.357   1
   8  -9   3   2.253   8.661   1
   8  -9   3  -3.557   4.639   1
  -8  -9  -3   2.614   1.871   1
  -8  -9  -3   3.049   5.202   1
   8   9   3   2.844   4.009   1
   8   9   3   6.183   7.131   1
  -8   9  -3  -14.52   10.72   1
  -8   9  -3   5.885   4.257   1
   8  -9   4 0.02442    8.39   1
   8  -9   4  -1.943   4.844   1
  -8  -9  -4  0.1964   1.835   1
  -8  -9  -4  0.1339   6.186   1
   8   9   4   1.365    7.39   1
   8   9   4   1.715   5.097   1
  -8   9  -4  -11.39   10.59   1
  -8   9  -4 -0.9557    4.26   1
   8  -9   5  -2.163   5.169   1
   8  -9   5   5.154   9.666   1
  -8  -9  -5   1.897   6.719   1
  -8  -9  -5   1.841   2.092   1
   8   9   5   4.823    6.23   1
   8   9   5  -6.234   8.199   1
  -8   9  -5   6.332   4.495   1
  -8   9  -5   7.004   1.652   1
   8  -9   6   1.415   5.282   1
  -8  -9  -6   2.579   7.171   1
   8   9   6   3.523   7.146   1
  -8   9  -6   7.217   4.795   1
   8  -9   7  -13.62   13.88   1
   8  -9   7   1.182   6.505   1
  -8  -9  -7  -1.004   3.154   1
   8   9   7   13.02   14.54   1
   8   9   7  -14.61   9.522   1
  -8   9  -7 -0.9796   1.506   1
  -8   9  -7  -3.982   5.084   1
  -8 -10  11   62.84   9.475   1
  -8 -10  11   35.46   9.222   1
   8  10 -11   12.78   12.35   1
   8  10 -11   51.08   7.391   1
  -8 -10  10   51.30   10.77   1
   8  10 -10   37.57   19.48   1
   8  10 -10   45.76   6.759   1
   8 -10  -9  121.80   21.06   1
  -8 -10   9  107.10   10.80   1
  -8 -10   9  127.90   15.07   1
   8  10  -9  119.50   12.37   1
   8  10  -9   99.18   20.69   1
  -8  10   9  138.50   13.68   1
   8 -10  -8   21.48   11.84   1
   8 -10  -8   22.83   6.348   1
  -8 -10   8   17.71   6.022   1
  -8 -10   8   13.28   2.639   1
   8  10  -8   19.15   14.91   1
   8  10  -8   26.54   4.163   1
  -8  10   8   20.62   3.375   1
  -8  10   8   12.50   2.255   1
   8 -10  -7   7.451   9.889   1
   8 -10  -7  0.4095   4.116   1
  -8 -10   7  0.6789   1.749   1
   8  10  -7  -8.698   12.74   1
  -8  10   7    2.39   3.004   1
  -8  10   7  -2.699   11.98   1
   8 -10  -6  283.80   27.62   1
   8 -10  -6  242.80   26.14   1
  -8 -10   6  312.80   30.81   1
   8  10  -6  313.20   29.99   1
  -8  10   6  219.60   25.65   1
  -8  10   6  305.60   29.34   1
   8 -10  -5  230.80   25.04   1
  -8 -10   5  258.60   24.62   1
  -8 -10   5  268.90   26.62   1
   8  10  -5  274.90   26.42   1
   8  10  -5  296.70   33.79   1
  -8  10   5  246.20   27.71   1
   8 -10  -4  360.40   34.66   1
  -8 -10   4  359.30   34.02   1
  -8 -10   4  355.50   34.53   1
   8  10  -4  367.00   39.26   1
   8  10  -4  378.40   36.07   1
  -8  10   4  338.60   35.43   1
  -8  10   4  310.10   29.74   1
   8 -10  -3  275.80   26.78   1
   8 -10  -3  238.00   25.88   1
  -8 -10   3  268.70   26.43   1
  -8 -10   3  277.60   26.39   1
   8  10  -3  275.20   26.44   1
   8  10  -3  297.90   32.37   1
  -8  10   3  229.40   22.28   1
   8 -10  -2   -4.92   8.476   1
   8 -10  -2   1.563   3.561   1
  -8 -10   2 0.08831   1.662   1
  -8 -10   2  0.6103   4.147   1
   8  10  -2   5.285   2.755   1
   8  10  -2  -4.628   9.056   1
  -8  10   2   2.611   3.412   1
  -8  10   2   3.433   9.388   1
   8 -10  -1  886.80   85.48   1
   8 -10  -1 1141.00  107.70   1
  -8 -10   1 1048.00   99.03   1
  -8 -10   1 1118.00  105.10   1
   8  10  -1 1044.00  100.40   1
   8  10  -1 1020.00   96.14   1
  -8  10   1 1042.00   98.36   1
  -8  10   1 1019.00   97.79   1
   8 -10   0  486.10   46.55   1
   8 -10   0  410.40   41.43   1
  -8 -10   0  419.00   40.26   1
  -8 -10   0  445.40   42.08   1
   8  10   0  419.40   39.94   1
   8  10   0  466.40   46.53   1
  -8  10   0  474.70   47.46   1
  -8  10   0  454.20   43.48   1
   8 -10   1  287.20   28.10   1
   8 -10   1  279.50   29.52   1
  -8 -10  -1  257.10   24.49   1
  -8 -10  -1  268.80   26.35   1
   8  10   1  238.80   25.88   1
   8  10   1  254.60   24.61   1
  -8  10  -1  260.60   25.56   1
  -8  10  -1  293.00   30.88   1
   8 -10   2   28.11   9.501   1
   8 -10   2   34.00    6.52   1
  -8 -10  -2   51.83   7.434   1
  -8 -10  -2   46.12    5.08   1
   8  10   2   29.21   9.413   1
   8  10   2   44.76   5.801   1
  -8  10  -2   38.14   11.61   1
  -8  10  -2   34.94   6.119   1
   8 -10   3   29.78   6.161   1
   8 -10   3   22.23   8.977   1
  -8 -10  -3   23.27   6.098   1
  -8 -10  -3   15.93   2.671   1
   8  10   3   18.04    9.41   1
   8  10   3   12.80   4.352   1
  -8  10  -3   24.30   5.254   1
  -8  10  -3   33.74   11.13   1
   8 -10   4  655.80   62.59   1
   8 -10   4  556.20   55.67   1
  -8 -10  -4  649.70   62.35   1
  -8 -10  -4  627.40   59.19   1
   8  10   4  670.40   63.95   1
   8  10   4  572.70   56.80   1
  -8  10  -4  661.30   62.97   1
  -8  10  -4  610.50   60.90   1
   8 -10   5  234.20   26.62   1
  -8 -10  -5  275.70   28.24   1
   8  10   5  245.30   24.87   1
  -8  10  -5  260.50   24.73   1
   8 -10   6   89.47   16.19   1
   8 -10   6  100.80   12.15   1
  -8 -10  -6   77.65   8.274   1
   8  10   6   63.27   10.28   1
   8  10   6  105.10   18.90   1
  -8  10  -6   63.73   8.546   1
  -8  10  -6   80.22   7.951   1
   8 -10   7   4.417   14.39   1
  -8 -10  -7   7.108   10.13   1
  -8 -10  -7   19.72   4.313   1
   8  10   7   27.75   18.12   1
   8  10   7   12.47   10.70   1
  -8 -11  11  -2.922   6.885   1
  -8 -11  10-0.03985   8.435   1
  -8 -11  10   2.635   2.835   1
   8  11 -10   1.337   4.225   1
   8  11 -10  -13.48   17.67   1
   8 -11  -9   7.727   15.65   1
  -8 -11   9  -1.346   6.688   1
  -8 -11   9  0.1465   2.375   1
   8  11  -9   2.542    3.50   1
   8  11  -9  -26.91   17.13   1
  -8  11   9  -0.677   2.482   1
   8 -11  -8   6.632   5.888   1
   8 -11  -8   13.84   13.03   1
  -8 -11   8  0.4995   2.005   1
  -8 -11   8   6.328   5.999   1
   8  11  -8   1.284   2.702   1
   8  11  -8 -0.4507   15.02   1
  -8  11   8   1.802    2.80   1
  -8  11   8   1.588   1.724   1
   8 -11  -7   4.584   4.329   1
   8 -11  -7  -12.04   10.96   1
  -8 -11   7   1.914   1.908   1
  -8 -11   7    3.40   5.216   1
   8  11  -7  -1.162   2.528   1
   8  11  -7   20.71   14.89   1
  -8  11   7 -0.3681    3.12   1
  -8  11   7  -1.554   1.505   1
   8 -11  -6   -4.52   9.069   1
  -8 -11   6   2.948   5.072   1
  -8 -11   6   1.176   1.694   1
   8  11  -6  -2.552   13.29   1
   8  11  -6 -0.1033   2.619   1
  -8  11   6 -0.9991   1.311   1
   8 -11  -5   -5.46   3.837   1
  -8 -11   5   -2.95   1.714   1
  -8 -11   5   -3.09   4.902   1
   8  11  -5  -13.56   13.29   1
   8  11  -5    4.71   2.893   1
  -8  11   5   -3.38   2.629   1
   8 -11  -4   3.981   3.871   1
   8 -11  -4    8.91   8.423   1
  -8 -11   4   5.278   4.497   1
   8  11  -4 -0.1575   2.479   1
  -8  11   4  -3.748   10.29   1
  -8  11   4   1.205   2.853   1
   8 -11  -3   4.888   4.022   1
   8 -11  -3   6.863    8.98   1
  -8 -11   3  0.6991    1.71   1
  -8 -11   3   2.838   3.944   1
   8  11  -3   3.775   2.534   1
   8  11  -3  -3.996   11.81   1
  -8  11   3  -2.668   9.936   1
  -8  11   3   2.849   3.312   1
   8 -11  -2    2.74   4.308   1
   8 -11  -2   4.152   9.047   1
  -8 -11   2   1.378   4.239   1
  -8 -11   2   5.714    1.96   1
   8  11  -2   8.463   3.003   1
   8  11  -2  -9.977   10.98   1
  -8  11   2   8.984   9.927   1
  -8  11   2   2.209   3.779   1
   8 -11  -1   5.179   4.624   1
   8 -11  -1   9.595   9.314   1
  -8 -11   1   1.289   4.274   1
  -8 -11   1   1.883    1.66   1
   8  11  -1  -12.20   10.07   1
   8  11  -1 0.09378   2.797   1
   8 -11   0   -5.68   8.416   1
   8 -11   0   2.436   4.388   1
  -8 -11   0   3.888   1.736   1
  -8 -11   0   7.287   4.423   1
   8  11   0 -0.7329   9.959   1
   8  11   0   6.397   3.012   1
  -8  11   0   5.553   4.219   1
  -8  11   0   5.451    9.68   1
   8 -11   1   12.81   8.897   1
  -8 -11  -1  0.3702    1.72   1
  -8 -11  -1  -2.321   4.482   1
   8  11   1  0.4616   9.169   1
   8  11   1   1.237    3.10   1
  -8  11  -1   4.814   10.38   1
   8 -11   2   7.989   8.865   1
   8 -11   2  0.9414   4.827   1
  -8 -11  -2    1.47   1.773   1
  -8 -11  -2  -1.461   4.116   1
   8  11   2   0.312   3.003   1
   8  11   2  -7.355   9.476   1
  -8  11  -2  -10.94   10.16   1
  -8  11  -2 -0.5653   4.293   1
   8 -11   3   4.968    8.68   1
   8 -11   3   11.51   5.221   1
  -8 -11  -3   4.442   2.113   1
  -8 -11  -3   10.19   4.911   1
   8  11   3   6.925   3.809   1
   8  11   3   24.23   11.36   1
  -8  11  -3   7.734   4.624   1
  -8  11  -3   14.66   2.107   1
   8 -11   4  -1.236   4.971   1
   8 -11   4   3.833   9.261   1
  -8 -11  -4   5.629   5.936   1
  -8 -11  -4   3.321   2.413   1
   8  11   4   6.243   5.137   1
  -8  11  -4   2.173   4.922   1
  -8  11  -4   3.325   1.431   1
   8 -11   5    2.31   5.706   1
   8 -11   5  -6.041   10.61   1
  -8 -11  -5   1.437   2.148   1
   8  11   5  0.8294   13.18   1
  -8  11  -5   3.532   1.487   1
  -8  11  -5   4.435   4.854   1
   8 -11   6  -1.354   6.402   1
   8 -11   6 -0.9316   12.15   1
  -8 -11  -6    1.59   2.807   1
  -8 -11  -6  -7.422   7.895   1
   8  11   6  -7.414   7.076   1
   8  11   6   6.937   19.06   1
  -8  11  -6  0.8515   1.355   1
  -8  11  -6  -1.457   5.446   1
  -8 -11  -7   -1.46    8.91   1
  -8 -11  -7   2.996    3.11   1
   8  11   7   7.548    9.34   1
   8  11   7  -12.49   17.46   1
  -8 -12  10   46.14   10.08   1
   8  12 -10   65.25   8.382   1
   8  12  -9  122.80   12.78   1
   8 -12  -8   71.68   10.75   1
   8 -12  -8   67.10   18.28   1
  -8 -12   8   61.60   6.595   1
  -8 -12   8   65.47   9.991   1
   8  12  -8   43.33   17.50   1
  -8  12   8   65.69   6.979   1
  -8  12   8   81.64   8.969   1
   8 -12  -7   1.505   12.42   1
  -8 -12   7    0.64   1.889   1
  -8 -12   7   10.86   6.092   1
   8  12  -7   4.818   15.11   1
   8  12  -7 -0.7138   2.625   1
  -8  12   7   1.974   1.642   1
  -8  12   7  -2.451   3.352   1
   8 -12  -6   70.99    8.63   1
  -8 -12   6   83.19   8.399   1
  -8 -12   6   66.67   9.184   1
   8  12  -6   80.42   8.517   1
   8  12  -6   54.24   15.88   1
  -8  12   6   73.54   8.045   1
  -8  12   6   67.52   6.873   1
   8 -12  -5   74.81   12.86   1
   8 -12  -5  103.20   11.26   1
  -8 -12   5   95.77   11.38   1
  -8 -12   5   97.02   9.598   1
   8  12  -5  110.60   11.25   1
   8  12  -5  103.60   18.97   1
  -8  12   5   78.61   7.832   1
  -8  12   5   85.35    9.06   1
   8 -12  -4  147.80   15.24   1
   8 -12  -4  119.90   16.22   1
  -8 -12   4  128.40   12.52   1
  -8 -12   4  104.00   12.07   1
   8  12  -4  136.20   13.62   1
   8  12  -4  131.00   20.84   1
  -8  12   4  120.30   12.32   1
  -8  12   4   93.59   14.98   1
   8 -12  -3   62.09   11.39   1
   8 -12  -3   75.71   9.181   1
  -8 -12   3   65.94   6.782   1
   8  12  -3   72.52   15.84   1
  -8  12   3   50.32   12.25   1
  -8  12   3   67.47   7.976   1
   8 -12  -2  125.30   16.19   1
   8 -12  -2  137.00   14.55   1
  -8 -12   2  118.40   13.14   1
  -8 -12   2  145.20   14.14   1
   8  12  -2  151.30   14.96   1
   8  12  -2  114.60   20.36   1
  -8  12   2  134.10   13.98   1
  -8  12   2  111.10   16.39   1
   8 -12  -1  195.50   22.68   1
   8 -12  -1  226.80   22.67   1
  -8 -12   1  246.00   24.49   1
   8  12  -1  245.60   23.75   1
  -8  12   1  242.60   23.91   1
  -8  12   1  220.90   25.63   1
   8 -12   0  578.10   57.21   1
   8 -12   0  644.50   61.49   1
  -8 -12   0  661.20   63.04   1
   8  12   0  630.20   59.66   1
  -8  12   0  600.00   57.32   1
  -8  12   0  637.60   63.10   1
   8 -12   1  223.70   25.09   1
   8 -12   1  274.40   27.02   1
  -8 -12  -1  264.90   26.15   1
   8  12   1  244.40   23.67   1
  -8  12  -1  245.90   27.42   1
  -8  12  -1  263.10   25.93   1
   8 -12   2   64.50   8.627   1
   8 -12   2   44.60   10.42   1
  -8 -12  -2   54.50   7.353   1
  -8 -12  -2   53.30   5.765   1
   8  12   2   45.40   5.866   1
   8  12   2   33.12   13.83   1
  -8  12  -2   55.50   7.668   1
  -8  12  -2   55.40   5.668   1
   8 -12   3   40.58   11.46   1
   8 -12   3   43.34   7.214   1
  -8 -12  -3   49.05   5.417   1
   8  12   3   42.45   13.84   1
   8  12   3   30.58   5.541   1
  -8  12  -3   57.64   5.876   1
  -8  12  -3   46.96    7.35   1
   8 -12   4   98.48   11.76   1
  -8 -12  -4   70.46   7.407   1
  -8 -12  -4   75.78   10.64   1
   8  12   4  109.40   19.68   1
  -8  12  -4   74.24   9.157   1
   8 -12   5  213.80   26.00   1
   8 -12   5  238.60   24.37   1
  -8 -12  -5  204.40   19.79   1
  -8 -12  -5  231.20   24.41   1
   8  12   5  221.50   22.94   1
   8  12   5  211.40   29.10   1
  -8  12  -5  208.70   21.18   1
  -8  12  -5  208.10   19.87   1
  -8 -12  -6   18.80   9.239   1
  -8 -12  -6   24.59   4.169   1
   8  12   6   32.85   19.52   1
   8  12   6   34.59   8.672   1
  -8 -13   9  0.8917   8.422   1
   8 -13  -8  -8.519   17.72   1
   8 -13  -8   3.971   7.354   1
  -8 -13   8  0.7341   2.079   1
  -8 -13   8   -6.01   6.483   1
   8  13  -8   1.951   2.891   1
   8  13  -8  0.1058   17.13   1
  -8  13   8  0.3983    2.29   1
  -8  13   8   3.085   4.083   1
   8 -13  -7  -1.491   5.203   1
  -8 -13   7   2.025   2.018   1
   8  13  -7   17.53   15.54   1
  -8  13   7   1.993   1.783   1
  -8  13   7   1.286   3.836   1
   8 -13  -6   3.678   4.361   1
   8 -13  -6  0.9698   10.44   1
  -8 -13   6   2.851    1.96   1
  -8 -13   6  -1.361   5.458   1
   8  13  -6   3.686   13.43   1
   8  13  -6   3.057   2.548   1
  -8  13   6 -0.5274    3.15   1
  -8  13   6   1.261   1.596   1
   8 -13  -5   5.812   4.292   1
   8 -13  -5   7.143   10.05   1
  -8 -13   5 -0.5314   1.754   1
  -8 -13   5   2.729   5.348   1
   8  13  -5  -9.251   12.84   1
   8  13  -5 -0.6595    2.56   1
  -8  13   5   1.497   1.543   1
  -8  13   5  -2.487   2.958   1
   8 -13  -4  0.7581   4.559   1
   8 -13  -4   3.847    8.93   1
  -8 -13   4   -2.15   4.672   1
  -8 -13   4  -2.241   1.632   1
   8  13  -4   1.559   13.15   1
   8  13  -4  0.9447   2.664   1
  -8  13   4   1.948   3.455   1
  -8  13   4  -1.433   1.444   1
   8 -13  -3   6.074   8.598   1
   8 -13  -3  0.6981   4.789   1
  -8 -13   3   3.457   1.782   1
  -8 -13   3  -4.065   4.639   1
   8  13  -3    2.00   2.698   1
   8  13  -3  -5.276   12.75   1
  -8  13   3 -0.5573   4.077   1
  -8  13   3  0.6693   1.399   1
   8 -13  -2   4.064   8.859   1
   8 -13  -2  -1.729   5.164   1
  -8 -13   2   4.139    4.63   1
  -8 -13   2   6.498   1.989   1
   8  13  -2   14.83   3.304   1
   8  13  -2   16.23   13.42   1
  -8  13   2   12.32   4.801   1
  -8  13   2   12.72   2.028   1
   8 -13  -1 -0.5662   8.559   1
   8 -13  -1  -0.855   4.443   1
  -8 -13   1  0.8165   4.686   1
  -8 -13   1   3.455   1.816   1
   8  13  -1   1.948   2.897   1
   8  13  -1   13.25   13.86   1
  -8  13   1  -3.963   4.487   1
  -8  13   1  0.5856   1.373   1
   8 -13   0  -1.647   4.818   1
   8 -13   0   -2.37   8.595   1
   8  13   0 -0.8973   3.104   1
   8  13   0  -2.127   14.51   1
  -8  13   0   1.243   1.347   1
  -8  13   0  -0.478   4.577   1
   8 -13   1   -1.12    4.66   1
   8 -13   1   -0.76   9.022   1
  -8 -13  -1 -0.5113   4.586   1
  -8 -13  -1 0.03864   1.827   1
   8  13   1  0.3009   3.138   1
   8  13   1   19.54   13.55   1
  -8  13  -1  -0.397   4.806   1
  -8  13  -1   0.195   1.358   1
   8 -13   2   2.048   5.272   1
   8 -13   2   6.243   9.844   1
  -8 -13  -2   4.993   4.318   1
  -8 -13  -2   7.252   2.161   1
   8  13   2   2.617    3.38   1
   8  13   2   21.12   13.97   1
  -8  13  -2   5.805   4.944   1
  -8  13  -2   2.339   1.409   1
   8 -13   3   4.213   11.57   1
   8 -13   3  0.7449   5.331   1
  -8 -13  -3   10.42   2.525   1
  -8 -13  -3   4.955   5.041   1
   8  13   3   1.777   3.579   1
   8  13   3   21.78   14.76   1
  -8  13  -3   4.143   5.048   1
   8 -13   4   -5.63   10.95   1
   8 -13   4   2.509   5.614   1
  -8 -13  -4    5.18   6.499   1
  -8 -13  -4   1.744   2.362   1
   8  13   4  -3.066   4.764   1
   8  13   4  -5.366   15.68   1
  -8  13  -4  0.9409   1.447   1
  -8  13  -4  -2.299   5.198   1
   8 -13   5   6.102   12.51   1
  -8 -13  -5   8.618   2.815   1
  -8 -13  -5   13.40    8.57   1
   8  13   5   11.56    6.58   1
   8  13   5  -6.513   19.73   1
  -8  13  -5   7.308   1.747   1
  -8 -13  -6  0.8011   2.855   1
  -8 -13  -6  -1.882   8.172   1
   8  13   6   2.067   8.261   1
   8  13   6   10.71   18.92   1
  -8 -14   8   25.23   8.418   1
   8  14  -8   27.14   4.675   1
   8 -14  -7  -2.192   14.80   1
   8 -14  -7   2.466   5.559   1
  -8 -14   7   2.133   6.334   1
  -8 -14   7   1.261   2.002   1
   8  14  -7  -19.50   16.14   1
   8  14  -7 -0.9877   2.707   1
  -8  14   7   3.162   4.364   1
  -8  14   7  0.4366    1.93   1
   8 -14  -6   53.14   7.715   1
   8 -14  -6   49.09   14.26   1
  -8 -14   6   57.13   6.089   1
  -8 -14   6   50.48   8.754   1
   8  14  -6   67.18   7.431   1
   8  14  -6   51.29   16.27   1
  -8  14   6   56.83   6.957   1
  -8  14   6   72.20   7.357   1
   8 -14  -5  151.30   20.57   1
  -8 -14   5  158.20   16.99   1
   8  14  -5  175.90   17.26   1
   8  14  -5  119.80   22.49   1
  -8  14   5  173.30   16.79   1
   8 -14  -4  161.40   20.66   1
   8 -14  -4  170.00   17.70   1
  -8 -14   4  154.10   16.53   1
  -8 -14   4  153.80   14.90   1
   8  14  -4  174.30   17.09   1
   8  14  -4  161.80   23.06   1
  -8  14   4  141.20   14.55   1
  -8  14   4  177.30   17.02   1
   8 -14  -3   1.055   9.473   1
  -8 -14   3   6.983   4.761   1
  -8 -14   3    1.74   1.808   1
   8  14  -3   8.006   2.845   1
   8  14  -3  0.5289   13.75   1
  -8  14   3   3.394   1.539   1
   8 -14  -2  102.20   11.80   1
  -8 -14   2  102.30   10.13   1
  -8 -14   2   89.79   10.59   1
   8  14  -2  103.60   10.69   1
   8  14  -2   78.56   17.23   1
  -8  14   2  106.20   11.89   1
   8 -14  -1  677.40   66.79   1
   8 -14  -1  789.00   75.05   1
  -8 -14   1  805.90   76.75   1
  -8 -14   1  752.70   70.89   1
   8  14  -1  857.10   80.91   1
   8  14  -1  782.50   78.39   1
  -8  14   1  844.00   79.38   1
  -8  14   1  809.70   76.89   1
   8 -14   0  415.10   42.93   1
   8 -14   0  473.40   45.65   1
  -8 -14   0  468.10   45.10   1
  -8 -14   0  452.90   42.84   1
   8  14   0  509.20   53.67   1
   8  14   0  467.80   44.54   1
  -8  14   0  469.50   45.39   1
   8 -14   1  301.00   29.63   1
   8 -14   1  267.00   29.75   1
  -8 -14  -1  273.10   27.06   1
  -8 -14  -1  254.80   24.34   1
   8  14   1  252.60   24.49   1
   8  14   1  290.80   34.54   1
  -8  14  -1  275.50   27.21   1
  -8  14  -1  274.40   26.05   1
   8 -14   2   27.16   6.467   1
   8 -14   2   29.88   13.55   1
  -8 -14  -2   22.22   3.346   1
  -8 -14  -2   18.66   5.314   1
   8  14   2   21.98   4.258   1
   8  14   2    5.96   16.18   1
  -8  14  -2   19.17   5.358   1
  -8  14  -2   23.13   2.965   1
   8 -14   3   4.165   10.78   1
   8 -14   3   15.82   5.982   1
  -8 -14  -3   12.19   2.731   1
  -8 -14  -3   13.15   5.524   1
   8  14   3   10.52   4.011   1
   8  14   3   16.99   16.58   1
  -8  14  -3   11.83   1.903   1
  -8  14  -3   19.59   5.776   1
   8 -14   4  288.80   32.62   1
  -8 -14  -4  321.10   32.20   1
  -8 -14  -4  335.00   32.00   1
   8  14   4  320.40   31.37   1
   8  14   4  308.40   38.78   1
  -8  14  -4  369.10   34.94   1
  -8 -14  -5   43.02   9.597   1
   8  14   5   63.35   9.896   1
   8  14   5   44.54   19.37   1
  -8 -14  -6   56.02   7.134   1
   8  14   6   33.43   8.491   1
   8  14   6   48.39   16.65   1
   8 -15  -7   3.381   17.74   1
   8 -15  -7   2.041   6.684   1
  -8 -15   7   5.804   6.891   1
   8  15  -7   3.444    3.04   1
  -8  15   7   5.184   2.337   1
  -8  15   7   11.58   5.007   1
   8 -15  -6   3.127   13.02   1
   8 -15  -6   7.899   6.002   1
  -8 -15   6   1.096   1.981   1
  -8 -15   6  -4.042   5.931   1
   8  15  -6   1.456   2.512   1
   8  15  -6  -11.18   15.46   1
  -8  15   6 -0.8301   1.822   1
  -8  15   6   2.257   4.042   1
   8 -15  -5  -6.548   11.36   1
  -8 -15   5   2.352    1.88   1
  -8 -15   5   6.549   5.902   1
   8  15  -5  0.9667   2.643   1
   8  15  -5   5.054   14.07   1
  -8  15   5 -0.7686   1.512   1
   8 -15  -4  -7.498   5.615   1
  -8 -15   4   1.636   1.887   1
   8  15  -4   13.66   14.19   1
  -8  15   4   6.983   4.145   1
  -8  15   4   1.278   1.543   1
   8 -15  -3   3.691   5.722   1
   8 -15  -3   -4.75   9.653   1
  -8 -15   3  -2.218   1.877   1
  -8 -15   3 -0.1611   5.259   1
   8  15  -3   2.586   2.753   1
   8  15  -3  -4.639   13.64   1
  -8  15   3 -0.9953   1.455   1
  -8  15   3   8.083   4.821   1
   8 -15  -2   8.363    5.99   1
   8 -15  -2  -6.259   9.672   1
  -8 -15   2   7.935    5.13   1
   8  15  -2   5.229   2.778   1
  -8  15   2   6.026   1.678   1
  -8  15   2   4.864   5.052   1
   8 -15  -1   13.98   10.33   1
   8 -15  -1  0.8843    5.19   1
  -8 -15   1   1.424   4.733   1
  -8 -15   1   1.582   1.957   1
   8  15  -1   5.997   13.82   1
   8  15  -1   8.965   3.235   1
  -8  15   1   4.815   1.634   1
  -8  15   1    4.25   5.249   1
   8 -15   0   1.016   5.737   1
   8 -15   0   0.568   10.66   1
  -8 -15   0  0.4985   1.932   1
  -8 -15   0   2.616   5.322   1
   8  15   0  -27.75   14.45   1
   8  15   0  0.6427   3.039   1
  -8  15   0  0.2651   1.443   1
  -8  15   0 -0.4847   4.842   1
   8 -15   1   1.898   5.281   1
  -8 -15  -1   6.932   5.227   1
  -8 -15  -1   1.197   2.093   1
   8  15   1  0.5062   15.51   1
   8  15   1  -2.605    3.25   1
  -8  15  -1   1.694   4.531   1
   8 -15   2   10.55   10.79   1
   8 -15   2   -1.59   5.344   1
  -8 -15  -2  -3.334   4.941   1
  -8 -15  -2   1.031   2.244   1
   8  15   2   5.043   15.70   1
   8  15   2   1.678   3.292   1
  -8  15  -2   1.199   1.423   1
  -8  15  -2   2.636   5.099   1
   8 -15   3  -13.80   10.67   1
  -8 -15  -3  -5.383   5.321   1
   8  15   3   4.922   3.988   1
  -8  15  -3   6.704   1.593   1
  -8 -15  -4   12.43   3.123   1
   8  15   4  -12.47   16.25   1
   8  15   4   5.707   5.302   1
  -8 -15  -5   16.18   8.374   1
  -8 -15  -5   1.403   2.644   1
   8  15   5  -13.54   18.45   1
   8 -16  -7   16.59   16.22   1
  -8  16   7   11.74   2.911   1
   8 -16  -6  114.60   14.27   1
  -8  16   6  100.30   11.43   1
  -8  16   6  121.00   11.97   1
   8 -16  -5   45.55   15.51   1
   8 -16  -5   72.21   10.08   1
  -8 -16   5   42.37   5.024   1
  -8 -16   5   71.38   10.09   1
   8  16  -5   59.33   6.808   1
   8  16  -5   61.67   19.89   1
  -8  16   5   52.52   7.269   1
  -8  16   5   59.11   6.214   1
   8 -16  -4   37.10   13.22   1
   8 -16  -4   21.09   7.176   1
  -8 -16   4   23.84   3.286   1
  -8 -16   4   35.26   7.016   1
   8  16  -4   28.34   4.144   1
   8  16  -4   50.45   16.34   1
  -8  16   4   25.22   6.023   1
  -8  16   4   28.07   3.459   1
   8 -16  -3   11.55    6.94   1
   8 -16  -3   5.715   10.93   1
  -8 -16   3   12.25    5.66   1
  -8 -16   3   14.11   2.591   1
   8  16  -3   11.32   14.39   1
   8  16  -3   17.05   3.488   1
  -8  16   3   18.51   5.721   1
  -8  16   3   15.00   2.264   1
   8 -16  -2  138.00   15.79   1
   8 -16  -2  121.90   17.71   1
  -8 -16   2  106.90   12.52   1
  -8 -16   2  115.00   11.36   1
   8  16  -2   87.93   18.33   1
   8  16  -2  129.10   13.02   1
  -8  16   2  140.10   13.53   1
  -8  16   2  121.00   13.40   1
   8 -16  -1  236.90   24.35   1
   8 -16  -1  283.20   31.64   1
  -8 -16   1  173.90   18.75   1
   8  16  -1  236.10   23.14   1
   8  16  -1  268.20   34.19   1
  -8  16   1  249.70   23.77   1
  -8  16   1  215.20   22.25   1
   8 -16   0  538.40   51.81   1
   8 -16   0  524.60   53.61   1
  -8 -16   0  488.00   46.15   1
  -8 -16   0  479.70   46.83   1
   8  16   0  518.00   55.05   1
  -8  16   0  507.40   47.90   1
  -8  16   0  513.30   49.33   1
   8 -16   1   71.10   15.05   1
   8 -16   1   64.80   9.025   1
  -8 -16  -1   39.28   7.581   1
  -8 -16  -1   59.40   6.409   1
   8  16   1   63.78   18.82   1
  -8  16  -1   71.61   9.393   1
  -8  16  -1   67.67   6.813   1
   8 -16   2  -3.343   11.79   1
  -8 -16  -2  -1.855   2.172   1
  -8 -16  -2   0.603   5.562   1
   8  16   2   11.83   18.04   1
   8  16   2  -1.989   3.788   1
  -8  16  -2  0.8955    1.40   1
  -8 -16  -3   70.00   7.641   1
  -8 -16  -3   45.98   8.174   1
   8  16   3   62.05   20.35   1
  -8 -16  -4   77.65   11.93   1
  -8 -16  -4   73.20   8.038   1
   8  16   4   76.49   9.785   1
   8  16   4   71.74   21.50   1
  -8 -16  -5  109.20   12.25   1
   8  16   5   74.28   14.21   1
   8 -17  -6   6.426   7.834   1
   8 -17  -6   11.65   14.39   1
  -8  17   6  0.9702   5.541   1
  -8  17   6   8.925   2.639   1
   8 -17  -5   14.10   13.34   1
   8 -17  -5  -9.801    7.54   1
  -8  17   5  0.2069   4.933   1
  -8  17   5  -1.197   1.864   1
   8 -17  -4   14.26   7.465   1
   8 -17  -4   9.096   13.50   1
  -8  17   4   3.836   5.481   1
  -8  17   4  0.2627   1.699   1
   8 -17  -3   4.651   7.659   1
   8 -17  -3   11.32   11.88   1
  -8 -17   3   2.701   5.716   1
   8  17  -3  -2.647   2.848   1
  -8  17   3  0.7306   1.652   1
   8 -17  -2   8.115   6.698   1
   8 -17  -2 -0.4547   11.87   1
  -8 -17   2 -0.5973   1.989   1
  -8 -17   2    3.81   5.709   1
   8  17  -2  0.2919   2.859   1
   8  17  -2 -0.1534   14.36   1
  -8  17   2   4.341   5.583   1
   8 -17  -1   6.004   11.53   1
   8 -17  -1   10.70   6.036   1
  -8 -17   1    3.72   2.114   1
  -8 -17   1  -0.961   5.674   1
   8  17  -1   3.521   3.311   1
   8  17  -1  -4.394   14.38   1
  -8  17   1   4.252   1.514   1
  -8  17   1  -1.655   5.103   1
   8 -17   0   4.825   5.963   1
   8 -17   0   3.979   12.23   1
  -8 -17   0  -8.393    6.07   1
  -8 -17   0   2.521   2.222   1
   8  17   0  -16.80   15.27   1
   8  17   0   4.361   3.659   1
  -8  17   0   1.881   5.473   1
  -8  17   0   5.205   1.667   1
   8 -17   1   8.708   12.17   1
  -8 -17  -1  -3.424   5.615   1
  -8 -17  -1   1.257   2.225   1
   8  17   1  -13.35   16.72   1
   8  17   1   2.822   3.686   1
  -8  17  -1  -0.168   1.493   1
  -8 -17  -2   10.30   6.326   1
  -8 -17  -2   3.765   2.648   1
   8  17   2   7.294    4.30   1
   8  17   2   27.49   17.09   1
  -8 -17  -3  -1.619   2.759   1
  -8 -17  -3   5.207    6.75   1
   8  17   3   3.961    5.09   1
   8  17   3  -6.677   13.50   1
  -8 -17  -4   -1.95   5.761   1
   8  17   4  -6.582   4.575   1
   8 -18  -5  155.40   18.75   1
  -8  18   5  126.00   14.98   1
  -8  18   5  156.30   15.32   1
   8 -18  -4  117.00   15.60   1
   8 -18  -4  148.90   22.55   1
  -8  18   4  111.50   13.34   1
   8 -18  -3  -8.176   13.21   1
   8 -18  -3   6.782   8.418   1
  -8  18   3   5.093   5.855   1
   8 -18  -2   33.11   13.80   1
   8 -18  -2   50.51   9.735   1
  -8  18   2   41.31   7.765   1
  -8  18   2   50.82    5.37   1
   8 -18  -1  159.40   21.98   1
  -8  18   1  164.80   15.88   1
   8 -19  -5   5.091   4.779   1
   8 -19  -5  -3.042   7.248   1
  -8  19   5  0.4092   3.634   1
  -8  19   5-0.06804   6.889   1
   8 -19  -4 -0.6908   8.659   1
   8 -19  -4   26.43   14.75   1
  -8  19   4   15.87   2.875   1
  -8  19   4   18.35   7.703   1
   8 -19  -3  -13.51   13.80   1
  -8  19   3 -0.5506   2.145   1
   9   0 -10  -8.162   12.28   1
  -9   0  10  -11.11   10.76   1
   9   0  -9  -13.56   10.01   1
  -9   0   9   0.552   9.725   1
  -9   0   9  -2.188   1.908   1
   9   0  -8   5.925   7.453   1
  -9   0   8  -1.627   1.601   1
   9   0  -7   3.576   5.612   1
  -9   0   7  0.5446   1.606   1
  -9   0   7  -7.645    7.05   1
   9   0  -6   1.492   5.365   1
  -9   0   6  -9.722    6.81   1
  -9   0   6   2.246   1.701   1
   9   0  -5 -0.9934   5.287   1
   9   0  -5   2.962   4.845   1
  -9   0   5  -2.011   5.935   1
  -9   0   5 -0.2295   1.566   1
   9   0  -4   2.097   5.266   1
   9   0  -4  -6.009    4.68   1
  -9   0   4 -0.7419   1.762   1
  -9   0   4  0.9677   5.994   1
   9   0  -3  -2.104   4.419   1
  -9   0   3 -0.2039   1.941   1
   9   0  -2 -0.9275   4.296   1
  -9   0   2   1.546   2.086   1
   9   0  -1   2.335   4.262   1
   9   0  -1  0.4735   5.526   1
  -9   0   1 -0.3252   5.625   1
  -9   0   1   1.036   2.273   1
   9   0   0   6.168   5.355   1
   9   0   0   1.005   4.156   1
  -9   0   0   4.331   5.485   1
  -9   0   0  -3.453   2.364   1
   9   0   1  -0.728   5.323   1
   9   0   1   -2.46   3.965   1
  -9   0  -1 -0.8798   5.844   1
  -9   0  -1   0.573   2.726   1
   9   0   2   1.978   4.201   1
   9   0   2  -4.276   6.428   1
  -9   0  -2  -1.754   2.921   1
  -9   0  -2  -4.849   6.223   1
   9   0   3  -3.241   4.438   1
   9   0   3 -0.6344   7.366   1
  -9   0  -3   1.244   2.981   1
  -9   0  -3   7.615    7.68   1
   9   0   4   2.268   8.172   1
  -9   0  -4   12.53   8.891   1
   9   0   5   -2.85   5.166   1
  -9   0  -5   2.025   3.086   1
  -9   0  -5  -17.95   11.50   1
   9   0   6   7.595   10.72   1
   9   0   6  -6.794   6.137   1
  -9   0  -6   2.053   3.571   1
  -9   0  -6   2.085   13.06   1
   9   0   7  -3.799   7.617   1
   9   0   7   2.205   11.51   1
  -9   0  -7   10.46   16.49   1
   9   0   8   6.088   12.21   1
   9   0   8   11.13   7.541   1
  -9   0  -8  -7.887   8.792   1
  -9   0  -8  -1.149   4.521   1
   9  -1 -10   49.90   14.74   1
   9  -1 -10   47.42   12.36   1
  -9  -1  10   37.31   12.25   1
  -9  -1  10   47.90   5.738   1
   9   1 -10   51.90   10.26   1
   9   1 -10   66.68   16.05   1
  -9   1  10   67.32   15.49   1
  -9   1  10   62.77    7.00   1
   9  -1  -9  183.50   20.36   1
  -9  -1   9  202.20   19.46   1
  -9  -1   9  197.20   22.74   1
   9   1  -9  203.00   21.11   1
   9   1  -9  195.70   24.57   1
  -9   1   9  163.90   20.07   1
   9  -1  -8  164.00   17.48   1
  -9  -1   8  177.30   20.50   1
  -9  -1   8  180.80   17.35   1
   9   1  -8  185.10   19.22   1
   9   1  -8  208.70   23.67   1
  -9   1   8  142.10   16.59   1
   9  -1  -7   16.47   5.765   1
   9  -1  -7   15.14   6.534   1
  -9  -1   7   20.90   2.856   1
   9   1  -7   10.85   5.745   1
   9   1  -7   24.79   7.058   1
  -9   1   7   16.82   7.014   1
   9  -1  -6  132.20   15.11   1
   9  -1  -6  136.10   14.68   1
  -9  -1   6  143.20   13.84   1
   9   1  -6  136.80   15.31   1
  -9   1   6  132.40   15.27   1
   9  -1  -5  118.00   13.23   1
   9  -1  -5  121.80   13.71   1
  -9  -1   5  109.10   10.66   1
   9   1  -5  126.00   14.08   1
  -9   1   5  150.90   16.36   1
  -9   1   5  103.90   10.31   1
   9  -1  -4  591.60   56.58   1
   9  -1  -4  567.90   54.42   1
  -9  -1   4  554.80   52.30   1
   9   1  -4  599.60   57.49   1
  -9   1   4  556.60   52.51   1
  -9   1   4  528.60   50.95   1
   9  -1  -3  276.40   27.19   1
  -9  -1   3  249.30   23.75   1
   9   1  -3  307.30   30.24   1
  -9   1   3  241.80   24.73   1
  -9   1   3  280.80   26.79   1
   9  -1  -2   12.25   4.579   1
  -9  -1   2   23.05   3.144   1
   9   1  -2   20.74   5.394   1
  -9   1   2   26.87   3.747   1
   9  -1  -1  570.50   54.34   1
   9  -1  -1  576.30   55.31   1
  -9  -1   1  655.00   62.62   1
  -9  -1   1  644.30   60.75   1
   9   1  -1  634.90   60.63   1
   9   1  -1  618.80   59.05   1
  -9   1   1  563.00   54.05   1
  -9   1   1  690.10   65.14   1
   9  -1   0  798.40   75.70   1
   9  -1   0  852.90   81.12   1
  -9  -1   0  867.30   81.67   1
  -9  -1   0  879.20   83.43   1
   9   1   0  835.20   79.31   1
   9   1   0  876.10   83.11   1
  -9   1   0  793.40   75.47   1
  -9   1   0  960.10   90.44   1
   9  -1   1  598.90   57.65   1
   9  -1   1  605.30   57.65   1
  -9  -1  -1  655.10   61.87   1
  -9  -1  -1  642.50   61.40   1
   9   1   1  596.10   57.04   1
   9   1   1  603.50   57.67   1
  -9   1  -1  642.20   60.75   1
  -9   1  -1  592.60   56.92   1
   9  -1   2  293.80   30.01   1
   9  -1   2  239.50   23.65   1
  -9  -1  -2  242.80   24.56   1
  -9  -1  -2  299.90   28.70   1
   9   1   2  248.80   25.18   1
   9   1   2  246.00   24.50   1
  -9   1  -2  261.30   26.72   1
  -9   1  -2  301.80   29.01   1
   9  -1   3  -5.704    4.22   1
   9  -1   3   1.681   7.623   1
  -9  -1  -3  -2.951   2.648   1
  -9  -1  -3   8.702    7.10   1
   9   1   3  -3.193   6.481   1
   9   1   3  -2.568   4.944   1
  -9   1  -3   1.156   3.602   1
   9  -1   4  165.30   20.09   1
  -9  -1  -4  127.70   15.98   1
  -9  -1  -4  122.00   12.46   1
   9   1   4  168.20   19.49   1
  -9   1  -4  113.40   16.33   1
   9  -1   5  111.40   12.57   1
   9  -1   5  131.70   19.21   1
  -9  -1  -5  114.00   11.67   1
   9   1   5  103.20   12.53   1
  -9   1  -5  159.90   21.40   1
  -9   1  -5  117.10   12.29   1
   9  -1   6  115.50   13.85   1
   9  -1   6  124.60   17.86   1
  -9  -1  -6  127.90   13.12   1
  -9  -1  -6  159.10   22.09   1
   9   1   6  107.20   13.63   1
   9   1   6  149.50   20.22   1
  -9   1  -6  164.90   22.89   1
  -9   1  -6  150.20   15.50   1
   9  -1   7   25.58   12.09   1
  -9  -1  -7   22.98   4.484   1
  -9  -1  -7   21.17   17.67   1
   9   1   7   25.85   9.238   1
   9   1   7   26.00   13.15   1
  -9   1  -7   36.92   16.97   1
  -9   1  -7   24.45   6.231   1
   9  -1   8   12.44   11.28   1
   9  -1   8  -5.367   7.182   1
  -9  -1  -8  -16.42   8.398   1
  -9  -1  -8   1.534   3.973   1
   9   1   8  -10.75   12.78   1
   9   1   8   2.197    7.77   1
  -9   1  -8  -5.008   8.754   1
  -9   1  -8   4.109   5.093   1
   9  -2 -10  -10.27   12.21   1
   9  -2 -10   13.52   13.31   1
  -9  -2  10   2.296   10.76   1
  -9  -2  10   -1.89   2.621   1
   9   2 -10  -14.37   7.401   1
   9   2 -10  0.5278   12.84   1
  -9   2  10  -16.48   17.03   1
  -9   2  10-0.07244   2.652   1
   9  -2  -9   1.268   8.535   1
   9  -2  -9   7.483   8.357   1
  -9  -2   9  -15.70   9.731   1
  -9  -2   9  0.2554   1.965   1
   9   2  -9  -0.138   5.451   1
   9   2  -9 -0.3299   11.45   1
  -9   2   9 -0.4325   1.982   1
  -9   2   9  -15.31   10.88   1
   9  -2  -8  -4.528   6.359   1
  -9  -2   8   3.245   7.529   1
  -9  -2   8   1.603   1.637   1
   9   2  -8  -3.593   4.815   1
   9   2  -8   7.766   9.984   1
  -9   2   8 -0.1628   8.219   1
   9  -2  -7  0.2749   6.045   1
  -9  -2   7  -3.375   6.349   1
  -9  -2   7  -1.704   1.609   1
   9   2  -7  -4.702   6.734   1
   9   2  -7   6.727   4.507   1
  -9   2   7   6.292   7.208   1
   9  -2  -6 -0.9428   5.373   1
  -9  -2   6  0.3996   1.577   1
  -9  -2   6  0.1999   5.643   1
   9   2  -6  0.4175   4.062   1
   9   2  -6   12.18   6.033   1
  -9   2   6   6.863   6.508   1
   9  -2  -5  -9.497   5.256   1
  -9  -2   5  0.4457   1.579   1
   9   2  -5    4.37   4.135   1
   9   2  -5   2.768   5.257   1
  -9   2   5    3.79   5.811   1
   9  -2  -4  -1.268   5.051   1
   9  -2  -4  -1.322   4.129   1
  -9  -2   4  0.1702   1.669   1
  -9   2   4  -2.555   5.546   1
  -9   2   4  -1.273   2.165   1
   9  -2  -3  0.1484   4.054   1
  -9  -2   3   1.912   1.725   1
   9   2  -3   4.858   5.068   1
   9   2  -3   0.609    5.01   1
  -9   2   3  -2.156   6.813   1
  -9   2   3   2.636   2.373   1
   9  -2  -2 -0.0595   3.642   1
  -9  -2   2  0.5139   1.763   1
  -9  -2   2  -0.329   6.009   1
   9   2  -2   1.343   4.847   1
   9   2  -2  0.9664   5.146   1
  -9   2   2   4.398   2.592   1
   9  -2  -1  -1.169   5.871   1
   9  -2  -1   2.451   3.554   1
  -9  -2   1   1.769   1.827   1
  -9  -2   1  -2.698   5.917   1
   9   2  -1    3.98   5.306   1
   9   2  -1 -0.5399   4.749   1
  -9   2   1  -1.064   6.142   1
  -9   2   1  -3.658    2.64   1
   9  -2   0   2.893   3.359   1
   9  -2   0  -3.932   6.223   1
  -9  -2   0   3.008   2.105   1
  -9  -2   0-0.02041   5.943   1
   9   2   0   2.058   4.945   1
   9   2   0   1.944   4.858   1
  -9   2   0 -0.5688   2.724   1
  -9   2   0  -1.509   6.379   1
   9  -2   1   5.017    6.97   1
   9  -2   1   4.653   3.814   1
  -9  -2  -1    8.98   2.558   1
  -9  -2  -1   1.968   5.832   1
   9   2   1   9.961   5.424   1
   9   2   1   7.209   4.934   1
  -9   2  -1   9.071   6.725   1
  -9   2  -1   7.581   3.119   1
   9  -2   2   6.672   3.814   1
   9  -2   2  0.7881   7.555   1
  -9  -2  -2    5.35   6.073   1
  -9  -2  -2   5.933   2.508   1
   9   2   2   14.01   5.664   1
   9   2   2   8.817   5.283   1
  -9   2  -2    7.14   3.211   1
  -9   2  -2  0.6486   7.428   1
   9  -2   3  -5.684    4.25   1
  -9  -2  -3  -8.266   6.575   1
  -9  -2  -3   2.886   2.417   1
   9   2   3  -6.667   5.783   1
   9   2   3   8.942   5.397   1
  -9   2  -3   1.973   3.146   1
  -9   2  -3  -9.025   9.017   1
   9  -2   4    2.27   4.438   1
   9  -2   4  -1.634   9.125   1
  -9  -2  -4   5.643   7.097   1
  -9  -2  -4  0.3004   2.675   1
   9   2   4   3.776   6.903   1
   9   2   4   1.264    5.82   1
  -9   2  -4   4.504   3.492   1
  -9   2  -4   4.143   10.38   1
   9  -2   5  -2.817   10.24   1
   9  -2   5  -2.568   4.569   1
  -9  -2  -5   3.279   2.545   1
   9   2   5   0.159    6.13   1
  -9   2  -5   4.162    3.38   1
  -9   2  -5  -7.141   12.09   1
   9  -2   6  -6.983   10.04   1
   9  -2   6  -6.578   5.736   1
  -9  -2  -6   2.252    2.98   1
  -9  -2  -6   2.628   12.86   1
   9   2   6   12.74   11.03   1
   9   2   6  -4.948   7.219   1
  -9   2  -6  -1.015   4.077   1
  -9   2  -6  -6.964   13.02   1
   9  -2   7   2.253   6.855   1
   9  -2   7  -20.24   10.81   1
  -9  -2  -7   1.297   17.04   1
  -9  -2  -7  0.7992   3.155   1
   9   2   7 -0.2149   12.38   1
   9   2   7   5.407   8.557   1
  -9   2  -7 0.01834   4.614   1
   9  -2   8   8.749   10.42   1
   9  -2   8  -10.27   7.554   1
  -9  -2  -8 -0.4264   7.878   1
  -9  -2  -8  0.9627   3.943   1
   9   2   8  -9.892   13.21   1
  -9   2  -8   7.607    6.03   1
  -9   2  -8  -9.181   8.145   1
   9  -3 -10   62.47   20.28   1
   9  -3 -10   56.23   17.41   1
  -9  -3  10   54.11   13.63   1
  -9  -3  10   28.65   4.313   1
   9   3 -10   56.79   9.454   1
   9   3 -10   47.81   17.46   1
  -9   3  10   49.42   5.959   1
  -9   3  10   57.06   25.96   1
   9  -3  -9   61.80   13.27   1
   9  -3  -9   69.75   12.24   1
  -9  -3   9   72.78   7.546   1
  -9  -3   9   60.80   11.21   1
   9   3  -9   73.66   16.20   1
   9   3  -9   59.79   8.107   1
  -9   3   9   38.92   14.62   1
  -9   3   9   78.04   8.069   1
   9  -3  -8  116.30   15.63   1
   9  -3  -8  113.90   13.69   1
  -9  -3   8  141.00   13.67   1
  -9  -3   8  158.30   17.53   1
   9   3  -8  144.80   15.00   1
   9   3  -8  134.40   18.99   1
  -9   3   8  145.90   14.12   1
  -9   3   8  111.80   15.68   1
   9  -3  -7   24.76   7.576   1
  -9  -3   7   31.99   7.111   1
  -9  -3   7   28.32   3.468   1
   9   3  -7   29.52   9.426   1
   9   3  -7   27.03   4.929   1
  -9   3   7   22.55   8.518   1
   9  -3  -6  209.30   21.88   1
  -9  -3   6  240.50   24.19   1
  -9  -3   6  237.00   22.58   1
   9   3  -6  232.50   22.79   1
   9   3  -6  186.70   20.15   1
  -9   3   6  201.10   21.41   1
   9  -3  -5  385.80   37.81   1
  -9  -3   5  339.30   32.12   1
  -9  -3   5  412.20   39.87   1
   9   3  -5  343.70   33.08   1
   9   3  -5  343.40   33.97   1
  -9   3   5  376.60   36.99   1
   9  -3  -4  348.80   34.51   1
   9  -3  -4  329.60   32.04   1
  -9  -3   4  362.10   34.34   1
   9   3  -4  337.20   32.54   1
   9   3  -4  343.80   33.94   1
  -9   3   4  309.50   30.80   1
  -9   3   4  387.90   36.83   1
  -9  -3   3  237.40   23.84   1
  -9  -3   3  184.50   17.66   1
   9   3  -3  205.10   20.37   1
   9   3  -3  208.60   21.42   1
  -9   3   3  221.30   21.43   1
   9  -3  -2 -0.1389    3.42   1
   9  -3  -2   3.958   6.728   1
  -9  -3   2   4.976   1.902   1
  -9  -3   2   2.453   5.317   1
   9   3  -2   1.577   4.132   1
   9   3  -2   4.647   5.209   1
  -9   3   2   6.679   2.877   1
   9  -3  -1  404.80   38.79   1
   9  -3  -1  513.40   50.00   1
  -9  -3   1  409.50   38.72   1
  -9  -3   1  428.30   41.53   1
   9   3  -1  489.10   47.20   1
   9   3  -1  493.20   47.28   1
  -9   3   1  466.10   44.23   1
  -9   3   1  372.70   36.70   1
   9  -3   0  902.50   86.46   1
   9  -3   0  733.20   69.46   1
  -9  -3   0  955.30   90.64   1
  -9  -3   0  738.30   69.52   1
   9   3   0  855.30   81.39   1
   9   3   0  780.10   74.07   1
  -9   3   0  804.70   76.98   1
  -9   3   0  771.10   72.78   1
   9  -3   1  137.10   14.14   1
   9  -3   1  150.20   17.69   1
  -9  -3  -1  143.50   15.55   1
  -9  -3  -1  150.90   14.66   1
   9   3   1  156.00   16.58   1
   9   3   1  143.20   15.35   1
  -9   3  -1  149.60   17.21   1
  -9   3  -1  141.20   14.15   1
   9  -3   2   44.71   10.54   1
   9  -3   2   33.15   5.534   1
  -9  -3  -2   29.75   7.106   1
  -9  -3  -2   40.36   4.709   1
   9   3   2   43.22   7.336   1
   9   3   2   34.55    6.97   1
  -9   3  -2   29.11   9.483   1
  -9   3  -2   35.19   4.889   1
   9  -3   3   1.337   8.651   1
   9  -3   3   9.608   4.501   1
  -9  -3  -3  -1.473   6.114   1
  -9  -3  -3   3.835    2.32   1
   9   3   3   1.762    5.92   1
   9   3   3  0.5449   5.686   1
  -9   3  -3    6.89    3.23   1
  -9   3  -3   12.70   10.53   1
   9  -3   4  108.60   11.84   1
  -9  -3  -4   99.16   10.11   1
  -9  -3  -4   76.52   10.87   1
   9   3   4  105.10   13.13   1
   9   3   4  100.80   12.93   1
  -9   3  -4  127.30   13.10   1
   9  -3   5  157.10   20.17   1
   9  -3   5  142.00   15.15   1
  -9  -3  -5  129.80   12.85   1
   9   3   5  178.80   19.56   1
  -9   3  -5  160.00   22.00   1
  -9   3  -5  129.30   13.48   1
   9  -3   6   94.24   11.77   1
   9  -3   6   87.25   15.02   1
  -9  -3  -6   83.51   8.848   1
  -9  -3  -6   86.59   16.36   1
   9   3   6  119.70   18.02   1
   9   3   6   99.99   14.25   1
  -9   3  -6   80.10    9.57   1
  -9   3  -6  107.80   18.70   1
   9  -3   7   10.12   12.26   1
   9  -3   7   43.94   8.615   1
  -9  -3  -7   44.22   17.89   1
  -9  -3  -7   33.91   5.004   1
   9   3   7   49.73   14.72   1
   9   3   7   36.79   10.85   1
  -9   3  -7   42.07   17.21   1
  -9   3  -7   32.70   6.416   1
   9  -3   8   3.538   6.966   1
  -9  -3  -8  0.1715   4.082   1
  -9  -3  -8  -1.139   6.159   1
   9   3   8   -1.12   11.02   1
  -9   3  -8 -0.2554   6.438   1
   9   4 -11  -4.801   7.227   1
   9  -4 -10  -3.651   16.59   1
   9  -4 -10   17.91   14.66   1
  -9  -4  10  -2.378   2.555   1
  -9  -4  10   -2.85   9.236   1
   9   4 -10   20.20   16.86   1
   9   4 -10  -2.199   5.242   1
  -9   4  10  -2.084   2.852   1
  -9   4  10   18.24   27.14   1
   9  -4  -9   -1.93   7.295   1
   9  -4  -9-0.06153   12.99   1
  -9  -4   9  0.6012   7.258   1
  -9  -4   9   1.849   2.052   1
   9   4  -9  -8.264   12.37   1
   9   4  -9   4.391   4.042   1
  -9   4   9  -2.927   15.61   1
  -9   4   9   1.073   2.068   1
   9  -4  -8  -2.611    5.88   1
   9  -4  -8  -15.87   9.657   1
  -9  -4   8   1.029   1.681   1
  -9  -4   8   3.578    6.17   1
   9   4  -8    2.48   3.411   1
   9   4  -8  -22.53   11.80   1
  -9   4   8  0.3693   12.00   1
  -9   4   8  0.2473   1.759   1
   9  -4  -7   12.41   8.075   1
  -9  -4   7   9.606   2.128   1
  -9  -4   7   14.32   5.433   1
   9   4  -7   9.919   3.484   1
   9   4  -7   2.682   9.179   1
  -9   4   7   4.523   9.007   1
   9  -4  -6   25.59   7.816   1
  -9  -4   6   7.785   5.254   1
  -9  -4   6   18.13   2.638   1
   9   4  -6   14.98    3.75   1
   9   4  -6   11.32   7.667   1
  -9   4   6   4.549   7.943   1
   9  -4  -5   4.439   4.639   1
   9  -4  -5   2.441    6.66   1
  -9  -4   5   4.879   1.739   1
  -9  -4   5   3.178   4.731   1
   9   4  -5   10.29   3.382   1
   9   4  -5   1.149   5.563   1
  -9   4   5  -3.233   7.078   1
  -9   4   5   4.413   2.398   1
   9  -4  -4   5.358   4.055   1
  -9  -4   4   4.146   1.733   1
  -9  -4   4   0.196    4.80   1
   9   4  -4   0.794   3.249   1
   9   4  -4 -0.3995   5.572   1
  -9   4   4    4.12   2.596   1
  -9   4   4   8.295   7.029   1
   9  -4  -3   2.373   3.542   1
  -9  -4   3  -4.372   4.788   1
  -9  -4   3    2.88   1.592   1
   9   4  -3  -1.842   3.302   1
   9   4  -3   5.452   5.471   1
  -9   4   3  0.9931   2.629   1
   9  -4  -2   4.572   7.286   1
   9  -4  -2   1.024   3.302   1
  -9  -4   2   3.476   5.123   1
  -9  -4   2   2.363   1.667   1
   9   4  -2    5.77   3.833   1
   9   4  -2   -2.03   5.026   1
  -9   4   2   2.205   2.723   1
  -9   4   2   8.399   7.248   1
   9  -4  -1   10.01   3.882   1
   9  -4  -1   21.87    8.49   1
  -9  -4   1   10.01   5.723   1
  -9  -4   1   12.08   2.288   1
   9   4  -1   7.706   5.556   1
   9   4  -1   9.997   4.258   1
  -9   4   1   14.35   3.333   1
  -9   4   1  -13.22    7.77   1
   9  -4   0   51.02   10.36   1
   9  -4   0   40.00   5.749   1
  -9  -4   0   63.56   6.573   1
  -9  -4   0   49.74   8.217   1
   9   4   0   62.18   9.138   1
   9   4   0   62.78   8.275   1
  -9   4   0   49.75   5.966   1
   9  -4   1   2.634   3.677   1
   9  -4   1   3.999   7.885   1
  -9  -4  -1   1.122   1.844   1
  -9  -4  -1   7.048   6.042   1
   9   4   1   3.674   5.019   1
   9   4   1   5.885   5.504   1
  -9   4  -1 -0.7858   2.763   1
  -9   4  -1  0.6167   8.384   1
   9  -4   2   10.77   9.138   1
   9  -4   2   3.825   3.926   1
  -9  -4  -2   9.384   7.176   1
   9   4   2   6.475   7.067   1
   9   4   2   18.91    6.26   1
  -9   4  -2   15.53   3.567   1
  -9   4  -2   6.827   8.966   1
   9  -4   3   5.506   9.248   1
  -9  -4  -3   4.433   2.188   1
  -9  -4  -3 -0.1954   5.937   1
   9   4   3   1.379   6.115   1
   9   4   3   3.774   5.472   1
  -9   4  -3   16.00   11.22   1
   9  -4   4   -3.60    8.80   1
   9  -4   4   -0.71   4.283   1
  -9  -4  -4   -1.98   6.149   1
   9   4   4  -1.047   6.151   1
  -9   4  -4   7.046   3.494   1
  -9   4  -4   0.641   11.50   1
   9  -4   5   4.744   4.678   1
   9  -4   5   5.474   10.13   1
  -9  -4  -5   7.114   2.434   1
   9   4   5   17.03   7.421   1
  -9   4  -5   5.937   3.854   1
  -9   4  -5   4.348   12.37   1
   9  -4   6 -0.6137    9.88   1
  -9  -4  -6  -10.94   11.71   1
  -9   4  -6   8.316   13.55   1
   9  -4   7  -17.26   11.81   1
   9  -4   7  -2.631   6.532   1
  -9  -4  -7  -8.357   15.11   1
  -9  -4  -7   0.589   3.224   1
   9   4   7   10.43   10.25   1
   9   4   7  -12.23   12.32   1
  -9   4  -7  -1.519   4.936   1
   9  -4   8   1.975   6.505   1
  -9  -4  -8  -1.932   5.024   1
   9   4   8   3.661   6.712   1
   9   5 -11  -1.706   6.266   1
   9  -5 -10   33.39   15.08   1
   9  -5 -10   21.51   14.43   1
  -9  -5  10   4.785   8.817   1
  -9  -5  10   10.69   3.131   1
   9   5 -10   28.40   18.84   1
  -9   5  10   9.652   24.36   1
  -9   5  10   17.10   3.679   1
   9  -5  -9   87.15   17.67   1
   9  -5  -9   79.89   12.03   1
  -9  -5   9   85.49   8.782   1
  -9  -5   9   90.19   11.92   1
   9   5  -9   95.72   10.39   1
  -9   5   9  123.00   24.09   1
   9  -5  -8   50.55   14.13   1
   9  -5  -8   19.72   6.736   1
  -9  -5   8   25.39   3.305   1
  -9  -5   8   21.20   6.447   1
   9   5  -8   25.26   12.86   1
   9   5  -8   22.35   4.138   1
  -9   5   8   11.99   15.13   1
  -9   5   8   22.56   3.061   1
   9  -5  -7   48.75   11.06   1
  -9  -5   7   42.46   4.686   1
  -9  -5   7   33.89   6.936   1
   9   5  -7   33.04   5.061   1
   9   5  -7   36.01   12.08   1
  -9   5   7   35.95   12.15   1
   9  -5  -6  147.30   17.91   1
  -9  -5   6  125.80   13.84   1
  -9  -5   6  135.20   13.12   1
   9   5  -6  118.10   12.22   1
   9   5  -6  140.00   17.70   1
  -9   5   6  167.00   20.04   1
   9  -5  -5   48.59   10.92   1
   9  -5  -5   62.35   8.089   1
  -9  -5   5   57.86   5.951   1
  -9  -5   5   75.24   9.297   1
   9   5  -5   62.00   7.268   1
   9   5  -5   78.17   11.40   1
  -9   5   5   61.66   6.731   1
  -9   5   5   77.79   12.42   1
   9  -5  -4  134.60   13.96   1
  -9  -5   4  153.80   15.97   1
  -9  -5   4  149.30   14.39   1
   9   5  -4  121.50   14.25   1
   9   5  -4  126.80   12.84   1
  -9   5   4  148.50   14.67   1
   9  -5  -3   86.56    9.48   1
   9  -5  -3  108.70   14.42   1
  -9  -5   3   92.89   10.68   1
  -9  -5   3   92.73   9.146   1
   9   5  -3   78.69   8.621   1
   9   5  -3  100.90   12.22   1
  -9   5   3   97.59   9.987   1
  -9   5   3   79.56   12.01   1
   9  -5  -2   12.40   8.101   1
   9  -5  -2   19.10    4.21   1
  -9  -5   2   20.16   5.373   1
  -9  -5   2   19.99   2.732   1
   9   5  -2   22.62   4.176   1
   9   5  -2   23.92   6.413   1
  -9   5   2   18.86   3.589   1
  -9   5   2   9.526   8.367   1
   9  -5  -1   54.87   6.872   1
   9  -5  -1   75.15   12.57   1
  -9  -5   1   70.52   7.138   1
  -9  -5   1   68.03   8.748   1
   9   5  -1   65.68   7.737   1
   9   5  -1   58.24   8.856   1
  -9   5   1   62.61   6.973   1
  -9   5   1   51.39   10.74   1
   9  -5   0   7.284   9.007   1
   9  -5   0   4.581   3.566   1
  -9  -5   0 -0.6161   5.132   1
  -9  -5   0   5.875   1.876   1
   9   5   0   3.359   4.276   1
   9   5   0   8.226   5.855   1
  -9   5   0   6.601   8.732   1
  -9   5   0   7.539    2.94   1
   9  -5   1  153.50   15.66   1
   9  -5   1  162.80   19.56   1
  -9  -5  -1  127.10   12.39   1
  -9  -5  -1  172.50   18.38   1
   9   5   1  162.40   17.68   1
   9   5   1  151.60   15.83   1
  -9   5  -1  122.30   12.38   1
  -9   5  -1  157.70   18.96   1
   9  -5   2  166.20   16.85   1
   9  -5   2  157.90   19.54   1
  -9  -5  -2  142.00   13.80   1
  -9  -5  -2  146.90   16.27   1
   9   5   2  154.40   17.12   1
   9   5   2  167.80   17.57   1
  -9   5  -2  138.20   13.88   1
  -9   5  -2  183.40   21.76   1
   9  -5   3 -0.2501   4.208   1
   9  -5   3   8.476   9.159   1
  -9  -5  -3   1.818   5.889   1
  -9  -5  -3   2.322   2.017   1
   9   5   3   10.47   6.428   1
   9   5   3   5.413   5.728   1
  -9   5  -3    3.78   3.184   1
  -9   5  -3   2.447   12.14   1
   9  -5   4  126.70   16.58   1
   9  -5   4  121.40   13.16   1
  -9  -5  -4   93.41   11.76   1
   9   5   4  101.70   12.52   1
  -9   5  -4  122.00   12.60   1
  -9   5  -4  102.10   16.45   1
   9  -5   5  194.90   19.91   1
   9  -5   5  189.80   22.18   1
  -9  -5  -5  207.00   19.99   1
  -9  -5  -5  147.10   17.38   1
   9   5   5  224.20   23.96   1
  -9   5  -5  209.70   20.85   1
  -9   5  -5  156.00   21.30   1
   9  -5   6  183.40   19.23   1
   9  -5   6   99.93   16.28   1
  -9  -5  -6  179.60   21.87   1
  -9  -5  -6  134.50   13.39   1
   9   5   6  169.10   20.00   1
   9   5   6  175.00   21.81   1
  -9   5  -6  157.30   16.24   1
   9  -5   7   48.30   9.281   1
  -9  -5  -7   73.71   16.91   1
  -9  -5  -7   35.33   5.411   1
   9   5   7   34.07   12.33   1
   9   5   7   51.80   14.70   1
  -9   5  -7   33.74   6.934   1
  -9   5  -7   43.71   16.53   1
   9   6 -11  -4.849   5.161   1
  -9  -6  10   1.619   2.562   1
  -9  -6  10  0.9074   7.659   1
   9   6 -10  -7.699   16.54   1
   9   6 -10  -1.385   3.739   1
   9  -6  -9   3.949    7.58   1
   9  -6  -9   6.192   13.77   1
  -9  -6   9  -1.752   1.962   1
   9   6  -9   7.407   13.35   1
  -9   6   9  -6.938   19.59   1
  -9   6   9  -1.831   2.172   1
   9  -6  -8   0.773   5.774   1
   9  -6  -8   8.334   12.34   1
  -9  -6   8   1.234   5.486   1
   9   6  -8  -1.391   3.192   1
  -9   6   8  0.8377   1.767   1
  -9   6   8   17.43   17.21   1
   9  -6  -7  -13.84   9.356   1
  -9  -6   7  -1.881   4.923   1
  -9  -6   7   2.345   1.723   1
   9   6  -7  -3.753   2.907   1
   9   6  -7   11.14   12.31   1
  -9   6   7  -15.18   12.41   1
   9  -6  -6  0.4574   9.324   1
   9  -6  -6   5.429   4.968   1
  -9  -6   6   4.213   5.401   1
  -9  -6   6   9.372   2.032   1
   9   6  -6   12.27   3.287   1
   9   6  -6   12.49   10.14   1
  -9   6   6    9.54   2.676   1
  -9   6   6   11.38   10.98   1
   9  -6  -5 -0.7603   3.983   1
  -9  -6   5 -0.1046   4.396   1
  -9  -6   5   1.588   1.588   1
   9   6  -5    2.38   8.209   1
   9   6  -5   4.027   2.931   1
  -9   6   5  -1.232   2.565   1
   9  -6  -4   1.523   3.308   1
   9  -6  -4 -0.3419   9.198   1
  -9  -6   4  -2.487   1.579   1
  -9  -6   4  0.6519   4.396   1
   9   6  -4  -5.043   2.978   1
   9   6  -4  -2.046   6.492   1
  -9   6   4   0.235   2.538   1
  -9   6   4   7.207   10.28   1
   9  -6  -3   -1.37   3.511   1
   9  -6  -3  0.8696   8.708   1
  -9  -6   3   1.915   4.367   1
  -9  -6   3 -0.7394   1.565   1
   9   6  -3   3.559   5.807   1
   9   6  -3   2.083   3.084   1
  -9   6   3   11.06   8.958   1
  -9   6   3    3.67   2.727   1
   9  -6  -2  -4.274   3.339   1
   9  -6  -2  -11.34    8.67   1
  -9  -6   2 -0.4976    1.65   1
  -9  -6   2  -3.441   4.357   1
   9   6  -2  -5.123   5.803   1
   9   6  -2  -2.024   2.896   1
  -9   6   2   -2.04   8.724   1
  -9   6   2-0.00213   2.652   1
   9  -6  -1  -2.652   8.868   1
   9  -6  -1 0.05708   3.434   1
  -9  -6   1  0.3055   4.356   1
  -9  -6   1   1.143   1.569   1
   9   6  -1 -0.2001   5.531   1
   9   6  -1   1.343   3.031   1
  -9   6   1  -7.057   8.769   1
  -9   6   1   2.378   2.744   1
   9  -6   0   5.364   3.542   1
   9  -6   0   19.30   9.862   1
  -9  -6   0   6.926    5.13   1
  -9  -6   0   7.745   2.015   1
   9   6   0   10.19   4.071   1
   9   6   0   6.006   6.003   1
  -9   6   0   7.712   9.832   1
  -9   6   0   9.844    3.19   1
   9  -6   1  -9.114   8.375   1
   9  -6   1  -1.622   3.638   1
  -9  -6  -1   -0.47   5.819   1
  -9  -6  -1  -1.416   1.701   1
   9   6   1  -4.962   4.366   1
   9   6   1 -0.6885   6.336   1
  -9   6  -1  -2.615   10.21   1
  -9   6  -1 0.09507   2.947   1
   9  -6   2  -5.536    8.85   1
  -9  -6  -2  -1.749    6.34   1
  -9  -6  -2  0.5243   1.747   1
   9   6   2   5.124   6.198   1
   9   6   2 0.09234   5.152   1
  -9   6  -2  -3.807   10.99   1
   9  -6   3  0.3862   4.077   1
   9  -6   3  -12.71   8.846   1
  -9  -6  -3   1.451   6.113   1
  -9  -6  -3  0.5607   1.927   1
   9   6   3   1.627   6.364   1
   9   6   3   9.353   5.518   1
  -9   6  -3  -13.79   10.87   1
  -9   6  -3   4.284   3.257   1
   9  -6   4  -1.779   9.316   1
   9  -6   4  0.5273   4.147   1
  -9  -6  -4  -2.016    6.52   1
  -9  -6  -4   1.475   1.975   1
   9   6   4  -3.145   5.992   1
   9   6   4 -0.3422   7.083   1
  -9   6  -4  -6.929   11.45   1
  -9   6  -4-0.00354   3.319   1
   9  -6   5   10.35   5.514   1
   9  -6   5   19.53   9.325   1
  -9  -6  -5   10.64   7.689   1
  -9  -6  -5   26.27    3.81   1
   9   6   5   22.42   7.628   1
   9   6   5   21.62   8.275   1
  -9   6  -5   23.12   12.59   1
  -9   6  -5   12.90   4.415   1
   9  -6   6   3.861   9.894   1
   9  -6   6 -0.3228    5.18   1
  -9  -6  -6  -1.613   2.375   1
  -9  -6  -6  -5.197   9.908   1
   9   6   6  -1.499   8.788   1
   9   6   6   1.129   9.647   1
  -9   6  -6   2.045   4.098   1
  -9   6  -6   1.706   14.10   1
  -9  -6  -7  -1.019   3.544   1
  -9  -6  -7   13.05   12.61   1
   9   6   7  -2.267   11.87   1
   9   6   7  -13.97   11.41   1
  -9   6  -7  -2.982   12.60   1
  -9  -7  10   57.47    6.59   1
  -9  -7  10   54.98   10.96   1
   9   7 -10   62.16    7.73   1
   9   7 -10   47.59   18.43   1
   9  -7  -9   62.80   11.06   1
   9  -7  -9   75.57   17.50   1
  -9  -7   9   60.07   6.477   1
  -9  -7   9   71.76   10.51   1
   9   7  -9   62.81    7.42   1
   9   7  -9   79.86   17.98   1
  -9   7   9   71.95   24.71   1
  -9   7   9   83.65   8.654   1
   9  -7  -8   29.17   13.04   1
   9  -7  -8   14.82   6.598   1
  -9  -7   8   10.62   2.328   1
   9   7  -8   17.44   14.13   1
   9   7  -8   8.496   3.425   1
  -9   7   8   10.73   2.438   1
  -9   7   8   56.01   18.06   1
   9  -7  -7   40.02   12.01   1
  -9  -7   7   26.71   6.275   1
   9   7  -7   25.43   4.075   1
   9   7  -7   26.71   14.15   1
   9  -7  -6  163.90   17.13   1
  -9  -7   6  148.90   14.40   1
  -9  -7   6  155.50   16.50   1
   9   7  -6  132.20   13.30   1
   9   7  -6  140.90   20.23   1
  -9   7   6  161.30   15.76   1
   9  -7  -5  199.50   23.42   1
   9  -7  -5  175.30   17.88   1
  -9  -7   5  164.80   15.87   1
  -9  -7   5  178.00   18.35   1
   9   7  -5  158.20   15.69   1
   9   7  -5  158.30   19.63   1
  -9   7   5  187.30   18.34   1
   9  -7  -4  127.80   13.24   1
   9  -7  -4  150.30   19.18   1
  -9  -7   4  124.90   12.14   1
  -9  -7   4  126.30   13.52   1
   9   7  -4  133.10   16.54   1
   9   7  -4  120.00   12.18   1
  -9   7   4  147.60   18.97   1
  -9   7   4  137.20   13.67   1
   9  -7  -3  153.00   15.54   1
   9  -7  -3  219.30   24.86   1
  -9  -7   3  163.60   15.74   1
  -9  -7   3  160.10   16.52   1
   9   7  -3  140.50   14.03   1
   9   7  -3  137.90   16.14   1
  -9   7   3  159.20   19.97   1
  -9   7   3  154.00   15.19   1
   9  -7  -2  123.00   17.13   1
  -9  -7   2  107.90   11.77   1
  -9  -7   2   97.16   9.577   1
   9   7  -2   86.48   11.56   1
   9   7  -2   95.43   9.989   1
  -9   7   2   86.69   14.75   1
   9  -7  -1   8.412   3.707   1
   9  -7  -1   11.10    9.66   1
  -9  -7   1   1.002   4.535   1
  -9  -7   1   5.704   1.856   1
   9   7  -1   4.134   6.195   1
   9   7  -1   2.979   3.139   1
  -9   7   1   6.701   2.973   1
  -9   7   1   10.43   10.48   1
   9  -7   0  303.70   29.42   1
   9  -7   0  351.00   36.47   1
  -9  -7   0  335.30   32.70   1
  -9  -7   0  282.90   26.89   1
   9   7   0  304.50   30.70   1
   9   7   0  285.00   27.59   1
  -9   7   0  364.20   37.82   1
  -9   7   0  256.10   24.74   1
   9  -7   1  368.20   37.92   1
   9  -7   1  333.30   32.38   1
  -9  -7  -1  361.00   34.19   1
  -9  -7  -1  435.40   42.13   1
   9   7   1  365.20   35.21   1
   9   7   1  339.30   33.92   1
  -9   7  -1  311.00   30.03   1
  -9   7  -1  401.90   41.13   1
   9  -7   2  121.00   12.95   1
  -9  -7  -2  137.40   15.64   1
  -9  -7  -2  106.20   10.50   1
   9   7   2  124.60   13.41   1
   9   7   2  111.30   13.66   1
  -9   7  -2  100.80   10.55   1
   9  -7   3  -4.374   8.088   1
   9  -7   3 -0.2623   4.057   1
  -9  -7  -3   3.848   6.435   1
   9   7   3  -4.889   5.462   1
  -9   7  -3   10.06   11.17   1
  -9   7  -3  0.6308   3.174   1
   9  -7   4  161.50   19.93   1
   9  -7   4  175.50   18.02   1
  -9  -7  -4  200.10   19.27   1
   9   7   4  160.60   18.81   1
  -9   7  -4  192.40   19.15   1
  -9   7  -4  161.30   22.05   1
   9  -7   5  373.70   38.93   1
   9  -7   5  465.20   44.92   1
  -9  -7  -5  387.40   38.61   1
  -9  -7  -5  431.40   40.96   1
   9   7   5  381.10   37.67   1
   9   7   5  445.20   44.58   1
  -9   7  -5  401.30   38.58   1
  -9   7  -5  345.60   39.27   1
   9  -7   6  157.60   20.87   1
   9  -7   6  197.80   20.53   1
  -9  -7  -6  180.60   17.68   1
  -9  -7  -6  140.90   18.24   1
   9   7   6  169.00   20.35   1
   9   7   6  172.60   21.07   1
  -9   7  -6  165.30   17.05   1
  -9   7  -6  158.50   23.28   1
  -9  -7  -7   14.67   9.594   1
   9   7   7   20.02   10.85   1
  -9  -8  10  -3.773    8.09   1
   9   8 -10    9.18   16.70   1
   9   8 -10   1.358    3.81   1
   9  -8  -9  -7.981    8.09   1
   9  -8  -9   17.39   14.54   1
  -9  -8   9   3.218   6.708   1
  -9  -8   9 -0.2428   2.118   1
   9   8  -9   3.047   3.607   1
   9   8  -9  -13.63   16.00   1
  -9   8   9  -7.684   24.59   1
  -9   8   9  -1.665   2.519   1
   9  -8  -8   3.982   10.95   1
  -9  -8   8  0.2226   1.891   1
  -9  -8   8 -0.5595    5.86   1
   9   8  -8   2.752    3.04   1
   9   8  -8  -4.026   13.55   1
  -9   8   8   15.55   16.64   1
  -9   8   8 -0.4716   2.234   1
   9  -8  -7  0.5139   5.005   1
  -9  -8   7  0.6866   1.852   1
  -9  -8   7  -3.271   5.634   1
   9   8  -7  -2.752   2.735   1
   9   8  -7   6.831   13.24   1
  -9   8   7   8.747   15.18   1
  -9   8   7  -0.257   2.248   1
   9  -8  -6   3.617   4.478   1
   9  -8  -6   8.842   9.389   1
  -9  -8   6   10.59   2.127   1
  -9  -8   6  -2.519   5.403   1
   9   8  -6  0.8431   12.07   1
  -9   8   6   11.81    3.11   1
   9  -8  -5   11.60    4.16   1
   9  -8  -5   10.69   9.776   1
  -9  -8   5   14.83   5.554   1
   9   8  -5   7.832   3.162   1
  -9   8   5  -14.08   12.27   1
  -9   8   5   11.34   3.132   1
   9  -8  -4   19.46   9.761   1
   9  -8  -4   8.458    4.09   1
  -9  -8   4   14.66   2.415   1
  -9  -8   4   9.738   4.877   1
   9   8  -4   15.20    3.42   1
   9   8  -4   15.25   9.029   1
  -9   8   4   12.76   3.299   1
  -9   8   4    7.30   11.46   1
   9  -8  -3   2.151    3.53   1
   9  -8  -3   1.585   8.789   1
  -9  -8   3   1.149   1.617   1
  -9  -8   3 -0.1763   4.418   1
   9   8  -3   2.382   2.813   1
   9   8  -3  -1.235   7.854   1
  -9   8   3 -0.1836   2.655   1
  -9   8   3  -3.952   10.17   1
   9  -8  -2   1.066    3.60   1
   9  -8  -2  -10.68   9.111   1
  -9  -8   2   4.366   4.239   1
  -9  -8   2 -0.2297   1.594   1
   9   8  -2  -3.714   7.204   1
   9   8  -2  0.3076    2.80   1
  -9   8   2  -16.51   10.73   1
  -9   8   2    1.94   2.852   1
   9  -8  -1   12.93   9.583   1
   9  -8  -1   1.201   3.726   1
  -9  -8   1   6.819    1.96   1
  -9  -8   1   5.149   4.559   1
   9   8  -1   5.324   7.195   1
   9   8  -1   4.153   3.108   1
  -9   8   1   7.702   10.94   1
  -9   8   1   2.929   2.983   1
   9  -8   0 -0.4129    9.25   1
   9  -8   0 -0.8677   3.665   1
  -9  -8   0  0.0632   1.705   1
  -9  -8   0  0.6688   4.594   1
   9   8   0   2.425   3.214   1
   9   8   0   7.735   6.883   1
  -9   8   0  -6.038   10.88   1
  -9   8   0  -2.318   2.885   1
   9  -8   1   4.533   8.823   1
   9  -8   1  -5.375   4.055   1
  -9  -8  -1   6.232   5.581   1
  -9  -8  -1  -1.202   1.969   1
  -9   8  -1   9.855   11.14   1
  -9   8  -1   1.132    3.07   1
   9  -8   2   6.008   8.358   1
   9  -8   2   2.474    4.19   1
  -9  -8  -2   1.394   6.134   1
   9   8   2  0.2737    4.11   1
  -9   8  -2   3.287   3.313   1
  -9   8  -2  -5.489   10.78   1
   9  -8   3  -7.967   8.611   1
   9  -8   3 0.01531   4.169   1
  -9  -8  -3   2.136   1.901   1
   9   8   3  0.2863   7.299   1
  -9   8  -3 -0.7339   3.387   1
  -9   8  -3 -0.8183   10.74   1
   9  -8   4   2.296   9.503   1
  -9  -8  -4    4.01   2.158   1
  -9  -8  -4   1.233   6.863   1
   9   8   4  0.4778   7.995   1
   9   8   4  -4.454   5.926   1
   9  -8   5  -8.271   10.69   1
   9  -8   5   3.397    5.25   1
  -9  -8  -5   7.858    2.79   1
  -9  -8  -5   2.155   7.556   1
   9   8   5  -0.573   6.829   1
   9   8   5   17.85   9.727   1
  -9   8  -5   27.65   14.82   1
  -9   8  -5   6.925   3.833   1
   9  -8   6 -0.3463   11.29   1
   9  -8   6  -2.705   5.621   1
  -9  -8  -6   1.235   9.107   1
  -9  -8  -6   1.456   2.716   1
   9   8   6   10.15   8.462   1
   9   8   6   6.826   10.96   1
  -9   8  -6   5.768   1.561   1
  -9  -8  -7  -5.844   9.626   1
  -9  -8  -7   -1.05   3.418   1
   9   8   7  -10.42   13.24   1
   9   8   7   2.419    9.99   1
  -9  -9  10   60.52   11.56   1
  -9  -9  10   49.77   6.208   1
   9   9 -10   81.11   20.66   1
   9   9 -10   65.48   8.614   1
   9  -9  -9   97.09   20.18   1
   9  -9  -9  113.30   15.74   1
  -9  -9   9  109.60   14.05   1
   9   9  -9  122.30   12.94   1
   9   9  -9   92.01   22.47   1
  -9   9   9  129.30   12.91   1
   9  -9  -8   41.40   13.58   1
  -9  -9   8   49.73   8.932   1
  -9  -9   8   55.66    6.07   1
   9   9  -8   57.94   6.904   1
   9   9  -8   50.76   19.08   1
  -9   9   8   51.92   20.25   1
   9  -9  -7   1.799   10.68   1
   9  -9  -7   1.856   5.175   1
  -9  -9   7   3.479   5.745   1
  -9  -9   7  -2.913   1.823   1
   9   9  -7  -13.45   14.36   1
   9   9  -7  -2.134   2.797   1
  -9   9   7 -0.6634    2.46   1
   9  -9  -6  177.40   18.25   1
   9  -9  -6  132.30   17.74   1
  -9  -9   6  189.80   19.69   1
  -9  -9   6  176.10   16.95   1
   9   9  -6  178.90   17.61   1
   9   9  -6  184.90   25.29   1
  -9   9   6  177.30   23.27   1
  -9   9   6  202.80   19.76   1
   9  -9  -5  327.90   34.05   1
   9  -9  -5  340.50   33.03   1
  -9  -9   5  308.30   29.27   1
   9   9  -5  354.50   38.95   1
  -9   9   5  328.20   31.43   1
  -9   9   5  337.50   36.19   1
   9  -9  -4  251.40   24.72   1
   9  -9  -4  218.60   24.39   1
  -9  -9   4  230.30   21.98   1
  -9  -9   4  178.50   18.61   1
   9   9  -4  200.30   19.64   1
   9   9  -4  225.80   26.18   1
  -9   9   4  205.60   20.01   1
  -9   9   4  217.10   25.28   1
   9  -9  -3  107.10   11.56   1
   9  -9  -3  120.20   16.53   1
  -9  -9   3  120.80   13.15   1
   9   9  -3  110.30   11.26   1
  -9   9   3   96.91   10.02   1
  -9   9   3  126.00   18.32   1
   9  -9  -2   19.34   4.647   1
   9  -9  -2   16.75   9.283   1
  -9  -9   2   20.48   5.349   1
   9   9  -2   15.83   3.345   1
  -9   9   2   17.70   11.18   1
  -9   9   2   20.08   3.779   1
   9  -9  -1  426.60   43.19   1
   9  -9  -1  406.10   39.02   1
  -9  -9   1  413.60   39.89   1
   9   9  -1  361.70   34.57   1
  -9   9   1  341.60   32.72   1
  -9   9   1  399.20   41.27   1
   9  -9   0  182.10   18.42   1
   9  -9   0  162.00   19.74   1
  -9  -9   0  184.60   19.01   1
   9   9   0  155.40   15.52   1
  -9   9   0  142.90   14.48   1
  -9   9   0  190.20   23.25   1
   9  -9   1  207.40   23.37   1
   9  -9   1  228.40   22.66   1
  -9  -9  -1  218.00   22.15   1
  -9  -9  -1  210.70   20.20   1
   9   9   1  193.80   19.18   1
   9   9   1  183.20   20.55   1
  -9   9  -1  196.80   23.92   1
  -9   9  -1  195.60   19.30   1
   9  -9   2   91.93   10.47   1
   9  -9   2   55.07   11.23   1
  -9  -9  -2   77.79    7.88   1
   9   9   2   67.25   11.63   1
  -9   9  -2   70.07   8.198   1
  -9   9  -2   75.82   13.86   1
   9  -9   3   6.743   9.596   1
   9  -9   3   1.224   4.173   1
  -9  -9  -3    8.16   6.512   1
  -9  -9  -3   1.534   1.971   1
   9   9   3   6.816   8.653   1
   9   9   3   0.674    5.53   1
  -9   9  -3  -10.74   11.76   1
  -9   9  -3   6.006   3.845   1
  -9  -9  -4  165.30   18.64   1
  -9  -9  -4  154.80   15.17   1
   9   9   4  148.00   16.25   1
   9   9   4  119.40   16.20   1
   9  -9   5  210.40   25.23   1
  -9  -9  -5  174.40   19.80   1
   9   9   5  183.60   19.94   1
   9   9   5  216.30   25.09   1
  -9   9  -5  198.30   25.92   1
  -9   9  -5  242.30   23.93   1
  -9  -9  -6   84.29   12.57   1
   9   9   6   74.99   17.27   1
   9   9   6  109.00   14.61   1
  -9  -9  -7   7.185   4.956   1
  -9 -10  10   2.455   3.348   1
  -9 -10  10  -3.826   7.952   1
   9  10 -10   12.29   14.56   1
   9  10 -10  -3.722   4.687   1
  -9 -10   9   1.644   2.242   1
  -9 -10   9  -0.947    8.25   1
   9  10  -9   1.359   3.877   1
   9  10  -9  -1.122   15.44   1
   9 -10  -8  0.7392   7.076   1
  -9 -10   8  0.2406   6.278   1
  -9 -10   8   1.336   2.153   1
   9  10  -8   1.472    3.28   1
   9  10  -8  -23.60   14.39   1
  -9  10   8-0.05451   1.729   1
  -9  10   8  -3.964   2.685   1
   9 -10  -7  -12.49   10.04   1
   9 -10  -7   1.067   5.373   1
  -9 -10   7   2.396   5.461   1
  -9 -10   7 -0.1081   1.779   1
   9  10  -7  -8.081   14.74   1
   9  10  -7   3.532   2.744   1
  -9  10   7   7.844   15.91   1
  -9  10   7    3.00   2.982   1
   9 -10  -6   10.50   10.19   1
   9 -10  -6   5.913   4.563   1
  -9 -10   6  -6.099   5.479   1
  -9 -10   6   1.586   1.788   1
   9  10  -6   3.459   2.869   1
   9  10  -6  -16.94   13.29   1
  -9  10   6  -20.60   15.02   1
  -9  10   6   1.039   2.965   1
   9 -10  -5   1.215   4.111   1
   9 -10  -5   1.514   8.236   1
   9  10  -5   2.879   3.038   1
  -9  10   5    7.77   12.37   1
  -9  10   5  -1.237    2.86   1
   9 -10  -4 -0.2027   8.405   1
   9 -10  -4   3.539   3.945   1
  -9 -10   4   1.109   1.605   1
  -9 -10   4  0.8202   4.804   1
   9  10  -4  -10.59   11.68   1
   9  10  -4  0.4619   2.909   1
  -9  10   4   9.308   12.22   1
  -9  10   4  0.1069    2.76   1
   9 -10  -3   1.327   4.012   1
   9 -10  -3   -3.49   8.816   1
  -9 -10   3   6.295   4.955   1
  -9 -10   3   2.894   1.778   1
   9  10  -3  -1.029   10.41   1
   9  10  -3   6.947   2.906   1
  -9  10   3   4.147   2.884   1
  -9  10   3  -1.073   11.63   1
   9 -10  -2 -0.1939   8.706   1
   9 -10  -2   1.703   4.005   1
  -9 -10   2   2.423   1.699   1
   9  10  -2   19.44   10.06   1
  -9  10   2  -1.569   3.001   1
  -9  10   2   1.729   11.74   1
   9 -10  -1   4.688   8.953   1
   9 -10  -1   3.765   4.215   1
  -9 -10   1   2.609   1.796   1
   9  10  -1   12.19   9.517   1
  -9  10   1   4.243   3.451   1
  -9  10   1  -14.94   11.69   1
   9 -10   0   5.509   4.213   1
   9 -10   0  -5.595   8.549   1
  -9 -10   0   1.885   5.367   1
  -9 -10   0   3.786   1.813   1
   9  10   0  -6.028   8.454   1
  -9  10   0  -1.943   3.521   1
  -9  10   0   17.06   11.43   1
   9 -10   1   3.599   8.495   1
   9 -10   1   -1.33    4.65   1
  -9 -10  -1   5.106   1.922   1
  -9 -10  -1   2.074   5.207   1
   9  10   1   4.742   8.898   1
   9  10   1    4.35   3.642   1
  -9  10  -1   15.06   12.10   1
  -9  10  -1   10.59   3.919   1
   9 -10   2    8.03   4.949   1
   9 -10   2   13.74   9.913   1
  -9 -10  -2   2.396   1.957   1
  -9 -10  -2  -1.701   5.568   1
   9  10   2   5.574   4.238   1
   9  10   2  -7.054   9.028   1
  -9  10  -2  -1.299   11.72   1
  -9  10  -2   8.696    3.97   1
   9 -10   3  -3.817   4.817   1
   9 -10   3  -8.701   9.188   1
  -9 -10  -3   7.374   6.606   1
  -9 -10  -3   3.308   2.061   1
   9  10   3  -0.199   9.634   1
   9  10   3  -3.251   4.714   1
  -9  10  -3  -10.37   12.39   1
  -9  10  -3   1.744   4.178   1
   9 -10   4   7.148   5.294   1
   9 -10   4   1.248   10.98   1
  -9 -10  -4   3.409   7.363   1
  -9 -10  -4   7.878   2.545   1
   9  10   4  -1.886   6.191   1
   9  10   4   14.62   10.83   1
  -9  10  -4   7.634   4.429   1
  -9  10  -4   10.81   13.82   1
   9 -10   5   18.04   11.87   1
  -9 -10  -5   4.375   8.749   1
  -9 -10  -5  -1.527   2.492   1
   9  10   5    5.82   7.533   1
   9  10   5   7.885   11.92   1
  -9  10  -5 -0.2856   1.341   1
  -9 -10  -6  -1.364   2.898   1
   9  10   6 -0.9496   13.42   1
   9  10   6   14.75   8.391   1
  -9 -11   9   98.93   14.28   1
  -9 -11   9  107.10   10.84   1
   9  11  -9  136.30   14.33   1
   9 -11  -8  106.50   14.24   1
   9 -11  -8   79.26   19.34   1
  -9 -11   8   73.60   7.675   1
  -9 -11   8   75.53   11.07   1
   9  11  -8   85.50    9.43   1
   9  11  -8  107.20   22.30   1
  -9  11   8   89.09    9.50   1
   9 -11  -7   2.613   12.15   1
   9 -11  -7   16.48   6.524   1
  -9 -11   7   10.60   2.339   1
  -9 -11   7  -2.536    6.28   1
   9  11  -7   17.54   15.20   1
  -9  11   7   14.47   4.252   1
  -9  11   7   2.799   1.768   1
   9 -11  -6   7.656   9.647   1
   9 -11  -6   25.63   5.683   1
  -9 -11   6   25.14   3.339   1
  -9 -11   6   20.24   6.817   1
   9  11  -6   9.822   14.77   1
   9  11  -6   25.47   4.247   1
  -9  11   6   28.18   4.597   1
  -9  11   6   27.53   15.25   1
   9 -11  -5  119.80   13.02   1
   9 -11  -5   93.46   14.69   1
  -9 -11   5  131.00   12.81   1
  -9 -11   5  129.30   14.65   1
   9  11  -5  138.60   13.93   1
   9  11  -5  114.40   19.66   1
  -9  11   5  120.80   12.27   1
  -9  11   5  113.60   19.41   1
   9 -11  -4  295.20   31.27   1
   9 -11  -4  311.90   30.36   1
  -9 -11   4  311.20   30.64   1
  -9 -11   4  323.10   30.66   1
   9  11  -4  344.30   32.99   1
   9  11  -4  372.60   41.46   1
  -9  11   4  292.60   28.17   1
  -9  11   4  285.10   32.03   1
   9 -11  -3  168.20   19.90   1
  -9 -11   3  178.20   18.44   1
  -9 -11   3  200.20   19.19   1
   9  11  -3  216.70   26.80   1
   9  11  -3  204.90   20.03   1
  -9  11   3  216.50   25.92   1
   9 -11  -2   5.594   4.353   1
   9 -11  -2  -1.352   9.442   1
  -9 -11   2 -0.2077   4.669   1
  -9 -11   2   1.829   1.762   1
   9  11  -2  -11.37   11.33   1
   9  11  -2  -2.607   3.005   1
  -9  11   2  -15.09   12.60   1
  -9  11   2 -0.3446   3.245   1
   9 -11  -1  101.10   11.36   1
  -9 -11   1  118.00   11.56   1
  -9 -11   1   97.07   11.21   1
   9  11  -1  106.30   11.02   1
   9  11  -1   89.11   15.79   1
  -9  11   1   80.48   15.47   1
  -9  11   1  109.40   11.60   1
   9 -11   0  527.20   52.40   1
   9 -11   0  644.60   61.40   1
  -9 -11   0  583.90   55.08   1
  -9 -11   0  617.50   58.95   1
   9  11   0  545.20   51.78   1
   9  11   0  557.00   56.10   1
  -9  11   0  543.20   51.76   1
  -9  11   0  568.30   56.89   1
   9 -11   1  331.70   34.76   1
   9 -11   1  398.80   38.60   1
  -9 -11  -1  385.80   36.56   1
  -9 -11  -1  403.60   39.12   1
   9  11   1  367.60   38.85   1
   9  11   1  336.80   32.45   1
  -9  11  -1  356.30   34.37   1
  -9  11  -1  344.90   36.96   1
   9 -11   2  115.20   16.25   1
  -9 -11  -2  102.70   12.06   1
  -9 -11  -2  113.20   11.25   1
   9  11   2   81.98   14.91   1
   9  11   2  105.50   11.41   1
  -9  11  -2  132.10   19.45   1
   9 -11   3   2.734   4.978   1
   9 -11   3   6.621   10.12   1
  -9 -11  -3   5.468   6.532   1
  -9 -11  -3   6.072   2.273   1
   9  11   3  0.7441   11.30   1
   9  11   3   -1.93   4.572   1
  -9  11  -3  -3.087   12.07   1
  -9  11  -3   6.027   4.293   1
   9 -11   4   70.86   9.544   1
   9 -11   4   56.93   12.76   1
  -9 -11  -4   64.38   7.063   1
  -9 -11  -4   46.52   9.792   1
   9  11   4   61.59   9.415   1
   9  11   4   52.21   15.15   1
  -9  11  -4   54.19   7.513   1
  -9  11  -4   95.94   9.407   1
  -9 -11  -5  168.40   20.55   1
  -9 -11  -5  218.70   21.32   1
   9  11   5  179.50   19.93   1
   9  11   5  144.20   24.60   1
  -9 -11  -6   70.05   7.806   1
  -9 -11  -6   60.19   10.98   1
   9  11   6   51.71   10.80   1
   9  11   6   76.49   22.62   1
   9 -12  -8  -1.811   17.29   1
   9 -12  -8   4.609   8.903   1
  -9 -12   8   2.518   2.241   1
  -9 -12   8  -1.341   7.561   1
   9  12  -8   -8.65   15.09   1
   9  12  -8   5.702   3.795   1
  -9  12   8   1.084   3.861   1
  -9  12   8  0.9102    1.88   1
   9 -12  -7   2.175   13.22   1
   9 -12  -7   -1.05   6.594   1
  -9 -12   7  -4.557   6.181   1
  -9 -12   7   1.674   1.907   1
   9  12  -7  -32.71   16.07   1
   9  12  -7   1.136   3.116   1
  -9  12   7   1.196   1.752   1
  -9  12   7   1.897   4.242   1
   9 -12  -6  -12.26   9.944   1
   9 -12  -6   4.931   4.618   1
  -9 -12   6   1.692   1.853   1
   9  12  -6   4.067   3.377   1
   9  12  -6  -2.689   14.29   1
  -9  12   6-0.07398   1.593   1
  -9  12   6   5.222   3.306   1
   9 -12  -5   6.726   10.30   1
   9 -12  -5  -6.086    4.79   1
  -9 -12   5   19.30   6.155   1
   9  12  -5   2.761   3.019   1
  -9  12   5   19.13   14.18   1
  -9  12   5  -2.519   3.049   1
   9 -12  -4   2.378   4.593   1
   9 -12  -4 -0.3591   9.793   1
  -9 -12   4   1.479    1.68   1
  -9 -12   4   3.509   5.199   1
   9  12  -4   6.344   13.64   1
   9  12  -4   2.473   2.912   1
  -9  12   4  -12.50   13.50   1
   9 -12  -3 -0.8991   4.321   1
  -9 -12   3  0.1605   1.693   1
  -9 -12   3  -1.964   4.862   1
   9  12  -3  -2.852   12.71   1
   9  12  -3  -3.956   2.982   1
  -9  12   3 -0.7383   3.201   1
   9 -12  -2   8.307   4.713   1
   9 -12  -2   10.04   8.623   1
  -9 -12   2   1.246   4.942   1
  -9 -12   2   2.736   1.848   1
   9  12  -2   2.575   2.896   1
   9  12  -2   9.251   12.34   1
  -9  12   2 -0.1916   3.407   1
  -9  12   2  0.7756   12.71   1
   9 -12  -1   17.30   9.769   1
   9 -12  -1  -2.214   4.661   1
  -9 -12   1   1.122   1.839   1
  -9 -12   1  -5.467   4.904   1
   9  12  -1 -0.4124   3.116   1
   9  12  -1   4.069   11.84   1
  -9  12   1   -1.75   3.879   1
  -9  12   1  -13.35   12.41   1
   9 -12   0   -1.28    4.81   1
   9 -12   0  -1.294   10.53   1
  -9 -12   0   3.546   5.465   1
   9  12   0  0.4113   3.272   1
   9  12   0   3.008   12.41   1
  -9  12   0   1.809   4.017   1
  -9  12   0   11.15   12.95   1
   9 -12   1   7.447   10.28   1
  -9 -12  -1   -1.29   5.063   1
  -9 -12  -1  0.7244   1.817   1
   9  12   1   9.306   12.70   1
   9  12   1   1.815   3.367   1
  -9  12  -1   9.172   12.42   1
   9 -12   2  -1.129   5.064   1
   9 -12   2  -13.90   9.455   1
  -9 -12  -2  0.1518   2.175   1
  -9 -12  -2  0.6448   5.534   1
   9  12   2   2.722   12.82   1
   9  12   2   4.958   3.631   1
  -9  12  -2  -7.446   4.246   1
  -9  12  -2   5.439   1.488   1
   9 -12   3   9.589   10.07   1
   9 -12   3   3.527   5.519   1
  -9 -12  -3   6.373   6.364   1
   9  12   3   4.534   4.883   1
   9  12   3   11.03   15.36   1
  -9  12  -3   3.774   4.554   1
  -9  12  -3    5.59   1.519   1
   9 -12   4  -5.605   11.82   1
  -9 -12  -4  0.5327   2.415   1
   9  12   4   5.211    6.58   1
   9  12   4  -12.75   15.83   1
  -9 -12  -5  -1.594   8.671   1
  -9 -12  -5   0.852   2.836   1
   9  12   5 -0.8546   16.82   1
   9  12   5   1.079    7.38   1
  -9 -12  -6    6.88   5.571   1
  -9 -12  -6   3.162   3.964   1
   9  12   6    3.82   9.312   1
   9  12   6 -0.3796   5.421   1
   9 -13  -7 -0.1966   13.60   1
   9 -13  -7   6.862   7.226   1
  -9 -13   7   1.749   2.205   1
  -9 -13   7  -2.092   6.803   1
   9  13  -7   4.887   3.327   1
  -9  13   7   4.637   1.947   1
  -9  13   7   9.018   4.789   1
   9 -13  -6   31.30   13.06   1
  -9 -13   6   31.12   7.981   1
  -9 -13   6   26.31   3.487   1
   9  13  -6   33.45   4.951   1
   9  13  -6   26.25   15.62   1
  -9  13   6   38.13   4.316   1
   9 -13  -5  212.50   21.64   1
  -9 -13   5  214.10   20.50   1
  -9 -13   5  199.80   20.93   1
   9  13  -5  242.70   23.58   1
   9  13  -5  217.60   28.80   1
  -9  13   5  187.90   18.60   1
  -9  13   5  191.50   18.43   1
   9 -13  -4  163.00   17.08   1
   9 -13  -4   95.07   15.04   1
  -9 -13   4  132.40   12.93   1
   9  13  -4  112.60   20.50   1
  -9  13   4  103.40   10.17   1
  -9  13   4  121.20   12.61   1
   9 -13  -3   24.44   9.823   1
   9 -13  -3   30.42   6.034   1
  -9 -13   3   20.75   3.042   1
  -9 -13   3   20.81   5.926   1
   9  13  -3   25.72   4.244   1
   9  13  -3   15.62   15.15   1
  -9  13   3   25.72   4.668   1
  -9  13   3   17.47   2.406   1
   9 -13  -2   2.153   10.06   1
   9 -13  -2   11.17   5.423   1
  -9 -13   2  -3.026   4.888   1
   9  13  -2   4.088    3.04   1
  -9  13   2   3.636   13.34   1
  -9  13   2   -0.85   3.871   1
  -9  13   2    4.33   1.458   1
   9 -13  -1  229.30   26.61   1
   9 -13  -1  312.30   30.70   1
  -9 -13   1  264.10   26.31   1
   9  13  -1  241.40   23.43   1
  -9  13   1  274.30   26.86   1
  -9  13   1  286.10   27.15   1
   9 -13   0  211.70   24.38   1
  -9 -13   0  241.70   24.34   1
   9  13   0  248.70   24.22   1
  -9  13   0  269.30   25.58   1
   9 -13   1  289.90   31.55   1
   9 -13   1  419.30   40.75   1
  -9 -13  -1  387.10   37.71   1
   9  13   1  336.80   32.42   1
  -9  13  -1  364.30   35.22   1
  -9  13  -1  364.90   34.50   1
   9 -13   2   13.19   10.84   1
   9 -13   2   53.94   8.245   1
  -9 -13  -2   37.31    7.65   1
  -9 -13  -2   43.70   5.124   1
   9  13   2   33.69   5.395   1
   9  13   2   64.36   18.10   1
  -9  13  -2   48.65   7.384   1
  -9  13  -2   43.56    4.58   1
   9 -13   3  -5.362   10.42   1
  -9 -13  -3   6.013    7.38   1
  -9 -13  -3  0.9907   2.292   1
   9  13   3  -18.74   16.50   1
  -9  13  -3  0.8989   1.455   1
  -9 -13  -4   59.15   11.38   1
  -9 -13  -4   44.52   5.487   1
   9  13   4   57.39   17.81   1
   9  13   4   30.86   7.793   1
  -9 -13  -5   70.05   12.54   1
  -9 -13  -5   65.94   7.486   1
   9  13   5   62.52   10.05   1
   9  13   5   75.10   19.91   1
   9 -14  -7   1.743   7.813   1
   9 -14  -7  -10.69   14.19   1
  -9  14   7   2.083   2.037   1
   9 -14  -6   -1.40   6.495   1
   9 -14  -6  -2.812   12.19   1
  -9 -14   6  -5.343    6.53   1
   9  14  -6   3.142   3.299   1
  -9  14   6    2.89   4.238   1
   9 -14  -5   4.426   5.201   1
   9 -14  -5  -2.705   11.00   1
  -9 -14   5   2.961   6.049   1
  -9 -14   5    2.93   1.884   1
   9  14  -5  -7.697   13.95   1
   9  14  -5 0.05828   3.068   1
  -9  14   5    1.80    1.65   1
  -9  14   5   1.784   3.519   1
   9 -14  -4  -11.59   10.02   1
   9 -14  -4  -3.274   5.368   1
  -9 -14   4   1.681   5.632   1
  -9 -14   4 -0.2762   1.721   1
   9  14  -4   4.214   3.143   1
   9  14  -4   10.13   14.76   1
  -9  14   4   8.141   3.779   1
  -9  14   4  0.6323   1.466   1
   9 -14  -3    3.89   9.884   1
   9 -14  -3  -2.457   5.508   1
  -9 -14   3   1.438   1.827   1
  -9 -14   3   2.281   5.341   1
   9  14  -3  -18.13   14.22   1
   9  14  -3 -0.3242   2.964   1
  -9  14   3    0.56   1.408   1
  -9  14   3 -0.8639   3.848   1
   9 -14  -2   -2.60   5.745   1
   9 -14  -2   6.308   9.463   1
  -9 -14   2  -1.016   5.318   1
  -9 -14   2   3.398   1.904   1
   9  14  -2   3.253   3.125   1
   9  14  -2   11.54   14.88   1
  -9  14   2   2.537   4.204   1
  -9  14   2   4.171   1.452   1
   9 -14  -1   5.084   5.326   1
   9 -14  -1-0.05878   10.14   1
  -9 -14   1  -1.166   5.609   1
  -9 -14   1   3.091   1.944   1
   9  14  -1  0.9593   14.16   1
   9  14  -1  -1.104   3.139   1
  -9  14   1   1.803   1.429   1
  -9  14   1-0.02979   4.481   1
   9 -14   0  -1.703   5.635   1
  -9 -14   0   5.419   5.573   1
  -9 -14   0    3.00   1.923   1
   9  14   0  -11.15   14.53   1
   9  14   0   4.136   3.631   1
  -9  14   0  0.6578    1.45   1
  -9  14   0    6.56   4.778   1
   9 -14   1  -6.203   5.651   1
   9 -14   1   3.923   11.22   1
  -9 -14  -1 -0.5594   1.985   1
  -9 -14  -1   2.858   5.628   1
   9  14   1   1.876   3.598   1
   9  14   1   19.41   15.08   1
  -9  14  -1   3.241   4.546   1
  -9  14  -1   1.213   1.429   1
   9 -14   2   3.424   10.73   1
  -9 -14  -2   1.318   2.137   1
  -9 -14  -2  -4.775   5.627   1
   9  14   2   2.298   16.70   1
   9  14   2    1.39   4.183   1
  -9  14  -2   1.079   1.464   1
  -9 -14  -3  -0.567   2.277   1
  -9 -14  -3   11.11    7.65   1
   9  14   3   -2.84   16.03   1
   9  14   3 -0.1967   4.866   1
  -9 -14  -4   4.243   2.631   1
  -9 -14  -4  -10.55   8.427   1
   9  14   4   15.64   6.841   1
   9  14   4   14.32   16.65   1
  -9 -14  -5  -2.705   4.158   1
   9  14   5   5.093   5.255   1
   9 -15  -6   13.26   8.197   1
   9 -15  -6   23.05   13.67   1
  -9  15   6   22.74   5.782   1
  -9  15   6   22.79   3.199   1
   9 -15  -5   32.63   14.34   1
   9 -15  -5   39.29   7.799   1
  -9  15   5   47.35   6.686   1
  -9  15   5   59.47   6.224   1
   9 -15  -4   66.49   14.63   1
  -9 -15   4   75.01   10.23   1
   9  15  -4   80.78   8.894   1
   9 -15  -3   75.48   14.86   1
   9 -15  -3   69.40   10.24   1
  -9 -15   3   78.35   10.33   1
  -9 -15   3   73.97   7.611   1
   9  15  -3   77.86   8.591   1
   9  15  -3   70.88   18.16   1
  -9  15   3   83.79   8.356   1
   9 -15  -2  -7.401   10.80   1
   9 -15  -2  0.4464   5.875   1
  -9 -15   2   2.607   5.769   1
  -9 -15   2-0.07149   1.844   1
   9  15  -2   3.519   14.22   1
   9  15  -2  -3.676   3.129   1
  -9  15   2  -1.742   4.417   1
   9 -15  -1  165.30   17.77   1
   9 -15  -1  145.30   19.99   1
  -9 -15   1  151.40   16.61   1
  -9 -15   1  166.50   16.32   1
  -9  15   1  228.10   21.75   1
  -9  15   1  186.30   19.04   1
   9 -15   0  237.60   28.07   1
   9 -15   0  302.90   30.16   1
  -9 -15   0  247.70   23.72   1
  -9 -15   0  275.00   27.65   1
   9  15   0  267.00   26.04   1
   9  15   0  237.90   31.33   1
  -9  15   0  291.60   27.70   1
  -9  15   0  275.70   27.34   1
   9 -15   1   36.86   13.85   1
  -9 -15  -1   24.67   3.538   1
  -9 -15  -1   20.13   6.514   1
   9  15   1   20.69   4.573   1
   9  15   1   38.06   19.80   1
  -9  15  -1   31.52   3.625   1
  -9 -15  -2   5.467   6.209   1
  -9 -15  -2   2.486   2.386   1
   9  15   2   18.45   17.31   1
   9  15   2   5.033   4.358   1
  -9 -15  -3  -14.12   7.683   1
   9  15   3  -6.157   5.395   1
   9 -16  -6   3.444   13.69   1
  -9  16   6 -0.9645   6.163   1
  -9  16   6  -1.592   2.383   1
   9 -16  -5   11.07   7.563   1
   9 -16  -5   1.878   13.31   1
  -9  16   5   7.646   1.971   1
  -9  16   5   1.126    4.90   1
   9 -16  -4   14.00   13.62   1
   9 -16  -4   2.063   6.821   1
  -9  16   4   4.161   4.376   1
   9 -16  -3  -1.749   6.509   1
   9 -16  -3  -2.832   11.54   1
  -9  16   3  0.7897   4.677   1
  -9  16   3   2.727   1.606   1
   9 -16  -2   1.111   11.72   1
   9 -16  -2   4.958   6.541   1
  -9  16   2   2.493    1.58   1
  -9  16   2   6.541   4.934   1
   9 -16  -1  -1.851   7.091   1
   9 -16  -1   7.107   11.36   1
  -9 -16   1   4.974   6.551   1
   9  16  -1  0.2886   3.681   1
  -9  16   1 -0.4775   5.297   1
  -9  16   1   2.014   1.562   1
  -9 -16   0   3.798   6.429   1
   9  16   0   3.325    3.91   1
   9  16   1   1.175   4.688   1
   9 -17  -5  140.00   22.69   1
   9 -17  -5  141.00   16.75   1
  -9  17   5  187.50   20.59   1
  -9  17   5  166.70   16.29   1
   9 -17  -4  150.60   17.73   1
   9 -17  -4  143.30   22.10   1
  -9  17   4  145.20   15.87   1
  -9  17   4  174.20   16.93   1
   9 -17  -3   13.52   12.89   1
  -9  17   3   21.51   3.016   1
  -9  17   3   14.60   5.958   1
  -9  17   2   1.081   1.675   1
  -9  18   5   9.352   3.767   1
  10   0 -10   30.61   16.01   1
  10   0 -10   26.08   10.09   1
 -10   0  10   15.50   14.51   1
 -10   0  10   34.42   4.918   1
  10   0  -9   72.75   11.04   1
  10   0  -9   80.46   17.16   1
 -10   0   9  104.00   10.52   1
  10   0  -8   41.54   10.35   1
 -10   0   8   57.60    6.11   1
 -10   0   8   37.78   10.61   1
  10   0  -7   41.42   8.009   1
  10   0  -7   53.69   9.516   1
 -10   0   7   53.74   5.649   1
 -10   0   7   50.85   10.66   1
  10   0  -6   71.79   10.44   1
  10   0  -6   69.58   9.676   1
 -10   0   6   83.27   8.327   1
 -10   0   6   51.25   10.13   1
  10   0  -5  310.80   30.79   1
  10   0  -5  337.50   33.63   1
 -10   0   5  315.30   31.84   1
 -10   0   5  271.70   25.83   1
  10   0  -4  544.30   52.69   1
  10   0  -4  459.20   44.45   1
 -10   0   4  429.10   40.55   1
 -10   0   4  560.10   54.25   1
  10   0  -3  362.20   35.49   1
  10   0  -3  387.40   37.98   1
 -10   0   3  357.30   33.87   1
 -10   0   3  361.90   35.85   1
  10   0  -2   46.82   7.387   1
  10   0  -2   31.32   6.756   1
 -10   0   2   43.11   8.558   1
 -10   0   2   36.42   4.358   1
  10   0  -1  119.00   13.33   1
  10   0  -1  123.30   13.92   1
 -10   0   1  136.50   13.42   1
 -10   0   1   98.65   12.64   1
  10   0   0  306.70   30.47   1
 -10   0   0  299.40   30.02   1
  10   0   1  306.00   30.82   1
  10   0   1  308.00   30.54   1
 -10   0  -1  310.00   31.37   1
 -10   0  -1  356.10   33.97   1
  10   0   2   15.51   7.516   1
  10   0   2   15.56   5.786   1
 -10   0  -2   10.08   3.109   1
 -10   0  -2   14.51   8.503   1
  10   0   3   3.861   5.504   1
  10   0   3  -4.232   8.924   1
 -10   0  -3   6.992   9.679   1
 -10   0  -3   8.465   3.085   1
  10   0   4   47.07   10.95   1
  10   0   4   22.45   6.868   1
 -10   0  -4   26.76   12.07   1
 -10   0  -4   32.43   5.075   1
  10   0   5  138.90   20.05   1
  10   0   5   89.78   12.31   1
 -10   0  -5  109.30   11.53   1
  10   0   6  106.00   15.36   1
 -10   0  -6   63.62   20.20   1
  10   0   7   16.51   6.037   1
  10  -1 -10  -13.99   11.32   1
  10  -1 -10  -22.78   14.82   1
 -10  -1  10   -6.67   12.45   1
  10   1 -10  -1.165   7.794   1
 -10   1  10  -5.757   15.69   1
 -10   1  10   -3.60    2.99   1
  10  -1  -9  -8.352   8.496   1
  10  -1  -9  -0.172   11.97   1
 -10  -1   9    6.82   9.998   1
 -10  -1   9  0.5261   2.221   1
  10   1  -9   5.015   6.621   1
 -10   1   9   6.464   11.62   1
 -10   1   9  0.6742   2.311   1
  10  -1  -8  -1.262   7.229   1
  10  -1  -8   7.426    6.98   1
  10   1  -8  0.7991   5.921   1
 -10   1   8  -3.861   9.655   1
 -10   1   8 0.03406   1.894   1
  10  -1  -7   4.636   6.069   1
  10  -1  -7   1.271    6.58   1
 -10  -1   7-0.01983   8.231   1
 -10  -1   7   1.325   1.636   1
  10   1  -7  -2.064   6.971   1
  10   1  -7   2.189   5.965   1
 -10   1   7  -3.573   8.146   1
 -10   1   7  -1.519   1.605   1
  10  -1  -6   11.16    6.34   1
  10  -1  -6   2.627   5.691   1
 -10  -1   6   6.985   7.692   1
 -10  -1   6   3.446   1.746   1
  10   1  -6   -2.45   5.461   1
  10   1  -6   1.384   6.415   1
 -10   1   6   4.606   1.762   1
 -10   1   6    8.35   7.547   1
  10  -1  -5   7.188   5.696   1
  10  -1  -5  -1.243   5.663   1
 -10  -1   5    6.99   7.381   1
 -10  -1   5   3.305   1.666   1
  10   1  -5   4.124   5.339   1
  10   1  -5  -2.978   5.861   1
 -10   1   5   3.095   7.151   1
 -10   1   5    3.11   1.782   1
  10  -1  -4   8.813   5.949   1
  10  -1  -4   9.773   5.755   1
 -10  -1   4  -1.586   6.895   1
 -10  -1   4   4.553    1.91   1
  10   1  -4   5.658   5.507   1
  10   1  -4   10.85   6.268   1
 -10   1   4   13.39   7.033   1
 -10   1   4   6.478    2.01   1
  10  -1  -3   2.653   5.858   1
  10  -1  -3  -1.625   5.097   1
 -10  -1   3 -0.2055   6.913   1
 -10  -1   3    1.51   1.723   1
  10   1  -3  -1.583   5.757   1
  10   1  -3    5.44   5.556   1
 -10   1   3  -1.386   2.032   1
 -10   1   3   1.689   7.597   1
  10  -1  -2   4.125   6.165   1
  10  -1  -2   3.545   4.773   1
 -10  -1   2   1.644   6.785   1
 -10  -1   2   1.916   1.917   1
  10   1  -2    1.87   5.321   1
  10   1  -2   8.232   5.571   1
 -10   1   2   4.535   6.956   1
 -10   1   2   5.352   2.242   1
  10  -1  -1   8.361    6.12   1
  10  -1  -1   4.097   4.483   1
 -10  -1   1   2.419   6.485   1
 -10  -1   1   9.415   2.376   1
  10   1  -1   8.967   5.496   1
  10   1  -1   9.295   5.627   1
 -10   1   1   12.48   2.907   1
 -10   1   1   11.31   7.197   1
  10  -1   0   11.72   6.345   1
 -10  -1   0  -3.511   6.536   1
  10   1   0   6.251   5.605   1
 -10   1   0  -3.405   7.097   1
  10  -1   1   22.05   5.724   1
  10  -1   1   36.54   8.652   1
 -10  -1  -1   23.12   7.783   1
 -10  -1  -1   41.22   5.052   1
  10   1   1   22.95   6.445   1
  10   1   1   25.76   6.965   1
 -10   1  -1   45.64   5.711   1
  10  -1   2  -5.132    7.32   1
  10  -1   2  -3.591   4.731   1
 -10  -1  -2  -1.193   2.405   1
 -10  -1  -2   4.297   7.252   1
  10   1   2  -3.245   6.489   1
  10   1   2  -2.895   5.394   1
 -10   1  -2  0.4804   2.972   1
 -10   1  -2  -3.097   8.802   1
  10  -1   3 -0.9718   5.082   1
  10  -1   3   23.13   9.834   1
 -10  -1  -3   5.513   8.614   1
 -10  -1  -3   8.012    2.87   1
  10   1   3   9.657   6.197   1
  10   1   3   7.015   8.227   1
 -10   1  -3   1.586   10.33   1
 -10   1  -3   13.61    3.80   1
  10  -1   4  -9.277   9.564   1
  10  -1   4  -7.747   5.346   1
 -10  -1  -4  -2.888   9.972   1
 -10  -1  -4   0.684   3.019   1
  10   1   4  -8.643   8.451   1
  10   1   4   3.953   6.347   1
 -10   1  -4   0.382   3.501   1
 -10   1  -4  -4.738   12.68   1
  10  -1   5 -0.4503   6.856   1
 -10  -1  -5  0.2619   3.068   1
 -10  -1  -5  -5.877   13.59   1
  10   1   5  -7.524   7.334   1
  10   1   5 -0.7847   11.00   1
 -10   1  -5  -1.277   3.715   1
  10  -1   6  -10.50   11.85   1
  10  -1   6  -1.718   7.881   1
 -10  -1  -6   1.543   3.602   1
 -10  -1  -6  -38.43   17.07   1
  10   1   6   6.281   12.98   1
  10   1   6   6.063   8.463   1
 -10   1  -6  -16.29   17.65   1
 -10   1  -6  0.4539   4.387   1
  10   1   7  -3.848   5.313   1
  10  -2 -10   6.626   15.12   1
  10  -2 -10   -1.63   14.38   1
 -10  -2  10   1.611   2.944   1
  10   2 -10    0.27   7.591   1
  10   2 -10   9.187   14.99   1
 -10   2  10   1.275    3.11   1
 -10   2  10    5.75   19.60   1
  10  -2  -9   35.62   12.82   1
  10  -2  -9   22.04   11.14   1
 -10  -2   9   28.75   4.003   1
 -10  -2   9   9.817   10.79   1
  10   2  -9   30.46   15.89   1
 -10   2   9   37.29   4.739   1
 -10   2   9   31.11   14.21   1
  10  -2  -8  142.20   16.86   1
  10  -2  -8  140.60   16.80   1
 -10  -2   8  143.70   18.59   1
  10   2  -8  149.50   16.37   1
 -10   2   8  122.20   17.59   1
 -10   2   8  154.90   15.04   1
  10  -2  -7   20.94   7.343   1
  10  -2  -7   15.23   7.166   1
 -10  -2   7   25.69   9.251   1
 -10  -2   7   15.90   2.489   1
  10   2  -7   16.46   8.509   1
  10   2  -7   17.86   6.102   1
 -10   2   7   17.74   2.565   1
 -10   2   7   2.889   8.991   1
  10  -2  -6   21.77   6.739   1
  10  -2  -6   27.76   7.185   1
 -10  -2   6   22.60    8.77   1
 -10  -2   6   24.56   3.135   1
  10   2  -6   26.16   6.244   1
  10   2  -6   20.78    7.43   1
 -10   2   6   11.33   8.085   1
 -10   2   6   25.72   3.252   1
  10  -2  -5  346.00   34.20   1
  10  -2  -5  405.50   39.80   1
 -10  -2   5  451.10   44.38   1
 -10  -2   5  332.40   31.51   1
  10   2  -5  318.20   32.00   1
  10   2  -5  415.00   40.22   1
 -10   2   5  345.00   32.73   1
 -10   2   5  334.10   33.61   1
  10  -2  -4  147.80   16.44   1
  10  -2  -4  150.80   16.15   1
 -10  -2   4  152.60   14.73   1
 -10  -2   4  196.70   21.21   1
  10   2  -4  166.60   17.41   1
  10   2  -4  168.10   18.38   1
 -10   2   4  162.30   18.41   1
 -10   2   4  146.80   14.28   1
 -10  -2   3  247.00   23.54   1
 -10  -2   3  307.40   30.96   1
  10   2  -3  266.10   27.02   1
  10   2  -3  273.10   27.19   1
 -10   2   3  230.80   24.02   1
 -10   2   3  276.10   26.39   1
  10  -2  -2   14.02   4.874   1
  10  -2  -2   19.08   7.047   1
 -10  -2   2   29.76   7.947   1
 -10  -2   2   22.35   3.058   1
  10   2  -2   28.95    6.87   1
  10   2  -2   27.07    6.68   1
 -10   2   2   21.06   8.023   1
 -10   2   2   20.66   3.476   1
  10  -2  -1   40.03   6.342   1
  10  -2  -1   44.22   8.955   1
 -10  -2   1   52.78   5.659   1
 -10  -2   1   26.73   7.668   1
  10   2  -1   51.02   8.135   1
  10   2  -1   47.30   8.347   1
 -10   2   1   32.54   8.555   1
 -10   2   1   61.58    6.90   1
  10  -2   0  223.90   23.64   1
 -10  -2   0  243.10   24.82   1
  10   2   0  206.70   21.17   1
 -10   2   0  187.70   20.72   1
  10  -2   1   51.96   7.615   1
 -10  -2  -1   61.36   6.586   1
  10   2   1   48.40   8.197   1
  10   2   1   57.92   8.862   1
 -10   2  -1   68.77   7.734   1
  10  -2   2   78.50   12.65   1
  10  -2   2   66.22    8.72   1
 -10  -2  -2   75.96   10.99   1
 -10  -2  -2   69.04   7.328   1
 -10   2  -2   79.70    8.78   1
 -10   2  -2   69.58   12.76   1
  10  -2   3   56.25   13.15   1
  10  -2   3   36.38   6.768   1
 -10  -2  -3   44.38   5.231   1
 -10  -2  -3   47.67   10.07   1
  10   2   3   36.74   8.061   1
  10   2   3   48.27   9.897   1
 -10   2  -3   45.60   13.68   1
 -10   2  -3   52.42   6.622   1
  10  -2   4   12.62   6.334   1
  10  -2   4   44.51   12.02   1
 -10  -2  -4   30.41   4.441   1
 -10  -2  -4   3.527   9.408   1
  10   2   4   19.90   8.985   1
  10   2   4   29.59   8.003   1
 -10   2  -4   30.54   14.40   1
 -10   2  -4   17.58   4.642   1
  10  -2   5   87.14   11.49   1
  10  -2   5   94.87   16.49   1
 -10  -2  -5   75.62   8.345   1
 -10  -2  -5   64.98   15.26   1
  10   2   5   88.03   13.47   1
  10   2   5  132.40   18.58   1
 -10   2  -5  124.00   21.26   1
 -10   2  -5  108.10   11.69   1
  10  -2   6   88.20   12.90   1
  10  -2   6   93.97   16.45   1
 -10  -2  -6   78.81    9.01   1
 -10  -2  -6   86.45   20.50   1
  10   2   6  119.30   19.88   1
  10   2   6  101.70   15.17   1
 -10   2  -6   81.51   20.06   1
 -10   2  -6   88.40   10.73   1
 -10  -2  -7   14.75   5.651   1
  10   2   7   34.82   7.113   1
 -10  -3  10   22.70   14.46   1
 -10  -3  10  0.2585   2.906   1
  10   3 -10  0.1747   14.29   1
  10   3 -10   5.709   7.382   1
  10  -3  -9  -9.487   12.30   1
  10  -3  -9  -6.696   9.981   1
 -10  -3   9   -1.81   2.117   1
 -10  -3   9   -4.15   11.29   1
  10   3  -9   -1.51   14.94   1
  10   3  -9   10.97   6.339   1
 -10   3   9   2.368   2.398   1
 -10   3   9   15.51   17.25   1
  10  -3  -8  0.1201   8.792   1
  10  -3  -8  -7.288   6.687   1
 -10  -3   8   1.499   1.844   1
  10   3  -8   3.665   11.71   1
 -10   3   8  -12.26   12.22   1
 -10   3   8 -0.8429   1.933   1
  10  -3  -7  -3.854   7.538   1
  10  -3  -7   6.461    6.56   1
 -10  -3   7  -3.257   8.117   1
  10   3  -7   3.927   5.026   1
  10   3  -7   3.906   9.427   1
 -10   3   7   7.907   9.724   1
 -10   3   7    1.28   1.674   1
  10  -3  -6   11.64   7.262   1
  10  -3  -6   9.605   6.627   1
 -10  -3   6   7.065   2.121   1
 -10  -3   6    2.83   7.221   1
  10   3  -6   12.42   4.947   1
 -10   3   6   12.31   9.316   1
 -10   3   6   10.38   2.208   1
  10  -3  -5   18.36   5.973   1
  10  -3  -5   16.85   7.247   1
 -10  -3   5   14.96    7.19   1
 -10  -3   5   17.75   2.599   1
  10   3  -5   15.15   6.744   1
  10   3  -5   20.19   5.331   1
 -10   3   5   4.996   8.346   1
 -10   3   5   17.63   2.844   1
  10  -3  -4   1.525   4.958   1
  10  -3  -4  -1.038   7.062   1
 -10  -3   4  -1.122    7.06   1
 -10  -3   4  0.3878   1.618   1
  10   3  -4   8.122    6.05   1
 -10   3   4  0.7276   2.061   1
 -10   3   4   -4.59   8.091   1
  10  -3  -3  -6.541   4.451   1
  10  -3  -3  -14.48   6.941   1
 -10  -3   3 -0.5751   1.648   1
 -10  -3   3  -1.823   7.074   1
  10   3  -3   1.497   5.155   1
  10   3  -3  -5.839   5.705   1
 -10   3   3  -4.622   7.992   1
 -10   3   3 -0.4751   2.429   1
  10  -3  -2  -4.891   6.851   1
  10  -3  -2 -0.5003   4.044   1
 -10  -3   2  -3.178    1.72   1
 -10  -3   2  -3.808   7.031   1
  10   3  -2  -7.127   5.089   1
  10   3  -2  -3.161   5.707   1
 -10   3   2  -3.644   2.661   1
 -10   3   2  -12.16   7.876   1
  10  -3  -1  -2.708   4.149   1
  10  -3  -1  0.4556   7.405   1
 -10  -3   1  -6.788   6.846   1
 -10  -3   1  -1.132   1.997   1
  10   3  -1   3.819   5.258   1
 -10   3   1   2.522   3.012   1
 -10   3   1  -1.632   7.947   1
  10  -3   0   28.29   9.305   1
  10  -3   0   27.78   6.411   1
 -10  -3   0   16.54   7.342   1
  10   3   0   29.72   6.524   1
 -10   3   0   24.00   4.495   1
 -10   3   0   27.65   9.882   1
  10  -3   1   9.447   4.577   1
 -10  -3  -1   10.20   2.327   1
  10   3   1   17.85   6.769   1
 -10   3  -1 -0.8864   9.855   1
 -10   3  -1   10.56    3.43   1
  10  -3   2   9.965   4.544   1
  10  -3   2   20.47   9.557   1
 -10  -3  -2   10.92   2.559   1
  10   3   2   17.07   7.035   1
  10   3   2   6.878   6.042   1
 -10   3  -2 -0.1753   10.50   1
 -10   3  -2   12.60   3.722   1
  10  -3   3  -4.787   4.505   1
  10  -3   3   15.33   10.92   1
 -10  -3  -3  -0.861   7.716   1
 -10  -3  -3   1.222   2.187   1
  10   3   3  -3.519   7.074   1
  10   3   3   9.208    6.71   1
 -10   3  -3  -2.316   14.15   1
  10  -3   4   6.349    9.75   1
 -10  -3  -4  -4.141   2.575   1
 -10  -3  -4   2.944   8.475   1
  10   3   4   2.941   7.279   1
  10   3   4   7.029   7.483   1
 -10   3  -4  -2.342   13.78   1
  10  -3   5 -0.8458   5.801   1
  10  -3   5  -3.346   10.76   1
 -10  -3  -5 -0.9364   11.36   1
 -10  -3  -5  -2.484   2.567   1
  10   3   5   -9.18   8.286   1
  10   3   5  0.3393    9.82   1
 -10   3  -5  -3.903   15.00   1
 -10   3  -5  -1.161   3.858   1
  10  -3   6   1.547   11.24   1
 -10  -3  -6   6.037    3.50   1
 -10  -3  -6   18.88   16.20   1
  10   3   6  0.6128   9.591   1
  10   3   6  -1.419   12.81   1
 -10   3  -6  -15.51   17.28   1
 -10  -3  -7   -4.16   4.704   1
  10   3   7   7.915   5.382   1
 -10  -4  10   32.68   4.946   1
 -10  -4  10   51.77   15.55   1
  10   4 -10   21.14   15.69   1
  10   4 -10   29.51   7.755   1
  10  -4  -9   71.23   13.65   1
  10  -4  -9   83.61   20.24   1
 -10  -4   9   87.46   9.049   1
 -10  -4   9   91.13   14.63   1
  10   4  -9   75.21   20.42   1
  10   4  -9   94.22   11.79   1
 -10   4   9  107.30   10.87   1
 -10   4   9   82.76   23.78   1
  10  -4  -8   88.64   15.60   1
  10  -4  -8   95.73   13.10   1
 -10  -4   8  107.60   14.58   1
 -10  -4   8  120.40   11.86   1
  10   4  -8  122.00   20.06   1
  10   4  -8  119.40   13.12   1
 -10   4   8   83.10   18.70   1
 -10   4   8  110.40   10.96   1
  10  -4  -7   51.28   11.64   1
  10  -4  -7   41.17   8.428   1
 -10  -4   7   33.82   3.979   1
  10   4  -7   46.74   12.33   1
 -10   4   7   27.54   12.23   1
 -10   4   7   32.70   3.818   1
  10  -4  -6   56.83   9.163   1
  10  -4  -6   45.50   10.23   1
 -10  -4   6   49.92   5.357   1
 -10  -4   6   49.33   8.987   1
  10   4  -6   40.84   10.04   1
  10   4  -6   41.50   6.334   1
 -10   4   6   35.27   11.24   1
 -10   4   6   52.71    5.65   1
  10  -4  -5   34.86   9.165   1
  10  -4  -5   22.42   5.926   1
 -10  -4   5   23.14   7.522   1
  10   4  -5   25.93   5.233   1
 -10   4   5   21.60   3.204   1
 -10   4   5   34.99   10.29   1
  10  -4  -4  109.10   12.44   1
  10  -4  -4   94.01   13.49   1
  10   4  -4   99.53   11.08   1
 -10   4   4  110.00   11.03   1
 -10   4   4   97.40   14.25   1
  10  -4  -3  167.10   17.27   1
  10  -4  -3  200.40   22.34   1
 -10  -4   3  203.30   21.42   1
  10   4  -3  197.10   19.90   1
 -10   4   3  196.10   19.09   1
 -10   4   3  166.00   19.68   1
  10  -4  -2   87.84   10.18   1
  10  -4  -2  126.50   16.29   1
 -10  -4   2  124.90   14.83   1
  10   4  -2  108.90   12.21   1
 -10   4   2  101.20   14.63   1
 -10   4   2  120.20   12.17   1
  10  -4  -1   13.85   8.603   1
 -10  -4   1   3.005   6.782   1
  10   4  -1   7.115   4.998   1
 -10   4   1  -7.138   8.981   1
  10  -4   0   17.95   9.868   1
  10  -4   0   21.23   5.112   1
 -10  -4   0   27.25   3.512   1
 -10  -4   0   26.10   8.359   1
  10   4   0   19.15   6.773   1
  10   4   0   22.95   6.216   1
 -10   4   0   25.52   4.207   1
 -10   4   0   5.342   11.02   1
  10  -4   1  288.60   30.99   1
  10  -4   1  222.80   22.29   1
 -10  -4  -1  228.70   24.23   1
 -10  -4  -1  217.30   20.82   1
  10   4   1  234.50   24.43   1
 -10   4  -1  277.00   30.08   1
 -10   4  -1  237.20   23.06   1
  10  -4   2  193.30   19.55   1
  10  -4   2  240.60   26.67   1
 -10  -4  -2  194.00   18.67   1
 -10  -4  -2  209.90   22.09   1
  10   4   2  245.30   25.63   1
  10   4   2  178.50   18.78   1
 -10   4  -2  197.20   19.44   1
 -10   4  -2  224.00   26.04   1
  10  -4   3   72.17   9.229   1
  10  -4   3  109.20   17.47   1
 -10  -4  -3   73.17   7.611   1
 -10  -4  -3   72.12   11.00   1
  10   4   3   77.90   10.77   1
  10   4   3   97.23   13.18   1
 -10   4  -3  102.30   17.74   1
 -10   4  -3   77.17   8.717   1
  10  -4   4   -4.07    9.75   1
  10  -4   4   7.077   5.175   1
 -10  -4  -4   4.531   2.466   1
 -10  -4  -4   -1.13   8.013   1
  10   4   4   4.077    7.85   1
  10   4   4   2.909   6.869   1
 -10   4  -4   4.251   3.677   1
  10  -4   5   62.93   13.61   1
  10  -4   5   76.90   10.22   1
 -10  -4  -5   72.95    7.85   1
  10   4   5   87.37   14.66   1
  10   4   5   92.67   14.46   1
 -10   4  -5   62.78   8.124   1
 -10   4  -5   68.35   17.72   1
  10  -4   6  107.60   16.41   1
 -10  -4  -6  127.60   13.19   1
 -10  -4  -6   95.35   19.14   1
  10   4   6  138.00   20.37   1
  10   4   6  140.00   18.96   1
 -10  -4  -7   10.75   4.788   1
  10   4   7   27.46   7.068   1
 -10  -5  10  -1.584   2.891   1
 -10  -5  10 -0.1212   11.87   1
  10   5 -10  0.5772   5.416   1
  10  -5  -9   -8.82   16.36   1
  10  -5  -9  -4.117    9.08   1
 -10  -5   9    3.46    9.39   1
 -10  -5   9 -0.3667   2.183   1
  10   5  -9 -0.3233   4.913   1
  10   5  -9   10.88   16.64   1
 -10   5   9   3.597   2.511   1
 -10   5   9  -36.26   22.64   1
  10  -5  -8   14.10   12.91   1
  10  -5  -8  -2.419   7.426   1
 -10  -5   8   6.085    7.92   1
 -10  -5   8   2.221   2.067   1
  10   5  -8   1.105   14.34   1
  10   5  -8  -1.667   4.225   1
 -10   5   8  -11.93   17.19   1
 -10   5   8  -0.802    2.17   1
  10  -5  -7  -4.634   10.56   1
 -10  -5   7   3.692   6.781   1
 -10  -5   7 -0.4689   1.774   1
  10   5  -7  -3.487   3.616   1
  10   5  -7  -14.37   12.05   1
  10  -5  -6   16.16   9.888   1
  10  -5  -6   2.466   5.774   1
 -10  -5   6   11.75   7.711   1
 -10  -5   6   8.482   2.037   1
  10   5  -6   6.088   3.824   1
  10   5  -6  -1.744   9.531   1
 -10   5   6    2.75   11.36   1
 -10   5   6   8.861   2.286   1
  10  -5  -5  -5.297   5.044   1
  10  -5  -5  -1.578   8.331   1
 -10  -5   5 -0.3329   1.536   1
  10   5  -5   9.773   7.913   1
 -10   5   5-0.02593   2.214   1
 -10   5   5   4.892   10.60   1
  10  -5  -4   5.231   8.325   1
  10  -5  -4   -0.37    4.81   1
 -10  -5   4   1.198    1.65   1
 -10  -5   4  -5.341   5.983   1
  10   5  -4   7.491   3.973   1
  10   5  -4  -0.617    6.50   1
 -10   5   4   3.968   9.924   1
 -10   5   4   2.556   2.611   1
  10  -5  -3   1.054   8.584   1
  10  -5  -3   4.201   4.417   1
 -10  -5   3 -0.1275   1.718   1
 -10  -5   3  0.2069   6.092   1
  10   5  -3  -1.543   4.013   1
  10   5  -3   -4.76   6.259   1
 -10   5   3 -0.3586   2.765   1
 -10   5   3  -3.009   10.14   1
  10  -5  -2   3.094   8.643   1
  10  -5  -2  -2.506   4.255   1
 -10  -5   2   -6.87    6.03   1
 -10  -5   2  -0.722   1.668   1
  10   5  -2   -3.34   4.125   1
  10   5  -2    2.35   6.124   1
 -10   5   2   7.106   9.512   1
 -10   5   2  -1.424    2.90   1
  10  -5  -1   6.068   4.162   1
  10  -5  -1   26.98   10.17   1
 -10  -5   1   13.05   2.324   1
 -10  -5   1  -5.543   7.204   1
  10   5  -1   9.072   4.989   1
  10   5  -1   2.627   6.271   1
 -10   5   1   1.522   10.70   1
 -10   5   1   9.952   3.336   1
  10  -5   0   32.52   5.707   1
 -10  -5   0   46.59   5.093   1
  10   5   0   29.97   7.773   1
 -10   5   0   45.58   5.799   1
  10  -5   1   2.875   9.657   1
  10  -5   1    2.03    4.30   1
 -10  -5  -1    2.60   1.808   1
 -10  -5  -1  0.8206   7.037   1
  10   5   1   5.723   6.688   1
  10   5   1  -2.235   5.533   1
 -10   5  -1   5.689   10.77   1
 -10   5  -1  0.1405   3.077   1
  10  -5   2  -5.029   4.222   1
  10  -5   2  -7.965   9.564   1
 -10  -5  -2  -2.036   1.824   1
 -10  -5  -2  -7.314   7.173   1
  10   5   2  -1.858   7.044   1
  10   5   2  0.9515   5.886   1
 -10   5  -2   7.054   3.341   1
 -10   5  -2   18.05   11.90   1
  10  -5   3   8.776   9.515   1
  10  -5   3  0.5286    4.81   1
 -10  -5  -3   2.253   6.942   1
 -10  -5  -3   1.417   2.127   1
  10   5   3   7.737   6.024   1
  10   5   3  -1.507    7.18   1
 -10   5  -3  -0.721    3.42   1
 -10   5  -3   23.09   14.36   1
  10  -5   4   4.019   5.054   1
  10  -5   4  -10.74   10.37   1
 -10  -5  -4   3.864   2.486   1
 -10  -5  -4   10.12   7.889   1
  10   5   4   4.802   8.084   1
  10   5   4 -0.4027   6.797   1
 -10   5  -4   2.962   3.499   1
 -10   5  -4  -14.75   14.31   1
  10  -5   5  -1.885   9.847   1
  10  -5   5  -1.989   5.447   1
 -10  -5  -5   1.316   2.425   1
  10   5   5  -2.574   8.441   1
 -10   5  -5   4.707   4.712   1
 -10   5  -5   13.78   16.05   1
 -10  -5  -6   3.706   11.38   1
 -10  -5  -6   3.285   3.332   1
  10   5   6  -4.228   9.967   1
  10   5   6  -5.694   10.57   1
  10   5   7   10.01   6.271   1
 -10  -6  10   40.11   5.728   1
  10   6 -10   47.31    7.85   1
  10   6 -10   72.45   17.27   1
  10  -6  -9   25.31   18.87   1
  10  -6  -9   50.16   11.93   1
 -10  -6   9   34.21   4.575   1
 -10  -6   9   37.80   10.08   1
  10   6  -9   39.53   6.669   1
 -10   6   9   56.65   6.444   1
 -10   6   9   46.08   27.25   1
  10  -6  -8   90.50   13.43   1
  10  -6  -8   55.33   17.00   1
 -10  -6   8   62.64   10.21   1
 -10  -6   8   87.33   8.924   1
  10   6  -8   64.03   7.816   1
  10   6  -8   85.51   18.78   1
 -10   6   8   92.08   24.59   1
 -10   6   8   86.82   8.916   1
  10  -6  -7   36.74   8.102   1
  10  -6  -7   35.47   12.37   1
 -10  -6   7   42.43   8.453   1
 -10  -6   7   44.70   4.986   1
  10   6  -7   30.57   4.915   1
  10   6  -7   66.42   16.85   1
 -10   6   7   46.28   5.227   1
 -10   6   7   26.53   16.95   1
  10  -6  -6   12.33   5.739   1
  10  -6  -6   27.16   11.61   1
 -10  -6   6   12.25   6.251   1
 -10  -6   6   12.14   2.251   1
  10   6  -6   11.36    3.51   1
  10   6  -6   13.23   10.96   1
 -10   6   6   30.77   14.45   1
 -10   6   6   13.05   2.704   1
  10  -6  -5   77.35   13.58   1
  10  -6  -5   56.19   8.261   1
 -10  -6   5   63.44   9.233   1
 -10  -6   5   47.42   5.055   1
  10   6  -5   39.80   10.41   1
  10   6  -5   46.14   6.085   1
 -10   6   5   71.90   14.55   1
 -10   6   5   47.13   5.631   1
  10  -6  -4  111.40   12.43   1
  10  -6  -4  111.10   16.72   1
 -10  -6   4  104.40   10.26   1
 -10  -6   4   74.22   10.60   1
  10   6  -4   90.55   12.78   1
  10   6  -4   80.36   9.139   1
 -10   6   4  135.50   19.17   1
 -10   6   4  116.90   11.87   1
  10  -6  -3  205.80   23.81   1
  10  -6  -3  123.80   13.53   1
 -10  -6   3  162.60   15.66   1
  10   6  -3  136.50   15.93   1
 -10   6   3  180.20   22.13   1
 -10   6   3  166.40   16.41   1
  10  -6  -2  161.20   20.82   1
 -10  -6   2  162.10   15.63   1
  10   6  -2  124.50   14.93   1
 -10   6   2  109.10   18.33   1
  10  -6  -1   4.561   4.208   1
 -10  -6   1   5.124   6.307   1
 -10  -6   1   4.559   1.791   1
  10   6  -1   4.995   4.448   1
  10   6  -1   8.518   6.415   1
 -10   6   1   2.388    2.89   1
  10  -6   0  343.50   33.36   1
  10  -6   0  462.50   46.97   1
 -10  -6   0  450.30   44.05   1
 -10  -6   0  350.40   33.21   1
  10   6   0  402.40   38.92   1
  10   6   0  377.40   37.60   1
 -10   6   0  397.00   41.30   1
 -10   6   0  338.40   32.45   1
  10  -6   1  294.30   31.34   1
  10  -6   1  266.70   26.29   1
 -10  -6  -1  275.60   26.23   1
 -10  -6  -1  350.80   35.01   1
  10   6   1  308.30   31.37   1
  10   6   1  299.10   29.49   1
 -10   6  -1  276.20   26.70   1
 -10   6  -1  290.60   31.93   1
  10  -6   2  235.90   26.52   1
  10  -6   2  185.70   18.83   1
 -10  -6  -2  210.00   22.46   1
 -10  -6  -2  177.90   17.17   1
  10   6   2  186.40   20.85   1
  10   6   2  186.90   19.59   1
 -10   6  -2  189.80   18.73   1
 -10   6  -2  200.60   25.76   1
  10  -6   3   45.42   11.60   1
  10  -6   3   43.49   6.883   1
 -10  -6  -3   50.24   9.478   1
 -10  -6  -3   43.51   5.117   1
  10   6   3   54.39   10.73   1
  10   6   3   33.99   7.154   1
 -10   6  -3   38.05   5.562   1
 -10   6  -3   48.97   14.88   1
  10  -6   4  0.2936   11.00   1
  10  -6   4   7.591   5.241   1
 -10  -6  -4   2.321   7.853   1
  10   6   4   2.659   6.855   1
 -10   6  -4   4.843   3.687   1
 -10   6  -4   16.00   15.05   1
  10  -6   5  121.00   17.59   1
 -10  -6  -5   94.15   14.84   1
  10   6   5  140.10   18.67   1
 -10   6  -5   86.96   19.69   1
 -10  -6  -6   79.35   13.96   1
 -10  -6  -6   81.87   9.317   1
  10   6   6   76.70   12.44   1
  10   6   6   79.46   14.91   1
 -10  -7  10  -3.436   8.235   1
 -10  -7  10  -3.025   4.296   1
  10   7 -10   12.79   10.27   1
  10   7 -10  -1.504   4.754   1
  10  -7  -9  -9.131   10.22   1
  10  -7  -9    8.78   15.75   1
 -10  -7   9  -1.295   2.373   1
  10   7  -9  -16.00   13.85   1
  10   7  -9  -1.143   4.366   1
 -10   7   9   0.769    3.06   1
 -10   7   9  -2.317   24.49   1
  10  -7  -8  -6.808   7.962   1
  10  -7  -8  -4.057   14.40   1
 -10  -7   8   4.569   6.927   1
 -10  -7   8   1.158   2.309   1
  10   7  -8   1.088   3.527   1
 -10   7   8  0.7861   2.327   1
 -10   7   8  -10.59   21.27   1
  10  -7  -7  0.3645   6.246   1
  10  -7  -7  -2.742   10.90   1
 -10  -7   7   5.738   6.109   1
 -10  -7   7   2.452   1.902   1
  10   7  -7   12.62   15.63   1
  10   7  -7   1.582   3.438   1
 -10   7   7   9.748   16.59   1
 -10   7   7   3.258   2.219   1
  10  -7  -6   34.98   12.38   1
  10  -7  -6   16.42   6.047   1
 -10  -7   6   15.55   6.099   1
 -10  -7   6   20.15   2.904   1
  10   7  -6   18.74   4.132   1
  10   7  -6   9.308   12.87   1
 -10   7   6   6.589   14.84   1
 -10   7   6   22.35   3.506   1
  10  -7  -5   6.258   5.016   1
  10  -7  -5   12.84   11.12   1
 -10  -7   5   11.07   5.907   1
 -10  -7   5   11.95   2.247   1
  10   7  -5   11.57   3.847   1
  10   7  -5   14.73   10.16   1
 -10   7   5   17.21   13.21   1
 -10   7   5   17.66   3.545   1
  10  -7  -4   9.337   9.142   1
 -10  -7   4   2.118   1.631   1
 -10  -7   4 -0.6024   5.275   1
  10   7  -4   7.632   8.299   1
  10   7  -4    1.16   3.286   1
 -10   7   4   2.066   3.182   1
 -10   7   4   15.81   11.77   1
  10  -7  -3   4.331   9.397   1
 -10  -7   3-0.04235   1.642   1
 -10  -7   3   1.052   5.284   1
  10   7  -3   3.816    3.40   1
  10   7  -3  -4.072   7.307   1
 -10   7   3   12.60   11.79   1
  10  -7  -2   2.081   4.046   1
 -10  -7   2   2.524   5.478   1
 -10  -7   2  0.2938   1.639   1
  10   7  -2   2.938   6.891   1
  10   7  -2   3.623   3.532   1
 -10   7   2   1.914   2.907   1
  10  -7  -1  -1.177   9.578   1
  10  -7  -1  -4.752   3.965   1
 -10  -7   1   3.402    1.80   1
 -10  -7   1   5.808   5.703   1
  10   7  -1   7.381   6.954   1
  10   7  -1   3.906    4.04   1
 -10   7   1   3.586   3.088   1
 -10   7   1  -4.889   12.06   1
  10  -7   0   26.15   5.263   1
  10  -7   0   17.01   10.04   1
 -10  -7   0   37.35   4.327   1
 -10  -7   0   31.50   7.633   1
  10   7   0   42.35   6.603   1
  10   7   0   31.39   8.282   1
 -10   7   0   17.30   12.76   1
 -10   7   0   36.67   5.177   1
  10  -7   1   6.345   4.458   1
  10  -7   1   8.818   9.163   1
 -10  -7  -1 -0.7999   7.319   1
  10   7   1   4.006   5.392   1
 -10   7  -1 -0.2148   3.245   1
 -10   7  -1   5.424   12.67   1
  10  -7   2  -4.725   9.554   1
 -10  -7  -2    2.38   1.918   1
 -10  -7  -2   1.398   7.424   1
  10   7   2  -3.455   7.221   1
  10   7   2   15.85   6.424   1
 -10   7  -2   9.617   12.35   1
  10  -7   3 -0.3663   9.332   1
  10  -7   3   2.453   4.552   1
 -10  -7  -3  0.8985   2.277   1
 -10  -7  -3  -5.189   7.369   1
  10   7   3 -0.3099   5.618   1
  10   7   3   1.272   7.615   1
 -10   7  -3  0.5571   3.174   1
 -10   7  -3   3.876   13.23   1
  10  -7   4   1.907    5.27   1
  10  -7   4   15.23   10.95   1
 -10  -7  -4    3.26   8.044   1
 -10  -7  -4   2.297   2.372   1
  10   7   4 -0.3198   6.676   1
  10   7   4  -5.519   8.286   1
 -10   7  -4   3.082   3.789   1
 -10   7  -4  -6.141   14.18   1
 -10  -7  -5   1.123   9.315   1
 -10  -7  -5   3.675   2.932   1
  10   7   5  -9.687   9.501   1
  10   7   5    2.56   8.803   1
 -10  -7  -6   1.082   3.739   1
 -10  -7  -6  0.9634   8.514   1
  10   7   6  -2.889   7.783   1
  10   7   6  -15.16   9.789   1
 -10  -8  10   23.50   7.408   1
  10   8 -10   32.67   5.884   1
 -10  -8   9   35.04   10.62   1
 -10  -8   9   44.09   5.384   1
  10   8  -9   51.38   7.524   1
  10   8  -9   21.10   15.45   1
  10  -8  -8   71.37   16.57   1
  10  -8  -8   79.51   13.01   1
 -10  -8   8   69.69   7.359   1
  10   8  -8   70.08   19.60   1
  10   8  -8   56.93   7.277   1
 -10   8   8   70.18   7.596   1
 -10   8   8   76.51   25.32   1
  10  -8  -7   19.38   12.40   1
  10  -8  -7   12.16   6.753   1
 -10  -8   7   9.532   6.341   1
  10   8  -7   4.216   3.482   1
 -10   8   7   10.45   2.843   1
 -10   8   7   5.445   17.61   1
  10  -8  -6   10.51   11.04   1
  10  -8  -6   23.31   6.497   1
 -10  -8   6   18.43   6.345   1
 -10  -8   6   21.26   3.036   1
  10   8  -6   17.41   3.864   1
  10   8  -6   56.08   15.86   1
 -10   8   6   39.55   16.56   1
 -10   8   6   19.74   3.527   1
  10  -8  -5   16.02   11.24   1
 -10  -8   5   20.94   6.173   1
 -10  -8   5   11.98   2.229   1
  10   8  -5   22.45   11.62   1
  10   8  -5   13.17    3.56   1
 -10   8   5   25.74   15.27   1
  10  -8  -4   48.51   11.95   1
  10  -8  -4   40.55   6.603   1
 -10  -8   4   37.64   6.924   1
 -10  -8   4   40.30   4.467   1
  10   8  -4   35.01   5.161   1
  10   8  -4   41.49   11.27   1
 -10   8   4   52.94   15.79   1
 -10   8   4   29.91   4.786   1
  10  -8  -3   97.01   10.90   1
 -10  -8   3   85.84   10.63   1
 -10  -8   3   90.36    8.97   1
  10   8  -3   86.44   9.528   1
  10   8  -3   85.92   13.44   1
 -10   8   3   87.72   9.295   1
  10  -8  -2   50.27   6.988   1
  10  -8  -2   39.80   11.24   1
 -10  -8   2   50.93   5.389   1
 -10  -8   2   48.22   7.707   1
  10   8  -2   43.40   5.813   1
  10   8  -2   31.42   9.131   1
 -10   8   2   36.00   14.08   1
 -10   8   2   48.04   5.954   1
  10  -8  -1   39.94   11.22   1
  10  -8  -1   50.07   6.878   1
 -10  -8   1   40.48   4.538   1
 -10  -8   1   42.51   7.432   1
  10   8  -1   40.80   5.844   1
  10   8  -1   39.67   9.479   1
 -10   8   1   55.35   14.20   1
 -10   8   1   36.01    5.04   1
  10  -8   0   67.78   8.361   1
  10  -8   0   75.79   13.78   1
 -10  -8   0   82.24   8.284   1
 -10  -8   0   75.18   10.35   1
  10   8   0   77.53   9.115   1
  10   8   0   64.38   10.62   1
 -10   8   0   68.49    7.70   1
 -10   8   0   67.66   15.56   1
  10  -8   1  279.60   30.58   1
  10  -8   1  298.20   29.17   1
 -10  -8  -1  275.50   26.24   1
 -10  -8  -1  314.50   31.67   1
  10   8   1  256.20   27.19   1
  10   8   1  299.00   29.42   1
 -10   8  -1  269.20   31.27   1
 -10   8  -1  254.60   24.71   1
  10  -8   2  138.00   18.43   1
  10  -8   2  210.50   21.20   1
 -10  -8  -2  203.80   22.50   1
 -10  -8  -2  179.30   17.36   1
  10   8   2  205.40   21.02   1
  10   8   2  176.70   20.47   1
 -10   8  -2  161.20   16.19   1
 -10   8  -2  133.20   22.30   1
  10  -8   3   34.42   6.246   1
  10  -8   3   32.84   10.90   1
 -10  -8  -3   42.62   9.441   1
  10   8   3   38.17   7.268   1
 -10   8  -3   27.15   4.898   1
 -10   8  -3   39.61   15.62   1
  10  -8   4   33.07   12.16   1
 -10  -8  -4   11.06   8.644   1
 -10  -8  -4   17.54   3.114   1
  10   8   4   18.07   9.622   1
 -10   8  -4   9.056   15.51   1
 -10  -8  -5   59.99   7.138   1
 -10  -8  -5   37.21   10.44   1
  10   8   5   58.60   13.35   1
  10   8   5   36.53   9.607   1
 -10  -8  -6   29.16   5.884   1
  10   8   6   58.38   9.263   1
 -10  -9   9 -0.5965   8.975   1
  10   9  -9 -0.4765   4.584   1
  10  -9  -8   3.363   9.113   1
  10  -9  -8  -13.32   13.37   1
 -10  -9   8  -5.089   7.372   1
 -10  -9   8    3.09   2.125   1
  10   9  -8  -2.224   15.39   1
  10   9  -8 -0.5088   3.618   1
 -10   9   8   13.16   23.03   1
 -10   9   8   3.468   2.809   1
  10  -9  -7  0.7282   7.367   1
  10  -9  -7   11.70   11.54   1
 -10  -9   7 -0.2391   1.829   1
 -10  -9   7  -3.854    6.13   1
  10   9  -7  -4.475   14.51   1
  10   9  -7 -0.9105   3.271   1
 -10   9   7  0.6186   2.836   1
 -10   9   7  -15.15   18.54   1
 -10  -9   6 -0.4386   5.868   1
 -10  -9   6  -1.597   1.893   1
  10   9  -6 -0.5325   15.30   1
  10   9  -6 -0.3669   3.152   1
 -10   9   6  -5.724   15.07   1
  10  -9  -5   12.52   5.723   1
 -10  -9   5   16.20    6.18   1
 -10  -9   5   13.95   2.529   1
  10   9  -5  -2.385   12.65   1
  10   9  -5   10.47   3.486   1
 -10   9   5   12.69    3.54   1
 -10   9   5  -6.684   14.86   1
  10  -9  -4   6.088   4.456   1
 -10  -9   4   5.254   1.886   1
 -10  -9   4   4.089   5.175   1
  10   9  -4   6.597   3.252   1
  10   9  -4   44.04   12.32   1
 -10   9   4   9.981    3.28   1
  10  -9  -3  -3.411   4.444   1
  10  -9  -3  -5.609   9.777   1
 -10  -9   3  -6.774   5.027   1
 -10  -9   3  0.1267   1.637   1
  10   9  -3   10.84   9.585   1
  10   9  -3  -1.845   3.141   1
 -10   9   3   22.90   13.68   1
 -10   9   3    3.63   2.896   1
  10  -9  -2   7.485   10.14   1
  10  -9  -2   2.836   4.269   1
 -10  -9   2  -1.324   1.645   1
 -10  -9   2 -0.4761   5.014   1
  10   9  -2   -1.59   3.383   1
  10   9  -2  -1.344   8.671   1
 -10   9   2   14.19   13.40   1
 -10   9   2  -5.959   3.036   1
  10  -9  -1  -5.278   4.097   1
  10  -9  -1 -0.9496   10.11   1
 -10  -9   1  -5.992   5.365   1
 -10  -9   1 -0.4097   1.707   1
  10   9  -1  -6.799   7.895   1
  10   9  -1 -0.2334   3.402   1
 -10   9   1  -14.51   13.23   1
 -10   9   1  -1.278   2.908   1
  10  -9   0   9.446   4.517   1
  10  -9   0   25.05   11.02   1
 -10  -9   0   13.33   2.439   1
 -10  -9   0    5.06   5.855   1
  10   9   0   10.93   8.279   1
  10   9   0   10.76   4.296   1
 -10   9   0   10.22   3.376   1
 -10   9   0   10.66   13.49   1
  10  -9   1  -4.761   4.408   1
  10  -9   1  -1.363   9.686   1
 -10  -9  -1  -1.832   6.358   1
 -10  -9  -1   1.844   1.897   1
  10   9   1   2.255   8.617   1
  10   9   1   1.639   4.761   1
 -10   9  -1   1.172   13.41   1
 -10   9  -1 -0.6947   3.422   1
  10  -9   2  -6.151   4.602   1
  10  -9   2  -10.19   9.293   1
 -10  -9  -2  -1.232    7.78   1
  10   9   2   7.524    5.36   1
 -10   9  -2  -2.499   3.228   1
 -10   9  -2  -9.354   12.53   1
  10  -9   3  -1.657   10.27   1
  10  -9   3  -7.731   4.856   1
 -10  -9  -3  0.7217   2.198   1
  10   9   3   2.961   8.599   1
 -10   9  -3    6.30   13.96   1
 -10   9  -3  -4.855   3.502   1
 -10  -9  -4  -3.336   8.348   1
 -10  -9  -4  -2.293   2.374   1
  10   9   4   2.034   9.808   1
  10   9   4  -0.741   7.017   1
 -10  -9  -5   4.165   3.008   1
 -10  -9  -5  0.1694   8.812   1
  10   9   5   8.187   7.923   1
  10   9   5  -1.294   10.18   1
  10 -10  -8   97.50   18.63   1
  10 -10  -8  127.40   18.22   1
 -10 -10   8  109.20   14.67   1
  10  10  -8  126.50   13.40   1
 -10  10   8  146.90   14.94   1
 -10  10   8  100.30   27.87   1
  10 -10  -7   6.159   11.58   1
  10 -10  -7   20.28   8.838   1
 -10 -10   7  -1.457    6.36   1
 -10 -10   7   7.748   2.214   1
  10  10  -7   3.584   3.562   1
  10  10  -7   17.84   16.88   1
 -10  10   7   29.80   20.61   1
  10 -10  -6    3.90   5.986   1
 -10 -10   6   10.20   2.297   1
 -10 -10   6   12.07   6.794   1
  10  10  -6   2.245   14.20   1
  10  10  -6   9.192   3.472   1
 -10  10   6   18.12    4.01   1
  10 -10  -5   98.55   15.39   1
  10 -10  -5  128.20   14.12   1
 -10 -10   5  134.60   13.14   1
  10  10  -5  156.50   23.28   1
 -10  10   5  144.10   14.53   1
  10 -10  -4  139.30   18.63   1
  10 -10  -4  177.90   18.42   1
 -10 -10   4  160.80   15.65   1
 -10 -10   4  153.30   16.56   1
  10  10  -4  162.60   16.24   1
  10  10  -4  151.00   22.39   1
 -10  10   4  171.10   24.60   1
 -10  10   4  173.50   17.20   1
  10 -10  -3  107.80   12.12   1
  10 -10  -3   99.56   15.51   1
 -10 -10   3   95.59   11.37   1
  10  10  -3   91.82   9.799   1
 -10  10   3   91.32   9.654   1
 -10  10   3   95.12   18.42   1
  10 -10  -2   11.43   10.54   1
  10 -10  -2   5.345   4.314   1
 -10 -10   2   1.673   5.057   1
 -10 -10   2   4.557   1.913   1
  10  10  -2   5.773   10.85   1
  10  10  -2   5.071   3.315   1
 -10  10   2   12.75   13.77   1
 -10  10   2   4.646   3.212   1
  10 -10  -1   23.12   5.197   1
 -10 -10   1   21.46   6.113   1
 -10 -10   1   17.27   2.855   1
  10  10  -1   20.54    4.17   1
  10  10  -1   -1.04   10.14   1
 -10  10   1   19.89   4.041   1
 -10  10   1   33.22   15.21   1
  10 -10   0  236.30   26.90   1
  10 -10   0  245.60   24.69   1
 -10 -10   0  266.00   26.83   1
  10  10   0  245.80   24.07   1
 -10  10   0  220.70   27.55   1
  10 -10   1  196.70   19.95   1
  10 -10   1  149.50   19.33   1
 -10 -10  -1  193.90   20.84   1
 -10 -10  -1  188.20   18.19   1
  10  10   1  194.10   19.63   1
  10  10   1  165.50   20.77   1
 -10  10  -1  157.30   15.79   1
 -10  10  -1  167.10   22.77   1
  10 -10   2  159.60   16.87   1
  10 -10   2  144.90   18.91   1
 -10 -10  -2  143.80   14.09   1
  10  10   2  128.90   18.34   1
 -10  10  -2  147.50   21.88   1
 -10  10  -2  150.30   15.28   1
  10 -10   3   26.33   11.25   1
 -10 -10  -3   23.01   9.211   1
 -10 -10  -3   11.18   2.595   1
  10  10   3   20.98   11.03   1
  10  10   3   15.27   6.823   1
 -10  10  -3   27.16   16.59   1
 -10 -10  -4   6.961   3.089   1
  10  10   4   4.837    7.38   1
  10  10   4   6.124   11.12   1
 -10 -10  -5   59.49   10.77   1
  10  10   5   78.92   11.21   1
  10 -11  -7   7.995   12.77   1
  10 -11  -7   6.261   8.463   1
 -10 -11   7  -3.751   6.894   1
  10  11  -7  0.5835   3.607   1
 -10  11   7    6.40   3.854   1
  10 -11  -6  -4.404   10.68   1
  10 -11  -6   -2.98   6.026   1
 -10 -11   6   -4.99   6.393   1
 -10 -11   6  -1.253   1.841   1
  10  11  -6   15.65   16.07   1
  10  11  -6  -7.052   3.386   1
 -10  11   6 -0.8265   17.84   1
 -10  11   6   2.509   3.795   1
  10 -11  -5   3.218   5.275   1
  10 -11  -5 -0.3983   10.85   1
 -10 -11   5   1.478    1.83   1
 -10 -11   5   1.091   6.294   1
  10  11  -5   8.674   14.66   1
 -10  11   5   3.742   17.56   1
 -10  11   5   2.438   3.486   1
  10 -11  -4 -0.5617   5.287   1
  10 -11  -4   -7.50   9.277   1
 -10 -11   4   5.385   1.909   1
 -10 -11   4   2.635   5.557   1
  10  11  -4   5.019   3.308   1
  10  11  -4  -9.021   13.21   1
 -10  11   4   3.825   3.349   1
 -10  11   4   31.44   16.02   1
  10 -11  -3   4.818   9.487   1
  10 -11  -3   3.202   5.307   1
 -10 -11   3   1.075   5.764   1
 -10 -11   3   3.498   1.915   1
  10  11  -3  -4.697   12.48   1
  10  11  -3   5.379    3.59   1
 -10  11   3   2.086   3.091   1
 -10  11   3  -14.25   14.68   1
  10 -11  -2   3.879   4.625   1
  10 -11  -2  -6.779   10.23   1
 -10 -11   2  0.9332   1.813   1
  10  11  -2  -4.064   11.96   1
 -10  11   2  0.9882   3.246   1
 -10  11   2  -30.91   14.50   1
  10 -11  -1   2.089   4.504   1
  10 -11  -1   6.041   9.614   1
 -10 -11   1   2.496   1.902   1
  10  11  -1  -9.993   11.10   1
 -10  11   1   5.096   3.757   1
 -10  11   1  0.8599   14.48   1
  10 -11   0   14.17   10.90   1
  10 -11   0   5.516   4.514   1
  10  11   0  -2.839   11.30   1
 -10  11   0  -5.551   13.82   1
 -10  11   0   2.726   3.291   1
  10 -11   1   1.448    4.71   1
  10 -11   1   4.035   10.09   1
 -10 -11  -1   5.643   2.137   1
 -10 -11  -1  -8.456   6.484   1
  10  11   1  -5.592   10.68   1
  10  11   1   2.151   4.568   1
 -10  11  -1   31.01   15.27   1
 -10  11  -1   2.386   3.614   1
  10 -11   2   3.284   10.51   1
 -10 -11  -2 0.00243    2.07   1
 -10 -11  -2   10.36   7.203   1
  10  11   2   2.648   5.065   1
  10  11   2   10.03   11.47   1
 -10  11  -2   11.69   14.81   1
 -10 -11  -3   3.025   8.555   1
 -10 -11  -3   6.837   2.588   1
  10  11   3  0.5165   6.328   1
  10  11   3  -8.018   12.01   1
 -10 -11  -4  -4.368   8.924   1
  10  11   4-0.05734   7.383   1
  10 -12  -7  -20.62   12.32   1
  10 -12  -7   5.204   9.733   1
 -10  12   7   2.076   2.075   1
 -10  12   7   4.654   4.866   1
  10 -12  -6    8.12   11.06   1
  10 -12  -6  0.7427    6.16   1
 -10 -12   6    5.96   7.074   1
  10  12  -6    3.31   3.798   1
 -10  12   6   8.295   4.049   1
 -10  12   6   1.853   1.548   1
  10 -12  -5  151.30   16.65   1
  10 -12  -5  121.70   18.33   1
 -10 -12   5  111.60   14.29   1
  10  12  -5  165.20   16.62   1
 -10  12   5  162.40   16.48   1
 -10  12   5  137.30   24.68   1
  10 -12  -4  112.90   17.30   1
  10 -12  -4  166.90   18.07   1
 -10 -12   4  169.90   16.41   1
 -10 -12   4  160.40   17.44   1
  10  12  -4  180.30   25.69   1
  10  12  -4  159.20   15.97   1
 -10  12   4  170.40   17.12   1
 -10  12   4  134.60   23.64   1
  10 -12  -3   37.54   11.66   1
 -10 -12   3   45.44   7.751   1
 -10 -12   3   43.26   4.877   1
  10  12  -3   36.12   5.249   1
  10  12  -3   65.00   16.22   1
 -10  12   3   51.21   16.82   1
  10 -12  -2   20.92   5.645   1
 -10 -12   2   21.49   6.316   1
 -10 -12   2   22.91   3.188   1
  10  12  -2   20.01   14.15   1
  10  12  -2   20.16   4.059   1
 -10  12   2   19.84   14.60   1
 -10  12   2   14.44    4.00   1
  10 -12  -1   68.24   8.918   1
  10 -12  -1   63.67   13.32   1
 -10 -12   1   63.91   6.727   1
 -10 -12   1   49.65    8.20   1
  10  12  -1   57.92   7.111   1
  10  12  -1   65.09   15.73   1
 -10  12   1   54.78   6.854   1
 -10  12   1   70.21   18.28   1
  10 -12   0  143.10   15.31   1
  10 -12   0  114.00   17.60   1
 -10 -12   0  121.30   11.98   1
 -10 -12   0  147.00   16.21   1
  10  12   0  109.00   19.28   1
  10  12   0  117.30   12.47   1
 -10  12   0  111.20   11.83   1
 -10  12   0   90.47   19.68   1
  10 -12   1  194.40   23.72   1
 -10 -12  -1  271.30   27.55   1
 -10 -12  -1  226.40   21.74   1
  10  12   1  240.00   29.83   1
  10  12   1  225.40   22.39   1
 -10  12  -1  254.60   31.48   1
 -10 -12  -2   17.65   7.487   1
 -10 -12  -2   20.19   3.305   1
  10  12   2   28.29   15.12   1
  10  12   2   24.00   5.918   1
 -10 -12  -3  -7.763   9.019   1
  10  12   3 -0.4108   6.398   1
  10 -13  -7  -7.422   11.18   1
  10 -13  -7  0.4096   9.124   1
 -10  13   7 0.06676   2.192   1
 -10  13   7  -6.811   5.702   1
  10 -13  -6   1.003   7.128   1
  10 -13  -6-0.05191   10.81   1
 -10  13   6  -3.531   4.326   1
 -10  13   6  0.5639   1.758   1
  10 -13  -5 -0.9302   11.09   1
 -10  13   5  0.4168   1.579   1
  10 -13  -4   1.222   12.12   1
  10 -13  -4   10.92   6.042   1
 -10 -13   4   5.214   6.339   1
  10  13  -4   7.693   3.571   1
 -10  13   4   4.358   3.693   1
 -10  13   4   1.204   1.484   1
  10 -13  -3   3.486   5.107   1
  10 -13  -3  -6.601   10.44   1
 -10 -13   3  -5.835   5.667   1
  10  13  -3   3.706   3.429   1
 -10  13   3  -3.799   3.413   1
  10 -13  -2  -2.678   10.88   1
  10 -13  -2   3.357   5.059   1
 -10 -13   2   4.207   1.972   1
 -10 -13   2  -1.828   5.542   1
  10  13  -2   2.506   3.133   1
  10  13  -2  0.1077   13.83   1
 -10  13   2   5.063   16.06   1
 -10  13   2   1.856   3.195   1
  10 -13  -1  0.1598   10.76   1
  10 -13  -1 -0.5799   4.818   1
 -10 -13   1   1.961   5.742   1
 -10 -13   1  0.5816   1.899   1
  10  13  -1  -0.371   3.531   1
  10  13  -1   9.691   14.78   1
 -10  13   1   2.867   3.786   1
 -10  13   1  -17.80   15.76   1
  10 -13   0  -10.45   12.23   1
 -10 -13   0   1.429   2.039   1
 -10 -13   0 -0.2013   6.225   1
  10  13   0  0.8384   3.995   1
  10  13   0   8.447   16.70   1
 -10  13   0   2.265   1.409   1
 -10 -13  -1   5.779   6.666   1
  10  13   1   2.638   4.356   1
  10  13   2  -3.936   5.574   1
  10 -14  -6   6.333   7.925   1
 -10  14   6   10.52   6.233   1
 -10  14   6    3.88   2.311   1
  10 -14  -5   27.32   8.128   1
  10 -14  -5   33.90   13.57   1
 -10  14   5   35.73    6.39   1
  10 -14  -4  226.30   23.68   1
 -10  14   4  177.70   18.02   1
 -10  14   4  190.50   18.33   1
  10 -14  -3  203.30   21.18   1
 -10  14   3  202.70   20.25   1
 -10  14   3  188.70   18.09   1
  10 -14  -2   23.93   11.11   1
  10 -14  -2   23.38   6.513   1
 -10  14   2   16.45   2.356   1
 -10  14   2   18.28   4.297   1
  10 -14  -1   17.92   11.23   1
 -10  14   1   17.84   2.505   1
  10 -15  -6   1.253   9.248   1
  10 -15  -6  -2.156    5.59   1
 -10  15   6  -2.191   7.106   1
 -10  15   6 -0.5349   2.936   1
  10 -15  -5   -6.27   12.92   1
  10 -15  -5   10.37   7.957   1
 -10  15   5  -1.302   5.286   1
 -10  15   5  0.5689    1.86   1
  10 -15  -4   7.848   11.28   1
  10 -15  -4  -9.618   7.394   1
 -10  15   4 -0.8913   1.912   1
 -10  15   4  -1.438   4.291   1
  10 -15  -3   16.53   12.29   1
 -10  15   3  0.2827   1.639   1
 -10  16   5  172.60   17.23   1
  11   0  -9   2.758   7.063   1
  11   0  -9  -18.05   13.94   1
 -11   0   9  0.7608   2.699   1
 -11   0   9  -8.392   13.23   1
  11   0  -8   5.615   9.863   1
  11   0  -8  -4.693   7.163   1
 -11   0   8  -2.415   2.067   1
 -11   0   8   -4.36   10.75   1
  11   0  -7   6.924   8.255   1
  11   0  -7   9.156   6.794   1
 -11   0   7 -0.5883   2.039   1
 -11   0   7   3.435   9.443   1
  11   0  -6   7.907   7.574   1
  11   0  -6   1.502   5.816   1
 -11   0   6  -10.40   9.037   1
 -11   0   6  -1.059    1.83   1
  11   0  -5   10.93   6.252   1
  11   0  -5 -0.6557    6.72   1
 -11   0   5  -2.432   1.719   1
 -11   0   5 -0.2329   8.731   1
  11   0  -4  -4.748   6.248   1
  11   0  -4  -5.945   6.602   1
 -11   0   4 -0.4551   1.787   1
 -11   0   4  -3.149   8.661   1
  11   0  -3  -3.299   6.266   1
  11   0  -3  -6.138   6.937   1
  11   0  -2    6.47   6.326   1
  11   0  -2   8.875   5.977   1
 -11   0   2 -0.9675   7.917   1
 -11   0   2-0.01192   1.895   1
  11   0  -1  -2.031   5.714   1
  11   0  -1   1.252   6.349   1
 -11   0   1  -3.665   7.592   1
 -11   0   1  -0.289    2.06   1
  11   0   0  -6.788   6.792   1
  11   0   0   3.955   5.603   1
 -11   0   0   3.124   7.855   1
 -11   0   0   1.808   2.278   1
  11   0   1 -0.2543    7.46   1
 -11   0  -1   3.312   8.518   1
  11   0   2   3.236   6.175   1
 -11   0  -2 -0.7787   2.555   1
  11   0   3   5.568   10.25   1
  11   0   3  -3.007    6.52   1
 -11   0  -3  -1.831   2.733   1
 -11   0  -3   7.961   12.05   1
  11   0   4   15.85   11.27   1
  11   0   4 -0.5099   7.021   1
 -11   0  -4  -1.997   3.182   1
 -11   0  -4   10.70   14.71   1
  11  -1  -9   4.184   8.929   1
  11  -1  -9   10.91   13.38   1
 -11  -1   9   1.502   11.79   1
 -11  -1   9   7.918   2.847   1
  11   1  -9   16.44   15.07   1
  11   1  -9   4.969   6.339   1
 -11   1   9   7.774   3.076   1
 -11   1   9   12.50   15.34   1
  11  -1  -8   55.68   12.30   1
  11  -1  -8   58.38   10.98   1
 -11  -1   8   44.09   12.60   1
 -11  -1   8   58.27   6.348   1
  11   1  -8   69.83   14.90   1
  11   1  -8   51.97   9.618   1
 -11   1   8   75.61   7.871   1
 -11   1   8   48.85   14.27   1
  11  -1  -7   41.21   10.32   1
  11  -1  -7   36.92   8.886   1
 -11  -1   7   23.02   11.04   1
 -11  -1   7   46.18   5.208   1
  11   1  -7   44.41   8.538   1
  11   1  -7   21.27   10.03   1
 -11   1   7   41.02    4.76   1
 -11   1   7   31.16   11.49   1
  11  -1  -6   5.303   7.562   1
  11  -1  -6  -4.584   6.409   1
 -11  -1   6   11.51   10.10   1
 -11  -1   6   6.026   2.046   1
  11   1  -6   -2.74   7.587   1
  11   1  -6   3.055   5.862   1
 -11   1   6   4.391   1.964   1
 -11   1   6   5.686   10.01   1
  11  -1  -5  165.10   18.57   1
  11  -1  -5  210.00   22.86   1
 -11  -1   5  209.10   20.02   1
 -11  -1   5  204.10   23.02   1
  11   1  -5  185.00   20.85   1
  11   1  -5  194.80   20.52   1
 -11   1   5  152.40   18.91   1
 -11   1   5  202.50   19.42   1
  11  -1  -4  128.00   15.12   1
  11  -1  -4  157.10   17.85   1
 -11  -1   4  137.60   13.36   1
 -11  -1   4  141.00   17.53   1
  11   1  -4  162.00   18.36   1
  11   1  -4  156.30   17.17   1
 -11   1   4  133.10   17.09   1
 -11   1   4  135.10   13.16   1
  11  -1  -3   90.09   11.60   1
 -11  -1   3  109.40   14.33   1
 -11  -1   3   95.55   9.482   1
  11   1  -3   92.64   12.49   1
  11   1  -3   84.60   11.06   1
 -11   1   3   84.22   12.68   1
 -11   1   3   89.32   9.023   1
  11  -1  -2   61.98   9.089   1
  11  -1  -2   63.59   10.17   1
 -11  -1   2   48.17   9.672   1
 -11  -1   2   55.45   5.892   1
  11   1  -2   62.43   9.651   1
  11   1  -2   61.50   9.288   1
 -11   1   2   43.08   9.627   1
 -11   1   2   58.66   6.302   1
  11  -1  -1  0.9736   5.363   1
  11  -1  -1  0.3363   6.784   1
 -11  -1   1   4.172   7.468   1
 -11  -1   1   2.105   1.928   1
  11   1  -1   1.115   5.959   1
  11   1  -1    3.64   6.071   1
 -11   1   1 0.05337   2.248   1
 -11   1   1  -1.899   8.301   1
  11  -1   0   19.69   6.301   1
  11  -1   0   12.25    7.83   1
 -11  -1   0   23.46   3.418   1
 -11  -1   0   21.81   8.183   1
  11   1   0   19.82   6.876   1
  11   1   0   27.17   7.377   1
 -11   1   0   18.15   9.182   1
 -11   1   0   24.41   3.784   1
  11  -1   1   3.479    8.67   1
 -11  -1  -1   9.192   8.041   1
  11   1   1   12.98   6.918   1
 -11   1  -1   15.69   10.39   1
  11  -1   2   12.48    5.99   1
 -11  -1  -2   2.891   2.739   1
  11   1   2   8.024   6.686   1
 -11   1  -2   8.318   3.188   1
  11  -1   3   23.87   7.399   1
  11  -1   3   18.98   12.06   1
 -11  -1  -3   11.49   11.83   1
 -11  -1  -3   19.78    3.46   1
  11   1   3   35.57   11.19   1
  11   1   3   16.99   7.659   1
 -11   1  -3   12.11   3.587   1
 -11   1  -3   2.607   13.96   1
  11  -1   4  -3.439   11.89   1
 -11  -1  -4   1.357   2.943   1
 -11  -1  -4   28.19   13.90   1
  11   1   4  -3.201   7.269   1
  11   1   4  -1.758   10.33   1
 -11   1  -4   21.32   16.86   1
  11  -2  -9   2.181   11.99   1
  11  -2  -9 -0.3246   10.12   1
 -11  -2   9  -4.055   11.90   1
  11   2  -9   15.66   15.21   1
  11   2  -9  -4.327    6.42   1
 -11   2   9   23.66   17.64   1
 -11   2   9   3.408    3.06   1
  11  -2  -8   -4.16   8.776   1
  11  -2  -8   5.706   8.802   1
 -11  -2   8 -0.4898   11.54   1
 -11  -2   8 0.09929   2.057   1
  11   2  -8  -18.03   12.12   1
  11   2  -8  -3.294   6.909   1
 -11   2   8   1.023   2.141   1
 -11   2   8   2.789   12.88   1
  11  -2  -7   -5.40   8.172   1
 -11  -2   7  -11.60   9.618   1
 -11  -2   7  0.1162   1.888   1
  11   2  -7   4.853   6.214   1
  11   2  -7  -1.877   10.05   1
  11  -2  -6   8.751   7.304   1
  11  -2  -6 -0.7097   7.282   1
 -11  -2   6    4.37    1.90   1
 -11  -2   6   4.833   9.537   1
  11   2  -6   3.071   5.782   1
  11   2  -6   22.55   8.599   1
 -11   2   6-0.02994   10.53   1
 -11   2   6    1.96   1.864   1
  11  -2  -5    4.29   6.638   1
  11  -2  -5   -1.79   6.841   1
 -11  -2   5   7.185   9.076   1
 -11  -2   5   1.514   1.681   1
  11   2  -5   7.861   7.202   1
  11   2  -5   1.122    6.10   1
 -11   2   5 -0.7474   1.869   1
 -11   2   5   14.07   10.04   1
  11  -2  -4   5.264   7.641   1
  11  -2  -4   1.035   6.068   1
 -11  -2   4    1.67   1.755   1
 -11  -2   4   4.019   8.727   1
  11   2  -4  -7.695   6.811   1
  11   2  -4  -4.047   6.348   1
 -11   2   4   13.19    9.72   1
 -11   2   4  0.8577    1.90   1
  11  -2  -3   8.456   5.668   1
  11  -2  -3   9.575   7.049   1
 -11  -2   3   2.062   1.708   1
 -11  -2   3   7.337   8.209   1
  11   2  -3  -1.907   6.451   1
  11   2  -3   6.665   6.409   1
 -11   2   3  -2.811   8.776   1
 -11   2   3   1.997   2.235   1
  11  -2  -2   6.556   7.364   1
  11  -2  -2 -0.7614    5.55   1
 -11  -2   2  -2.208   7.576   1
 -11  -2   2   1.276   1.727   1
  11   2  -2   3.932   6.211   1
  11   2  -2  -4.022   6.718   1
 -11   2   2   2.212   2.235   1
 -11   2   2  -3.788   8.622   1
  11  -2  -1   2.892   7.965   1
  11  -2  -1  -1.405   5.077   1
 -11  -2   1   1.443   1.856   1
 -11  -2   1   4.378   7.391   1
  11   2  -1   -3.10   6.358   1
  11   2  -1   4.572   5.749   1
 -11   2   1   2.798   2.452   1
 -11   2   1  -12.52    8.81   1
  11  -2   0   4.064   5.184   1
  11  -2   0  -3.773   8.219   1
 -11  -2   0  0.0954   2.016   1
 -11  -2   0  -2.905   7.433   1
  11   2   0  -6.873   6.316   1
  11   2   0   -2.82   6.047   1
 -11   2   0  -1.868   10.05   1
 -11   2   0  0.7443   2.676   1
  11  -2   1   15.03   9.363   1
 -11  -2  -1   25.00   8.713   1
  11   2   1   21.47   6.798   1
 -11   2  -1   15.53   11.14   1
  11  -2   2   14.62   10.05   1
  11  -2   2   12.34   5.546   1
 -11  -2  -2   21.84   3.487   1
  11   2   2   17.62   7.715   1
 -11   2  -2   23.50   13.10   1
 -11   2  -2   14.56   3.952   1
  11  -2   3   10.45   11.51   1
  11  -2   3  -10.51   5.877   1
 -11  -2  -3    2.96   9.866   1
 -11  -2  -3   1.487   2.334   1
  11   2   3  -3.132    7.52   1
  11   2   3  -3.727   9.027   1
 -11   2  -3   0.789   3.338   1
 -11   2  -3  -4.542   14.95   1
  11  -2   4   5.268   11.61   1
 -11  -2  -4  -1.909   2.762   1
 -11  -2  -4  -8.474   12.28   1
  11   2   4 -0.5401    7.83   1
  11   2   4   3.321   9.141   1
 -11   2  -4   5.743   17.16   1
  11  -3  -9   37.18   12.27   1
  11  -3  -9   50.84   13.56   1
 -11  -3   9   48.63   5.859   1
  11   3  -9   49.16   16.66   1
  11   3  -9   24.40   7.782   1
 -11   3   9   41.83   19.03   1
 -11   3   9   50.82   6.221   1
  11  -3  -8   56.29   13.31   1
  11  -3  -8   50.46   11.31   1
 -11  -3   8   65.04   14.97   1
  11   3  -8   66.95   10.69   1
 -11   3   8   82.03   8.469   1
 -11   3   8   70.73   18.77   1
  11  -3  -7   55.01   10.57   1
  11  -3  -7   24.93   10.56   1
 -11  -3   7   26.01   11.40   1
 -11  -3   7   26.06   3.522   1
  11   3  -7   26.12   7.099   1
  11   3  -7   41.90   12.78   1
 -11   3   7   26.11   3.539   1
 -11   3   7   21.90   13.16   1
  11  -3  -6  -3.607   7.867   1
  11  -3  -6    6.47   7.428   1
 -11  -3   6   28.87   10.57   1
 -11  -3   6   6.018   1.989   1
  11   3  -6   3.356   8.666   1
  11   3  -6   9.744   5.931   1
 -11   3   6   8.131   2.305   1
 -11   3   6   4.532   11.28   1
  11  -3  -5   30.14   8.116   1
  11  -3  -5   37.53   9.333   1
 -11  -3   5   28.26   10.19   1
 -11  -3   5   29.09   3.567   1
  11   3  -5   31.06   7.171   1
  11   3  -5   23.98   8.448   1
 -11   3   5   29.48   3.748   1
 -11   3   5   29.13   11.42   1
  11  -3  -4   83.54   12.84   1
  11  -3  -4  111.40   13.40   1
 -11  -3   4  125.10   16.27   1
 -11  -3   4   95.43   9.461   1
  11   3  -4  103.80   12.47   1
  11   3  -4   84.87   12.25   1
 -11   3   4   98.20   9.856   1
 -11   3   4   96.79   15.30   1
  11  -3  -3  161.30   17.52   1
  11  -3  -3  156.80   18.79   1
 -11  -3   3  191.40   21.32   1
 -11  -3   3  166.80   16.05   1
  11   3  -3  162.90   18.46   1
  11   3  -3  174.10   18.69   1
 -11   3   3  187.90   18.23   1
 -11   3   3  146.30   19.04   1
  11  -3  -2  107.50   12.60   1
  11  -3  -2  125.00   16.42   1
 -11  -3   2  120.40   15.05   1
 -11  -3   2  112.90   11.07   1
  11   3  -2  118.50   13.84   1
  11   3  -2  126.20   15.21   1
 -11   3   2  134.10   13.36   1
 -11   3   2  109.60   15.92   1
  11  -3  -1   30.97   10.57   1
  11  -3  -1   22.11   5.844   1
 -11  -3   1   18.79   8.149   1
 -11  -3   1   18.08    2.79   1
  11   3  -1   20.43   6.517   1
  11   3  -1   16.31   7.261   1
 -11   3   1   20.68   3.709   1
 -11   3   1   23.59   11.46   1
  11  -3   0    9.54   9.772   1
  11  -3   0   10.09   5.059   1
 -11  -3   0   11.66   7.864   1
 -11  -3   0   14.11   2.542   1
  11   3   0   16.30   7.262   1
  11   3   0   1.784   5.749   1
 -11   3   0   13.45   3.555   1
 -11   3   0   16.43   11.20   1
  11  -3   1  244.70   27.27   1
  11  -3   1  179.10   18.78   1
 -11  -3  -1  168.30   19.13   1
  11   3   1  167.30   18.06   1
 -11   3  -1  167.30   22.64   1
 -11   3  -1  210.90   20.72   1
  11  -3   2  144.60   15.71   1
  11  -3   2  190.50   22.98   1
 -11  -3  -2  105.40   14.78   1
 -11  -3  -2  131.60   13.00   1
  11   3   2  155.40   18.34   1
 -11   3  -2  171.40   23.04   1
 -11   3  -2  161.10   16.22   1
  11  -3   3   55.45   14.49   1
  11  -3   3   41.75   7.771   1
 -11  -3  -3   28.40   10.72   1
 -11  -3  -3   46.30   5.353   1
  11   3   3   53.04   10.66   1
  11   3   3   55.94   10.47   1
 -11   3  -3   55.46   18.02   1
 -11   3  -3   44.17   6.245   1
  11  -3   4   0.764   11.99   1
 -11  -3  -4  0.4506   11.84   1
  11   3   4  -2.167   8.879   1
  11   3   4  -4.383   9.342   1
  11  -4  -9    1.50   9.041   1
  11  -4  -9   1.978   10.22   1
 -11  -4   9  0.3908    2.69   1
 -11  -4   9  -12.02   12.15   1
  11   4  -9 -0.2514   6.816   1
  11   4  -9  -16.73   13.51   1
 -11   4   9   1.588   3.035   1
 -11   4   9  -12.44   14.91   1
  11  -4  -8  -3.521   9.458   1
  11  -4  -8   15.48   12.00   1
 -11  -4   8-0.00313   2.116   1
  11   4  -8   9.301   14.40   1
 -11   4   8 -0.8183   2.317   1
 -11   4   8   22.30   18.32   1
  11  -4  -7   11.06   10.84   1
  11  -4  -7   15.44   7.988   1
 -11  -4   7  -10.27   9.768   1
  11   4  -7   0.391   5.443   1
 -11   4   7  -12.46   14.38   1
 -11   4   7   2.061   1.949   1
  11  -4  -6   11.23   8.835   1
  11  -4  -6   7.809   7.488   1
 -11  -4   6 -0.1501   9.455   1
 -11  -4   6 -0.7232   1.733   1
  11   4  -6  0.6188   5.384   1
  11   4  -6  -3.497   9.009   1
 -11   4   6  -4.256   12.34   1
 -11   4   6 -0.7658   2.043   1
  11  -4  -5  -7.243   6.297   1
  11  -4  -5   10.12    8.95   1
 -11  -4   5  -1.437   9.325   1
 -11  -4   5  0.4276   1.801   1
  11   4  -5  -6.426   5.361   1
  11   4  -5    2.00   8.041   1
 -11   4   5   2.531   11.94   1
 -11   4   5  0.1405    2.14   1
  11  -4  -4   11.39   9.118   1
  11  -4  -4   2.227   5.841   1
 -11  -4   4   2.615   1.748   1
 -11  -4   4   1.166   8.557   1
  11   4  -4   1.738   5.785   1
  11   4  -4  0.1459   7.203   1
 -11   4   4   2.227   2.299   1
 -11   4   4   12.17   11.69   1
  11  -4  -3  -2.225   8.911   1
  11  -4  -3   4.181   5.313   1
 -11  -4   3   10.29   8.388   1
 -11  -4   3 -0.9563   1.618   1
  11   4  -3   4.622   5.951   1
  11   4  -3  -0.641   6.912   1
 -11   4   3   5.205   11.19   1
 -11   4   3  0.8958   2.543   1
  11  -4  -2  -4.419   4.646   1
  11  -4  -2  -1.238   9.228   1
 -11  -4   2  0.6486   1.611   1
 -11  -4   2   4.214   8.146   1
  11   4  -2  -6.151   5.964   1
  11   4  -2  -13.16   6.825   1
 -11   4   2 -0.3044   2.728   1
 -11   4   2  -5.226   11.25   1
  11  -4  -1  -2.627   9.935   1
  11  -4  -1   4.618   4.712   1
 -11  -4   1   3.925   1.859   1
 -11  -4   1   4.326   7.829   1
  11   4  -1  -1.779   6.114   1
  11   4  -1   4.699   7.086   1
 -11   4   1  -17.32   11.67   1
 -11   4   1    2.12   2.881   1
  11  -4   0  -6.973   10.11   1
 -11  -4   0   6.987   7.732   1
 -11  -4   0   5.151   2.216   1
  11   4   0   8.221   6.211   1
 -11   4   0  -4.267   11.62   1
  11  -4   1 -0.3876   5.131   1
 -11  -4  -1   1.569   8.215   1
 -11  -4  -1-0.06256   2.007   1
  11   4   1   3.871   5.606   1
  11   4   1    4.72   6.822   1
 -11   4  -1   3.331   3.386   1
  11  -4   2   -2.20   5.476   1
  11  -4   2  -2.311   10.85   1
 -11  -4  -2  0.5595   8.543   1
 -11  -4  -2   2.898   2.176   1
  11   4   2   5.104   7.569   1
  11   4   2  0.4819   6.699   1
 -11   4  -2   3.676   3.457   1
 -11   4  -2   3.672   14.15   1
  11  -4   3   10.17    6.38   1
  11  -4   3   4.032   11.03   1
 -11  -4  -3   2.189    2.23   1
 -11  -4  -3   10.03    9.33   1
  11   4   3   7.844   7.765   1
  11   4   3   8.409   8.051   1
 -11   4  -3  -25.37   17.39   1
 -11   4  -3   9.555   4.126   1
 -11  -4  -4   4.342   10.93   1
  11   4   4    9.23   9.452   1
  11  -5  -9   7.285   8.762   1
 -11  -5   9   19.48   12.60   1
 -11  -5   9   36.68   4.835   1
  11   5  -9   31.51   8.276   1
  11   5  -9   28.97   14.76   1
  11  -5  -8   97.95   17.87   1
  11  -5  -8   76.03   14.23   1
 -11  -5   8   69.69   14.79   1
 -11  -5   8  107.70   10.86   1
  11   5  -8  102.70   20.78   1
  11   5  -8   94.89   12.06   1
 -11   5   8   70.17   24.48   1
  11  -5  -7  104.90   19.21   1
  11  -5  -7  102.10   14.29   1
 -11  -5   7  105.10   10.50   1
  11   5  -7  116.50   20.22   1
 -11   5   7   93.66    9.47   1
 -11   5   7  127.90   24.12   1
  11  -5  -6   28.68   11.72   1
  11  -5  -6   14.53   7.762   1
 -11  -5   6   13.93   8.654   1
  11   5  -6   10.80   11.32   1
  11   5  -6   9.405   4.994   1
 -11   5   6   18.42    3.13   1
 -11   5   6   15.42   15.16   1
  11  -5  -5   32.94   7.636   1
  11  -5  -5   35.49   11.00   1
 -11  -5   5   38.20   9.769   1
 -11  -5   5   22.95   3.318   1
  11   5  -5   37.69   6.678   1
 -11   5   5   38.85   4.846   1
 -11   5   5   25.76   13.97   1
  11  -5  -4   44.51   8.076   1
  11  -5  -4   23.43   11.53   1
 -11  -5   4   45.04   10.08   1
 -11  -5   4   32.48   3.858   1
  11   5  -4   21.75   9.208   1
 -11   5   4   38.35   4.861   1
 -11   5   4   38.84   14.62   1
  11  -5  -3  164.60   21.08   1
  11  -5  -3   98.51   11.72   1
 -11  -5   3  115.80   15.00   1
 -11  -5   3  115.30   11.28   1
  11   5  -3  103.00   13.76   1
  11   5  -3  128.90   14.31   1
 -11   5   3   99.73   17.94   1
 -11   5   3  135.00   13.57   1
  11  -5  -2  137.30   19.78   1
 -11  -5   2  113.10   11.10   1
 -11  -5   2  128.30   15.91   1
  11   5  -2  103.70   13.69   1
  11   5  -2  151.10   16.25   1
 -11   5   2  123.70   19.93   1
 -11   5   2  126.30   12.96   1
  11  -5  -1   22.60   11.20   1
  11  -5  -1    6.77   4.982   1
 -11  -5   1   14.61   8.146   1
 -11  -5   1    3.94    2.01   1
  11   5  -1   10.51   5.779   1
 -11   5   1    6.06   12.32   1
 -11   5   1   6.458   3.197   1
  11  -5   0  122.10   13.49   1
  11  -5   0  182.00   23.11   1
 -11  -5   0  147.60   17.61   1
 -11  -5   0  160.20   15.72   1
  11   5   0  171.60   18.16   1
  11   5   0  132.60   16.52   1
 -11   5   0  169.30   16.88   1
 -11   5   0  129.80   20.80   1
  11  -5   1  159.20   20.93   1
  11  -5   1  166.90   17.41   1
 -11  -5  -1  186.40   18.01   1
  11   5   1  132.90   16.41   1
 -11   5  -1  135.60   21.44   1
 -11   5  -1  166.80   16.72   1
  11  -5   2  199.40   20.53   1
  11  -5   2  196.10   24.09   1
 -11  -5  -2  167.30   19.37   1
 -11  -5  -2  168.80   16.38   1
  11   5   2  177.30   20.58   1
  11   5   2  155.00   17.33   1
 -11   5  -2  188.50   18.83   1
 -11   5  -2  232.00   30.31   1
  11  -5   3  127.40   18.60   1
 -11  -5  -3   83.19   13.51   1
 -11  -5  -3   91.91   9.355   1
  11   5   3  102.60   13.14   1
  11   5   3  113.10   15.17   1
 -11  -5  -4   7.473   10.53   1
  11   5   4   -2.55   8.574   1
 -11  -6   9   4.529   9.095   1
  11   6  -9  -5.427   5.776   1
  11  -6  -8   4.786   13.47   1
  11  -6  -8  -14.08   9.964   1
 -11  -6   8   3.654   10.71   1
 -11  -6   8   -2.42   2.206   1
  11   6  -8  -8.572   5.311   1
  11   6  -8  -4.665   15.64   1
 -11   6   8  -8.027   24.60   1
 -11   6   8   1.812   2.914   1
  11  -6  -7    1.55   8.248   1
  11  -6  -7   5.944   12.81   1
 -11  -6   7   1.942   1.912   1
 -11  -6   7   7.464   9.044   1
  11   6  -7  0.3743   4.692   1
  11   6  -7  -14.20   13.95   1
 -11   6   7  -20.34   20.16   1
 -11   6   7   1.198   2.251   1
  11  -6  -6  -18.08   11.74   1
  11  -6  -6    4.03   7.314   1
 -11  -6   6   0.912   1.805   1
  11   6  -6   1.571   4.564   1
  11   6  -6   14.41   11.69   1
 -11   6   6  -19.44   17.49   1
 -11   6   6   3.285   2.404   1
  11  -6  -5   11.99   6.626   1
  11  -6  -5   -4.15   10.17   1
 -11  -6   5    3.02   1.812   1
 -11  -6   5   2.326   7.941   1
  11   6  -5   18.13   9.418   1
  11   6  -5  -3.437   4.539   1
 -11   6   5  -6.868   14.22   1
 -11   6   5 -0.6914   2.562   1
  11  -6  -4   1.201   10.01   1
  11  -6  -4   2.078   6.433   1
  11   6  -4  -13.99   8.995   1
  11   6  -4  0.3013   4.553   1
 -11   6   4  -3.298   13.48   1
 -11   6   4   1.522   2.842   1
  11  -6  -3  -6.061   10.86   1
  11  -6  -3   7.622   4.957   1
 -11  -6   3  -7.086   7.295   1
  11   6  -3  -5.514   4.701   1
 -11   6   3  -13.66   14.40   1
 -11   6   3  -1.378   3.054   1
  11  -6  -2   5.351   10.85   1
  11  -6  -2  -5.347    5.31   1
 -11  -6   2   4.795   7.565   1
  11   6  -2  -5.138   5.144   1
 -11   6   2  0.8923   13.68   1
 -11   6   2  -2.147   3.119   1
  11  -6  -1  -8.853   11.01   1
 -11  -6   1   1.263   8.285   1
 -11  -6   1  0.4444   1.824   1
  11   6  -1   2.077   7.247   1
  11   6  -1    0.92   5.193   1
 -11   6   1  -3.402   13.37   1
  11  -6   0    2.51   4.606   1
 -11  -6   0   2.682    1.94   1
  11   6   0   12.90   7.228   1
 -11   6   0  -1.189   3.143   1
  11  -6   1  -2.521   9.961   1
  11  -6   1   2.747   4.646   1
 -11  -6  -1    1.42   2.044   1
  11   6   1  -2.324   7.441   1
  11   6   1    1.45   6.175   1
 -11   6  -1   7.219   3.499   1
 -11   6  -1   4.603   13.74   1
  11  -6   2   3.415   10.97   1
  11  -6   2  -1.638   4.897   1
 -11  -6  -2   10.42   8.176   1
 -11  -6  -2   1.104   1.978   1
  11   6   2  -7.787   6.267   1
  11   6   2   8.449    7.82   1
 -11   6  -2  -17.77   16.00   1
 -11   6  -2  -2.412   3.533   1
 -11  -6  -3  -11.12   8.528   1
 -11  -6  -3   1.877   2.204   1
  11   6   3   4.394   7.959   1
  11   6   3   5.636   6.856   1
  11  -7  -8   86.03   14.68   1
  11  -7  -8   43.40   12.74   1
 -11  -7   8   48.64   12.51   1
  11   7  -8   58.28   8.354   1
 -11   7   8   71.49   23.39   1
  11  -7  -7   80.56   15.94   1
  11  -7  -7  108.90   15.27   1
 -11  -7   7   71.90   11.81   1
 -11  -7   7   96.94   9.771   1
  11   7  -7   83.45   9.914   1
  11   7  -7  103.70   21.86   1
 -11   7   7   72.65   24.40   1
 -11   7   7  102.80   10.44   1
  11  -7  -6   33.81    8.29   1
 -11  -7   6   26.17   3.416   1
 -11  -7   6   15.36   7.647   1
  11   7  -6   32.66   5.615   1
  11   7  -6   32.04   14.52   1
 -11   7   6   43.67   20.47   1
 -11   7   6   34.16   4.551   1
  11  -7  -5   5.559   11.93   1
  11  -7  -5   2.143   6.675   1
 -11  -7   5  -1.713   7.354   1
 -11  -7   5 -0.6414   1.743   1
  11   7  -5   6.823   4.221   1
  11   7  -5  0.6756   10.38   1
 -11   7   5   12.62   17.11   1
 -11   7   5   4.822   2.944   1
  11  -7  -4   29.90   7.231   1
  11  -7  -4   45.69   12.47   1
 -11  -7   4   24.23   3.184   1
  11   7  -4   19.87    9.69   1
 -11   7   4   48.60   16.06   1
 -11   7   4   31.88   4.738   1
  11  -7  -3   98.83   11.95   1
  11  -7  -3  145.60   19.72   1
 -11  -7   3  130.80   12.77   1
  11   7  -3   93.70   13.82   1
 -11   7   3  132.70   13.60   1
 -11   7   3   99.28   19.06   1
  11  -7  -2  110.40   16.98   1
 -11  -7   2   90.16   9.058   1
  11   7  -2   87.90   13.01   1
 -11   7   2   88.06   19.30   1
  11  -7  -1    6.97    4.57   1
 -11  -7   1   5.369   8.844   1
 -11  -7   1 -0.4478   1.835   1
  11   7  -1   8.468   7.298   1
 -11   7   1  0.9379   3.069   1
  11  -7   0   41.59   6.845   1
  11  -7   0   74.38   14.16   1
 -11  -7   0   44.68   10.15   1
 -11  -7   0   40.78   4.683   1
  11   7   0   55.58   8.192   1
  11   7   0   44.96   9.438   1
 -11   7   0   37.72   5.229   1
 -11   7   0   19.73   14.92   1
  11  -7   1  259.30   25.96   1
  11  -7   1  210.10   25.31   1
 -11  -7  -1  243.70   26.03   1
 -11  -7  -1  237.20   22.75   1
  11   7   1  235.90   24.28   1
  11   7   1  226.20   24.95   1
 -11   7  -1  237.80   23.28   1
 -11   7  -1  236.70   30.32   1
  11  -7   2  194.80   23.41   1
 -11  -7  -2  173.70   20.17   1
 -11  -7  -2  198.60   19.17   1
  11   7   2  200.10   21.25   1
  11   7   2  161.80   19.72   1
 -11   7  -2  169.40   25.83   1
 -11  -7  -3   87.22   13.36   1
  11   7   3   71.28   10.76   1
  11  -8  -8  -4.509   9.527   1
  11  -8  -8  -3.434   7.082   1
 -11   8   8  -11.14   13.89   1
 -11   8   8   3.345   3.413   1
  11  -8  -7  -3.226   11.41   1
  11  -8  -7  -2.098   9.098   1
 -11  -8   7   6.633   8.664   1
  11   8  -7  -1.115   4.369   1
 -11   8   7   3.401   21.01   1
 -11   8   7  0.7933   2.858   1
  11  -8  -6    3.28   7.478   1
  11  -8  -6  -14.89   12.64   1
 -11  -8   6   5.625   2.169   1
 -11  -8   6   1.456   7.477   1
  11   8  -6  -12.61   15.18   1
  11   8  -6   7.069   4.159   1
 -11   8   6   8.625   3.151   1
 -11   8   6 -0.6928   21.20   1
  11  -8  -5   6.927   7.087   1
  11  -8  -5  -2.498   11.86   1
 -11  -8   5  0.6668   7.168   1
 -11  -8   5   8.783   2.148   1
  11   8  -5   4.785    4.01   1
  11   8  -5   2.618   11.42   1
 -11   8   5   14.58   3.806   1
 -11   8   5  -5.698   18.50   1
  11  -8  -4   1.312   11.34   1
  11  -8  -4  0.2467   6.302   1
 -11  -8   4   2.119   1.786   1
 -11  -8   4   2.208   6.678   1
  11   8  -4   1.875   10.41   1
  11   8  -4   6.666   4.032   1
 -11   8   4   5.094   16.81   1
 -11   8   4  -2.612   3.273   1
  11  -8  -3   2.443   10.73   1
 -11  -8   3   1.481   6.457   1
 -11  -8   3  -1.902   1.685   1
  11   8  -3 -0.1642   3.922   1
  11   8  -3  -2.635   9.267   1
 -11   8   3   -3.76   15.34   1
  11  -8  -2   6.805   4.682   1
 -11  -8   2   4.192   6.727   1
 -11  -8   2   1.433   1.766   1
  11   8  -2  0.5735   4.292   1
  11   8  -2   10.76   8.694   1
 -11   8   2   2.608    3.22   1
  11  -8  -1 -0.7039   10.62   1
  11  -8  -1  0.3922    4.67   1
 -11  -8   1  0.6341   7.084   1
 -11  -8   1    1.48   1.851   1
  11   8  -1   -2.86    8.18   1
  11   8  -1    3.63   4.614   1
 -11   8   1   1.525    3.02   1
 -11   8   1  -7.168   15.14   1
  11  -8   0   3.175   10.83   1
  11  -8   0   6.112   4.917   1
 -11  -8   0  0.4841   1.896   1
 -11  -8   0   5.302   8.176   1
  11   8   0  -2.986   5.519   1
  11   8   0   6.791   8.172   1
 -11   8   0   0.352   15.53   1
 -11   8   0 0.00041   3.223   1
  11  -8   1  0.5412   10.93   1
  11  -8   1   3.706    5.36   1
 -11  -8  -1   3.623   2.082   1
 -11  -8  -1   8.327   8.459   1
  11   8   1  -3.989   8.369   1
  11   8   1   1.941    6.45   1
 -11   8  -1   0.253   3.594   1
 -11   8  -1  -7.513   14.65   1
 -11  -8  -2 -0.1071   2.059   1
 -11  -8  -2  -2.134   9.132   1
  11   8   2  -3.256   8.806   1
  11   8   2   2.525   6.409   1
  11   8   3   -8.92   7.238   1
  11  -9  -7   14.14   10.33   1
  11  -9  -7   8.209    9.31   1
 -11   9   7   3.517   20.91   1
 -11   9   7   16.76   3.949   1
  11  -9  -6   17.37   12.18   1
 -11  -9   6  -1.116   7.386   1
  11   9  -6   1.573   3.838   1
 -11   9   6  -10.07   19.87   1
 -11   9   6   3.891   3.292   1
  11  -9  -5   10.29   11.80   1
 -11  -9   5    6.54   2.118   1
 -11  -9   5   1.609   7.292   1
  11   9  -5   10.41   14.75   1
  11   9  -5  0.8245   3.917   1
 -11   9   5   2.135   18.81   1
  11  -9  -4   44.86   13.57   1
  11  -9  -4   65.71   9.471   1
 -11  -9   4   66.06    6.84   1
 -11  -9   4   60.40   9.744   1
  11   9  -4   57.12   7.268   1
  11   9  -4   85.60   16.53   1
 -11   9   4   36.74   17.91   1
 -11   9   4   66.09   7.799   1
  11  -9  -3   65.83   9.147   1
 -11  -9   3   65.19   6.771   1
 -11  -9   3   61.13   9.697   1
  11   9  -3   53.14   12.97   1
  11   9  -3   62.46   7.757   1
 -11   9   3   72.93   8.215   1
  11  -9  -2   18.48    5.82   1
  11  -9  -2  -1.604   11.17   1
 -11  -9   2   15.61    2.64   1
 -11  -9   2   19.61   7.202   1
  11   9  -2   15.82   4.594   1
  11   9  -2   34.73   11.15   1
 -11   9   2   8.762   17.22   1
 -11   9   2   15.87    3.93   1
  11  -9  -1-0.05438    4.92   1
 -11  -9   1   4.932   1.926   1
 -11  -9   1   3.586   6.909   1
  11   9  -1   1.095   4.597   1
  11   9  -1  -2.436   9.089   1
 -11   9   1   1.912   3.298   1
 -11   9   1  -6.323   15.66   1
  11  -9   0   92.51   15.98   1
  11  -9   0   82.78   10.43   1
 -11  -9   0   93.38   9.386   1
 -11  -9   0   82.51   12.23   1
  11   9   0   77.39   13.06   1
  11   9   0   74.39   9.893   1
 -11   9   0   83.50   9.246   1
 -11   9   0   97.76   19.95   1
  11  -9   1   73.78   15.18   1
 -11  -9  -1   67.29   7.372   1
  11   9   1   57.52   13.76   1
 -11   9  -1  119.90   23.33   1
  11   9   2  129.40   15.30   1
  11 -10  -7  0.5882   7.268   1
  11 -10  -7   1.105   8.779   1
 -11  10   7   7.048   13.51   1
  11 -10  -6  -7.561   8.305   1
 -11  10   6   7.738   21.65   1
 -11  10   6  -1.065   4.024   1
  11 -10  -5   7.017   6.654   1
 -11  10   5   3.719   3.832   1
  11 -10  -4   6.133   10.78   1
  11 -10  -4  -4.663   5.559   1
 -11 -10   4   -6.07    6.70   1
  11  10  -4   1.971    3.90   1
 -11  10   4   1.411    3.54   1
 -11  10   4   26.96   19.78   1
  11 -10  -3    2.14   5.043   1
  11 -10  -3   10.13   10.53   1
 -11 -10   3  -3.766   6.233   1
  11  10  -3   4.444   3.706   1
 -11  10   3   2.117   16.59   1
 -11  10   3   3.894   3.259   1
  11 -10  -2   22.90   11.92   1
  11 -10  -2  -1.433   5.174   1
 -11 -10   2    8.78    6.68   1
 -11 -10   2   1.186   1.895   1
  11  10  -2 -0.1963   3.744   1
  11  10  -2   10.08   12.22   1
 -11  10   2   1.112   3.278   1
 -11  10   2  -7.968   17.06   1
  11 -10  -1  -16.58   10.76   1
  11 -10  -1   5.494   5.074   1
 -11 -10   1  0.3911   7.185   1
  11  10  -1  -1.592   4.421   1
 -11  10   1   4.548   3.537   1
 -11  10   1    3.45   17.41   1
  11 -10   0  -13.89   11.21   1
  11  10   0    5.92   5.341   1
 -11  10   0   1.865   16.44   1
  11 -11  -7   3.412   6.685   1
  11 -11  -7   17.78   7.652   1
  11 -11  -6    5.95   8.627   1
  11 -11  -6  -1.485   7.871   1
 -11  11   6  -1.112   4.951   1
 -11  11   6  -2.228   13.10   1
  11 -11  -5   10.50   11.42   1
  11 -11  -5   23.28   9.391   1
 -11  11   5   27.11   5.542   1
 -11  11   5   24.81   22.23   1
  11 -11  -4   25.58   12.22   1
  11 -11  -4   29.97   7.129   1
 -11  11   4   7.412   19.88   1
 -11  11   4   39.66   5.902   1
  11 -11  -3   57.74   8.783   1
  11 -11  -3   33.52   12.15   1
 -11  11   3   59.42   7.268   1
 -11  11   3   27.89   19.32   1
  11 -11  -2   40.92   12.29   1
  11 -11  -2   36.67   7.828   1
 -11  11   2   54.07   20.03   1
 -11  11   2   49.86   6.721   1
  11 -11  -1   2.988   11.04   1
 -11  11   1  -13.65   17.55   1
  11 -12  -6   3.725   7.739   1
  11 -12  -6  -7.909   7.661   1
 -11  12   6   -2.25    6.11   1
 -11  12   6  0.2398   9.776   1
  11 -12  -5   3.622   7.473   1
  11 -12  -5   -4.44   7.703   1
 -11  12   5  -1.492   4.672   1
 -11  12   5  -7.631   11.91   1
  11 -12  -4   6.743   10.94   1
 -11  12   4  -12.96   18.48   1
  11 -12  -3   14.81   11.31   1
 -11  12   3   10.56   18.45   1
  11 -13  -6  -5.252   6.022   1
 -11  13   6   4.474   3.188   1
 -11  13   5   26.10    3.63   1
  12   0  -9 -0.1564   5.926   1
  12   0  -8   50.48   13.11   1
  12   0  -8   30.78   9.818   1
 -12   0   8   13.19   12.54   1
  12   0  -7   28.35   8.554   1
  12   0  -7   8.748   10.49   1
 -12   0   7   34.55   14.34   1
 -12   0   7   36.16   4.657   1
  12   0  -6   2.006   7.607   1
  12   0  -6   1.498   8.108   1
 -12   0   6    2.97   1.957   1
 -12   0   6  -4.962   11.08   1
  12   0  -5   4.331    7.52   1
  12   0  -5   2.674   7.797   1
 -12   0   5   7.379   2.065   1
 -12   0   5   2.229   10.08   1
  12   0  -4   10.41   7.514   1
  12   0  -4   17.85   8.254   1
 -12   0   4   12.76   2.491   1
 -12   0   4   16.76   10.40   1
  12   0  -3   35.30    9.21   1
  12   0  -3   30.08   8.577   1
 -12   0   3   35.28   11.10   1
 -12   0   3   31.47   3.931   1
  12   0  -2   42.83   9.368   1
  12   0  -2   64.09   10.62   1
 -12   0   2   51.45   5.637   1
 -12   0   2   63.95   12.29   1
  12   0  -1   44.00   9.453   1
  12   0  -1   48.67   9.528   1
 -12   0   1   55.24   6.088   1
 -12   0   1   45.16   11.07   1
  12   0   0   9.245   7.226   1
  12   0   0  0.7856   7.631   1
 -12   0   0   6.187   2.439   1
 -12   0   0  -10.54   9.636   1
  12   0   1   2.813   9.498   1
 -12   0  -1  -4.492   13.23   1
 -12  -1   9 -0.5876   5.935   1
  12  -1  -8   1.142   8.624   1
  12  -1  -8  -2.191   9.596   1
 -12  -1   8  0.5266   10.96   1
 -12  -1   8   1.726   2.728   1
  12   1  -8   3.808   7.699   1
  12   1  -8  -12.27   11.09   1
 -12   1   8   15.29   12.72   1
 -12   1   8   3.356   3.065   1
  12  -1  -7  -6.077   8.494   1
  12  -1  -7   -3.16   9.677   1
 -12  -1   7   2.628   2.289   1
 -12  -1   7  -1.736   12.05   1
  12   1  -7  -5.416   9.958   1
  12   1  -7   1.144   7.272   1
 -12   1   7  -13.64   14.44   1
 -12   1   7   2.162   2.357   1
  12  -1  -6   9.792   8.519   1
  12  -1  -6  0.7209   7.985   1
 -12  -1   6 -0.1209   10.66   1
 -12  -1   6  0.3492   1.871   1
  12   1  -6  -2.295   6.787   1
  12   1  -6  -7.789   8.154   1
 -12   1   6  -12.50   12.31   1
 -12   1   6 -0.4602   1.911   1
  12  -1  -5   1.647   7.598   1
  12  -1  -5  -3.636   7.817   1
 -12  -1   5 0.02114   9.535   1
 -12  -1   5  0.5986   1.755   1
  12   1  -5  -3.394    6.66   1
  12   1  -5  -8.551   7.766   1
 -12   1   5   -1.25   10.77   1
 -12   1   5  0.5094   1.751   1
  12  -1  -4   17.48   8.102   1
  12  -1  -4   5.303   7.831   1
 -12  -1   4   11.64   2.378   1
 -12  -1   4  -1.071   9.597   1
  12   1  -4  0.6459   7.247   1
  12   1  -4   13.82   8.227   1
 -12   1   4   5.789   10.32   1
 -12   1   4   12.82    2.52   1
  12  -1  -3  0.1632   7.353   1
  12  -1  -3  -6.781   7.824   1
 -12  -1   3  -14.09   9.236   1
 -12  -1   3   1.351   1.874   1
  12   1  -3 -0.5373   7.216   1
 -12   1   3 -0.5954   10.69   1
 -12   1   3   1.064   2.053   1
  12  -1  -2  -7.496   8.211   1
  12  -1  -2  -3.148   6.558   1
 -12  -1   2  -1.332   9.132   1
 -12  -1   2  0.7136   1.874   1
  12   1  -2   -8.56   7.143   1
  12   1  -2-0.03989   6.974   1
 -12   1   2 -0.7779   2.015   1
 -12   1   2 -0.2632   10.56   1
  12  -1  -1   5.453   8.297   1
  12  -1  -1   10.88   6.733   1
 -12  -1   1  -2.218   2.005   1
 -12  -1   1   -0.54   8.403   1
  12   1  -1   0.816   7.479   1
 -12   1   1   3.235   2.275   1
 -12   1   1   14.46   10.37   1
  12  -1   0   3.788   6.851   1
  12  -1   0   1.061   9.006   1
 -12  -1   0  -1.053   2.181   1
 -12  -1   0  -6.533   8.578   1
  12   1   0  0.8064   7.287   1
  12   1   0   -1.37   7.445   1
 -12   1   0  -8.086   10.75   1
 -12   1   0-0.04476   2.491   1
  12  -1   1   36.64   11.83   1
 -12  -1  -1   19.91   12.32   1
  12   1   1   33.88   9.789   1
 -12   1  -1   21.24   13.71   1
  12  -2  -8   18.78   9.607   1
  12  -2  -8   44.51   10.84   1
 -12  -2   8   32.71   11.13   1
  12   2  -8   21.01   7.627   1
 -12   2   8   33.10   5.248   1
 -12   2   8   14.30   12.72   1
  12  -2  -7   48.01   12.02   1
  12  -2  -7   49.56   11.50   1
 -12  -2   7   34.96   13.64   1
 -12  -2   7   56.50   6.341   1
  12   2  -7   50.57   13.44   1
  12   2  -7   35.58   8.488   1
 -12   2   7   15.31   15.61   1
  12  -2  -6   11.45   9.126   1
  12  -2  -6   28.13   9.071   1
 -12  -2   6   18.68   2.873   1
 -12  -2   6   12.60   11.27   1
  12   2  -6   27.87   9.718   1
  12   2  -6   15.15   7.306   1
 -12   2   6 -0.1286   12.94   1
 -12   2   6   19.10   2.901   1
  12  -2  -5  -1.584   7.968   1
  12  -2  -5   9.434   8.218   1
 -12  -2   5  -5.171   9.911   1
 -12  -2   5  0.6941   1.797   1
  12   2  -5   5.153   8.062   1
  12   2  -5  -2.558    6.85   1
 -12   2   5   0.881   11.36   1
 -12   2   5   1.611    1.92   1
  12  -2  -4   70.92   12.31   1
  12  -2  -4   76.67   12.22   1
 -12  -2   4   49.57   11.66   1
 -12  -2   4   68.13   7.067   1
  12   2  -4   54.94   10.73   1
  12   2  -4   59.45   9.861   1
 -12   2   4   48.78   12.86   1
 -12   2   4   70.17   7.341   1
  12  -2  -3   33.24   8.375   1
  12  -2  -3   46.97   10.76   1
 -12  -2   3   34.05   10.62   1
 -12  -2   3   42.93   4.833   1
  12   2  -3   44.21   9.698   1
  12   2  -3   31.27    8.15   1
 -12   2   3   41.69   4.951   1
 -12   2   3   33.27   12.68   1
  12  -2  -2   56.26   11.91   1
  12  -2  -2   58.22   9.728   1
 -12  -2   2   50.79   10.84   1
 -12  -2   2   64.80   6.733   1
  12   2  -2   55.31   10.35   1
  12   2  -2   56.23    9.38   1
 -12   2   2   58.82   6.465   1
 -12   2   2   62.64   14.22   1
  12  -2  -1   70.87   13.03   1
  12  -2  -1   46.19   8.826   1
 -12  -2   1   34.85    9.53   1
 -12  -2   1   44.87   5.125   1
  12   2  -1   52.36   10.51   1
  12   2  -1   44.94   8.717   1
 -12   2   1   49.84   5.805   1
 -12   2   1   40.34   13.26   1
  12  -2   0  -1.884   9.453   1
 -12  -2   0  -4.593   8.677   1
 -12  -2   0 -0.2366    2.08   1
  12   2   0   3.696   8.426   1
  12   2   0   6.588   6.698   1
 -12   2   0  -2.442   2.798   1
 -12   2   0  -6.306   11.91   1
  12   2   1   17.25   8.531   1
  12  -3  -8  -3.934   8.101   1
  12  -3  -8  -3.512   7.543   1
 -12   3   8 -0.1838   4.235   1
 -12   3   8  -6.401   10.34   1
  12  -3  -7    8.49   10.88   1
  12  -3  -7   9.111   9.467   1
 -12  -3   7  -10.79   13.49   1
  12   3  -7  -4.421   6.847   1
 -12   3   7  0.7416   2.452   1
 -12   3   7  -13.36   16.55   1
  12  -3  -6  -2.896   8.082   1
  12  -3  -6  -16.57   9.989   1
 -12  -3   6    1.73   1.866   1
 -12  -3   6  -1.432   10.78   1
  12   3  -6  -3.176   8.962   1
  12   3  -6   2.085   6.426   1
 -12   3   6  -1.667   1.898   1
 -12   3   6   1.118   15.21   1
  12  -3  -5  -1.139   7.736   1
  12  -3  -5  -7.568   9.066   1
 -12  -3   5   3.809   1.892   1
 -12  -3   5   5.168   10.36   1
  12   3  -5-0.07739   6.876   1
  12   3  -5  -7.751   8.262   1
 -12   3   5   3.465   2.061   1
 -12   3   5   7.684   14.11   1
  12  -3  -4   7.925   9.546   1
  12  -3  -4   5.801   6.988   1
 -12  -3   4   1.377   1.822   1
 -12  -3   4  -2.612   10.15   1
  12   3  -4   3.717   6.866   1
  12   3  -4   16.74   8.237   1
 -12   3   4  -14.91   12.44   1
 -12   3   4   2.613   2.171   1
  12  -3  -3    1.58   6.627   1
  12  -3  -3    3.01   9.914   1
 -12  -3   3   7.038    9.37   1
 -12  -3   3    1.94   1.774   1
  12   3  -3   13.40    7.99   1
  12   3  -3 -0.9561   6.722   1
 -12   3   3   3.519   2.383   1
 -12   3   3-0.08001   13.29   1
  12  -3  -2   3.294   9.984   1
  12  -3  -2  -5.582    6.29   1
 -12  -3   2-0.00267    1.81   1
 -12  -3   2   5.384    8.57   1
  12   3  -2   2.622    6.66   1
  12   3  -2  -9.078   7.404   1
 -12   3   2  -1.043    2.49   1
 -12   3   2   5.261   13.39   1
  12  -3  -1   2.979   5.996   1
  12  -3  -1 -0.8996   9.967   1
 -12  -3   1  0.2148   1.909   1
 -12  -3   1   2.655   8.058   1
  12   3  -1  -4.648   7.259   1
  12   3  -1  -1.657   5.898   1
 -12   3   1    1.34   2.615   1
 -12   3   1  0.1637   12.11   1
  12  -3   0    4.10   10.91   1
 -12  -3   0  -6.836   8.784   1
  12   3   0   9.584   6.941   1
 -12   3   0   9.327   14.56   1
  12  -4  -8   14.39   7.185   1
  12  -4  -8   32.30   8.778   1
 -12   4   8   19.30   8.925   1
  12  -4  -7   37.66   11.06   1
  12  -4  -7   45.46   12.29   1
 -12  -4   7   14.50   13.62   1
 -12   4   7   8.405   16.10   1
 -12   4   7   47.35   5.876   1
  12  -4  -6   41.65   13.25   1
  12  -4  -6   45.62   11.06   1
 -12  -4   6   50.58   14.07   1
  12   4  -6   35.06   8.646   1
 -12   4   6   42.45    5.17   1
 -12   4   6   40.32   19.16   1
  12  -4  -5   4.355    7.64   1
  12  -4  -5    4.25   10.13   1
 -12  -4   5   1.994   1.839   1
 -12  -4   5  0.8899   11.22   1
  12   4  -5   7.417    8.90   1
  12   4  -5   15.66   7.277   1
 -12   4   5  0.4523   2.093   1
 -12   4   5  -6.322   15.41   1
  12  -4  -4   46.62   12.67   1
  12  -4  -4   32.83   8.458   1
 -12  -4   4   35.75   11.31   1
 -12  -4   4   43.22    4.84   1
  12   4  -4   29.42   9.325   1
  12   4  -4   47.01    8.73   1
 -12   4   4   24.72   14.66   1
 -12   4   4   39.76   4.789   1
  12  -4  -3   66.49   10.41   1
  12  -4  -3   91.39   15.63   1
 -12  -4   3   67.85   12.38   1
 -12  -4   3   67.37   6.956   1
  12   4  -3   56.67   11.08   1
  12   4  -3   77.40   10.90   1
 -12   4   3   72.75   17.52   1
 -12   4   3   87.09   9.117   1
  12  -4  -2   92.02   11.98   1
 -12  -4   2   74.17   12.44   1
 -12  -4   2   87.84   8.843   1
  12   4  -2   95.78   12.13   1
  12   4  -2   78.29   12.32   1
 -12   4   2   95.17    9.97   1
 -12   4   2   67.80   17.62   1
  12  -4  -1   17.69   11.80   1
  12  -4  -1   16.20   6.764   1
 -12  -4   1   18.79    9.24   1
 -12  -4   1   13.69   2.727   1
  12   4  -1   34.22   7.527   1
  12   4  -1   6.985   8.819   1
 -12   4   1   20.36    3.90   1
 -12   4   1   48.67   15.90   1
  12  -4   0   27.50   12.58   1
 -12  -4   0   23.42   10.05   1
  12   4   0   14.05   7.354   1
 -12   4   0   23.93   17.26   1
  12  -5  -8    4.48   5.742   1
  12  -5  -8  0.3015   5.613   1
 -12   5   8   6.812    6.34   1
 -12   5   8  -3.744    6.07   1
  12  -5  -7  -6.918   8.675   1
  12  -5  -7  -3.395   8.588   1
 -12   5   7 -0.3852   2.961   1
 -12   5   7  -20.61   12.15   1
  12  -5  -6   18.78   12.58   1
  12  -5  -6 -0.8814   9.292   1
 -12  -5   6  -3.039   11.72   1
 -12   5   6   28.96   20.94   1
 -12   5   6   1.619   2.589   1
  12  -5  -5   5.853   11.62   1
  12  -5  -5   5.831    7.25   1
 -12  -5   5  -10.77   10.59   1
  12   5  -5   7.267   6.671   1
 -12   5   5   17.62   17.99   1
 -12   5   5   2.657   2.202   1
  12  -5  -4   13.52   11.86   1
  12  -5  -4   4.362   6.652   1
 -12  -5   4  -24.97   11.24   1
  12   5  -4  -5.473   6.598   1
 -12   5   4  -5.569   16.76   1
 -12   5   4 -0.7324   2.336   1
  12  -5  -3   9.693   6.689   1
  12  -5  -3  -10.18   12.73   1
 -12  -5   3  -1.232   1.723   1
 -12  -5   3   8.107   9.656   1
  12   5  -3  -2.713   6.483   1
 -12   5   3  0.1875   2.697   1
 -12   5   3    5.03   17.17   1
  12  -5  -2   1.714   5.903   1
  12  -5  -2 -0.6245   11.62   1
 -12  -5   2  -7.299   8.713   1
  12   5  -2   -1.10   6.272   1
 -12   5   2   20.34   16.78   1
 -12   5   2   5.548   3.095   1
  12  -5  -1  -1.741   11.88   1
 -12  -5   1  -5.016   9.209   1
  12   5  -1 -0.9854   6.158   1
 -12   5   1    4.51   17.46   1
  12  -6  -8   13.01   5.922   1
  12  -6  -7   65.68   12.55   1
  12  -6  -7   39.31   10.23   1
 -12   6   7   31.98   12.78   1
  12  -6  -6   10.69   12.42   1
  12  -6  -6   19.84   9.713   1
 -12   6   6   13.50   3.223   1
 -12   6   6   10.57   21.11   1
  12  -6  -5  -0.924   12.34   1
  12  -6  -5   8.552   7.515   1
 -12   6   5   30.17   20.43   1
 -12   6   5   4.244   2.672   1
  12  -6  -4   21.00   7.636   1
  12  -6  -4   20.51   12.80   1
 -12  -6   4   19.19   12.03   1
  12   6  -4   11.02   7.364   1
 -12   6   4   34.22   18.53   1
 -12   6   4   25.91   4.081   1
  12  -6  -3   92.34   17.63   1
  12  -6  -3   85.22   11.75   1
 -12  -6   3   88.44   15.03   1
  12   6  -3   83.17   11.46   1
 -12   6   3  107.00   11.22   1
 -12   6   3   86.56   22.71   1
  12  -6  -2  103.10   18.31   1
 -12  -6   2   97.13   15.41   1
  12   6  -2   68.89   10.33   1
 -12   6   2  109.00   23.54   1
  12  -6  -1   17.93   13.02   1
 -12   6   1  -1.648   17.67   1
  12  -7  -7    6.98   7.285   1
  12  -7  -7  0.2176   6.246   1
 -12   7   7   6.114   8.164   1
 -12   7   7  -7.851   4.749   1
  12  -7  -6   2.827   8.569   1
  12  -7  -6   2.932   8.457   1
 -12   7   6   5.355   3.168   1
 -12   7   6   10.89   14.42   1
  12  -7  -5  -1.189   12.28   1
  12  -7  -5   -5.28    8.60   1
 -12   7   5   4.177   3.227   1
 -12   7   5   31.80   22.76   1
  12  -7  -4  -2.447   7.027   1
  12  -7  -4  -1.073   12.52   1
 -12   7   4  -11.63   19.75   1
 -12   7   4 0.04539   2.936   1
  12  -7  -3   14.72   12.06   1
 -12   7   3  -14.49   19.54   1
  12  -7  -2  -10.96   12.48   1
 -12   7   2  -3.392   20.56   1
  12  -8  -7   14.15   5.501   1
 -12   8   7   3.741   5.777   1
  12  -8  -6   13.65   7.533   1
 -12   8   6  0.8043   11.38   1
  12  -8  -5   10.78   9.765   1
 -12   8   5  -3.152   16.56   1
  12  -8  -4   31.27   13.54   1
 -12   8   4   8.991   22.23   1
 -12   8   3   2.841   22.37   1
 -12   9   6  -4.439   5.712   1
   0   0   0    0.00    0.00   1
;
_shelx_hkl_checksum              85248
_shelx_fab_file
;
-12 0 1 -0.1750 -0.1982
-12 0 2 0.0012 -0.3291
-12 0 3 0.3532 -0.3699
-12 0 4 0.1033 -0.2845
-12 0 5 -0.2877 -0.1120
-12 0 6 -0.1636 0.0807
-12 0 7 0.1946 0.2081
-12 0 8 0.3839 0.2386
-12 0 9 0.3340 0.1767
-12 2 1 -0.1439 -0.0374
-12 2 2 -0.0196 -0.0404
-12 2 3 0.2083 -0.0871
-12 2 4 -0.0442 -0.1411
-12 2 5 -0.3299 -0.0921
-12 2 6 -0.1218 0.1003
-12 2 7 0.2551 0.2601
-12 2 8 0.4036 0.2242
-12 4 1 -0.1038 0.1453
-12 4 2 -0.1335 0.1878
-12 4 3 -0.1788 0.1596
-12 4 4 -0.3685 0.0525
-12 4 5 -0.3590 0.0014
-12 4 6 0.0344 0.1079
-12 4 7 0.4233 0.2054
-12 4 8 0.4697 0.1079
-12 6 1 -0.0734 0.0948
-12 6 2 -0.3267 0.1003
-12 6 3 -0.6084 0.1045
-12 6 4 -0.6098 0.0642
-12 6 5 -0.2484 0.0210
-12 6 6 0.2590 0.0614
-12 6 7 0.5745 0.1025
-12 6 8 0.5173 0.0207
-12 8 3 -0.7605 -0.1129
-12 8 4 -0.5655 -0.0358
-12 8 5 -0.0437 0.0055
-12 8 6 0.3539 0.0312
-12 8 7 0.5006 0.0495
-11 1 1 0.1604 -0.1636
-11 1 2 0.2862 -0.2701
-11 1 3 0.5702 -0.3933
-11 1 4 0.3452 -0.3767
-11 1 5 -0.1808 -0.2166
-11 1 6 -0.2238 0.0396
-11 1 7 0.1338 0.2553
-11 1 8 0.4098 0.3100
-11 1 9 0.3723 0.2146
-11 3 1 0.0769 -0.0085
-11 3 2 0.1527 -0.0246
-11 3 3 0.2456 -0.0675
-11 3 4 0.0559 -0.0784
-11 3 5 -0.2350 -0.0339
-11 3 6 -0.1388 0.1006
-11 3 7 0.2215 0.2205
-11 3 8 0.4275 0.1739
-11 3 9 0.2554 0.0110
-11 5 1 -0.0455 0.0914
-11 5 2 -0.0829 0.0829
-11 5 3 -0.2333 0.1016
-11 5 4 -0.2820 0.1077
-11 5 5 -0.1897 0.0760
-11 5 6 0.0611 0.0778
-11 5 7 0.3688 0.0939
-11 5 8 0.4848 0.0152
-11 5 9 0.1935 -0.1048
-11 7 1 -0.0510 -0.0197
-11 7 2 -0.2614 -0.0422
-11 7 3 -0.5887 -0.0044
-11 7 4 -0.4357 0.0425
-11 7 5 -0.0245 0.0272
-11 7 6 0.2408 -0.0057
-11 7 7 0.4146 -0.0092
-11 7 8 0.4848 -0.0298
-11 9 1 0.1640 -0.1372
-11 9 2 -0.1943 -0.1511
-11 9 3 -0.5837 -0.1360
-11 9 4 -0.3240 -0.0628
-11 9 5 0.1325 -0.0082
-11 9 6 0.2263 -0.0039
-11 9 7 0.2404 0.0034
-11 11 1 0.4085 -0.0511
-11 11 2 0.0631 -0.0626
-11 11 3 -0.2320 -0.1038
-11 11 4 -0.0057 -0.0478
-11 11 5 0.2416 0.0494
-11 11 6 0.1034 0.0752
-11 11 7 0.0161 0.0529
-11 13 5 0.3337 0.0601
-11 13 6 0.0873 0.0729
-10 0 1 0.3389 -0.0661
-10 0 2 0.6547 -0.2093
-10 0 3 0.8200 -0.5045
-10 0 4 0.4307 -0.5867
-10 0 5 -0.1715 -0.4324
-10 0 6 -0.1758 -0.1403
-10 0 7 0.0859 0.1539
-10 0 8 0.1672 0.3371
-10 0 9 0.2768 0.3662
-10 0 10 0.2371 0.2569
-10 2 1 0.2185 -0.0763
-10 2 2 0.5413 -0.1245
-10 2 3 0.6511 -0.2962
-10 2 4 0.2906 -0.3219
-10 2 5 -0.1973 -0.2074
-10 2 6 -0.1646 -0.0171
-10 2 7 0.0673 0.1622
-10 2 8 0.1290 0.2258
-10 2 9 0.1774 0.1663
-10 2 10 0.0503 0.0693
-10 4 1 -0.0632 0.0362
-10 4 2 0.2716 0.0104
-10 4 3 0.2639 -0.0196
-10 4 4 0.0173 0.0310
-10 4 5 -0.1673 0.0720
-10 4 6 -0.0682 0.0848
-10 4 7 0.0634 0.0874
-10 4 8 0.0923 0.0345
-10 4 9 0.0406 -0.0588
-10 4 10 -0.2511 -0.0966
-10 6 1 -0.2960 0.0512
-10 6 2 0.0068 0.0212
-10 6 3 -0.1191 0.0582
-10 6 4 -0.1729 0.1249
-10 6 5 0.0053 0.1052
-10 6 6 0.1166 0.0193
-10 6 7 0.0856 -0.0414
-10 6 8 0.1202 -0.0806
-10 6 9 0.0687 -0.1033
-10 6 10 -0.2880 -0.0637
-10 8 1 -0.2640 -0.0534
-10 8 2 -0.0937 -0.0498
-10 8 3 -0.3393 -0.0227
-10 8 4 -0.2358 0.0026
-10 8 5 0.1782 -0.0206
-10 8 6 0.2102 -0.0724
-10 8 7 0.0229 -0.0805
-10 8 8 0.1162 -0.0458
-10 8 9 0.1736 0.0025
-10 8 10 -0.0944 0.0627
-10 10 1 0.0401 -0.0748
-10 10 2 0.0278 -0.0298
-10 10 3 -0.3090 -0.0492
-10 10 4 -0.1754 -0.0696
-10 10 5 0.2414 -0.0482
-10 10 6 0.1409 -0.0200
-10 10 7 -0.1202 0.0056
-10 10 8 0.0289 0.0322
-10 12 1 0.3293 0.0397
-10 12 2 0.2154 0.0718
-10 12 3 -0.0743 0.0064
-10 12 4 0.0334 -0.0347
-10 12 5 0.2962 0.0233
-10 12 6 0.0898 0.0792
-10 12 7 -0.1507 0.0615
-10 14 1 0.2848 0.1064
-10 14 2 0.1787 0.0827
-10 14 3 0.1064 -0.0011
-10 14 4 0.2545 -0.0443
-10 14 5 0.3750 0.0110
-10 14 6 0.1511 0.0492
-10 16 5 0.3118 -0.0868
-9 1 1 0.2907 0.0468
-9 1 2 0.7092 0.0431
-9 1 3 0.8123 -0.3293
-9 1 4 0.3095 -0.5441
-9 1 5 -0.3788 -0.4959
-9 1 6 -0.1132 -0.2820
-9 1 7 0.4021 -0.0060
-9 1 8 0.0591 0.2164
-9 1 9 -0.1059 0.3195
-9 1 10 0.2660 0.2891
-9 3 1 -0.0485 0.0151
-9 3 2 0.4294 0.0196
-9 3 3 0.5746 -0.1466
-9 3 4 0.1610 -0.1650
-9 3 5 -0.3606 -0.0852
-9 3 6 -0.1295 -0.0161
-9 3 7 0.2210 0.0413
-9 3 8 -0.1114 0.0739
-9 3 9 -0.2655 0.0695
-9 3 10 -0.0653 0.0437
-9 5 1 -0.4798 0.0503
-9 5 2 0.1096 0.0157
-9 5 3 0.3238 0.0123
-9 5 4 0.0647 0.1145
-9 5 5 -0.1842 0.1612
-9 5 6 -0.0303 0.0876
-9 5 7 0.0390 -0.0064
-9 5 8 -0.2440 -0.0672
-9 5 9 -0.3013 -0.0965
-9 5 10 -0.2857 -0.0853
-9 5 11 -0.4749 -0.0457
-9 7 1 -0.7383 0.0240
-9 7 2 -0.0808 0.0039
-9 7 3 0.1467 0.0463
-9 7 4 0.0318 0.1037
-9 7 5 0.0708 0.0717
-9 7 6 0.1401 -0.0321
-9 7 7 -0.0731 -0.0976
-9 7 8 -0.2563 -0.0973
-9 7 9 -0.1270 -0.0652
-9 7 10 -0.1757 -0.0148
-9 9 1 -0.6863 -0.0419
-9 9 2 -0.1174 0.0064
-9 9 3 -0.0135 0.0229
-9 9 4 -0.0808 -0.0232
-9 9 5 0.1687 -0.0867
-9 9 6 0.1981 -0.1102
-9 9 7 -0.1761 -0.0729
-9 9 8 -0.2459 -0.0105
-9 9 9 0.0331 0.0396
-9 9 10 0.0154 0.0724
-9 11 1 -0.3460 -0.0301
-9 11 2 -0.0002 0.0475
-9 11 3 -0.0950 0.0330
-9 11 4 -0.2011 -0.0490
-9 11 5 0.1233 -0.0701
-9 11 6 0.1472 -0.0131
-9 11 7 -0.2358 0.0415
-9 11 8 -0.2335 0.0491
-9 11 9 0.0338 0.0337
-9 13 1 0.0489 0.0447
-9 13 2 0.1552 0.0684
-9 13 3 -0.0443 0.0408
-9 13 4 -0.1536 -0.0062
-9 13 5 0.1341 0.0215
-9 13 6 0.1349 0.0822
-9 13 7 -0.1689 0.0678
-9 15 1 0.1794 0.0674
-9 15 2 0.0798 0.0098
-9 15 3 -0.0584 -0.0211
-9 15 4 -0.0470 -0.0315
-9 15 5 0.1781 0.0026
-9 15 6 0.1315 0.0337
-9 17 2 -0.2727 -0.0594
-9 17 3 -0.2807 -0.0918
-9 17 4 -0.0984 -0.0965
-9 17 5 0.0819 -0.0764
-8 0 1 0.5483 0.3129
-8 0 2 0.6806 0.4209
-8 0 3 0.4984 -0.1145
-8 0 4 0.2296 -0.5928
-8 0 5 -0.4356 -0.7391
-8 0 6 -0.1469 -0.6009
-8 0 7 0.9910 -0.2682
-8 0 8 0.5963 0.0964
-8 0 9 -0.3692 0.3589
-8 0 10 0.1099 0.4431
-8 0 11 0.6275 0.3456
-8 2 1 0.3061 0.1342
-8 2 2 0.4695 0.2420
-8 2 3 0.4011 -0.1099
-8 2 4 0.1892 -0.3558
-8 2 5 -0.4416 -0.3753
-8 2 6 -0.2078 -0.2872
-8 2 7 0.8001 -0.1251
-8 2 8 0.4134 0.0588
-8 2 9 -0.4693 0.1992
-8 2 10 -0.0551 0.2471
-8 2 11 0.3696 0.1882
-8 4 1 -0.2104 0.0228
-8 4 2 0.0731 0.0294
-8 4 3 0.2900 -0.0765
-8 4 4 0.1988 -0.0221
-8 4 5 -0.3501 0.0761
-8 4 6 -0.2571 0.0700
-8 4 7 0.4082 0.0249
-8 4 8 0.0520 0.0021
-8 4 9 -0.5818 -0.0025
-8 4 10 -0.2988 -0.0060
-8 4 11 -0.1075 -0.0211
-8 6 1 -0.6695 0.0231
-8 6 2 -0.1858 -0.0325
-8 6 3 0.3342 -0.0036
-8 6 4 0.3338 0.1329
-8 6 5 -0.0979 0.1902
-8 6 6 -0.1374 0.1031
-8 6 7 0.1081 -0.0040
-8 6 8 -0.1964 -0.0619
-8 6 9 -0.4682 -0.0832
-8 6 10 -0.2709 -0.0797
-8 6 11 -0.3268 -0.0591
-8 8 1 -0.9500 0.0188
-8 8 2 -0.3154 0.0085
-8 8 3 0.3445 0.0486
-8 8 4 0.3465 0.0670
-8 8 5 0.0906 0.0068
-8 8 6 0.0522 -0.0707
-8 8 7 -0.0314 -0.0827
-8 8 8 -0.2882 -0.0495
-8 8 9 -0.2313 -0.0183
-8 8 10 -0.0465 0.0050
-8 8 11 -0.2217 0.0227
-8 10 1 -0.9845 -0.0320
-8 10 2 -0.3782 0.0288
-8 10 3 0.1704 0.0457
-8 10 4 0.0791 -0.0348
-8 10 5 0.0274 -0.1227
-8 10 6 0.1323 -0.1140
-8 10 7 -0.0989 -0.0316
-8 10 8 -0.3241 0.0324
-8 10 9 -0.1086 0.0512
-8 10 10 0.0676 0.0511
-8 10 11 -0.0619 0.0401
-8 12 1 -0.6583 -0.0426
-8 12 2 -0.2489 0.0136
-8 12 3 0.0168 0.0254
-8 12 4 -0.2147 -0.0280
-8 12 5 -0.1329 -0.0462
-8 12 6 0.1083 0.0168
-8 12 7 -0.1267 0.0726
-8 12 8 -0.3040 0.0534
-8 12 9 -0.0971 0.0064
-8 12 10 0.0122 -0.0153
-8 14 1 -0.1142 0.0171
-8 14 2 0.0233 -0.0014
-8 14 3 0.0105 0.0081
-8 14 4 -0.2929 0.0250
-8 14 5 -0.1791 0.0599
-8 14 6 0.0628 0.0965
-8 14 7 -0.1232 0.0680
-8 14 8 -0.1981 -0.0235
-8 16 1 0.2262 0.0696
-8 16 2 0.0819 -0.0141
-8 16 3 -0.0874 -0.0242
-8 16 4 -0.2994 0.0118
-8 16 5 -0.1665 0.0389
-8 16 6 -0.0236 0.0427
-8 16 7 -0.1568 0.0044
-8 18 1 0.1945 0.0801
-8 18 2 -0.1789 -0.0102
-8 18 3 -0.3868 -0.0422
-8 18 4 -0.3928 -0.0315
-8 18 5 -0.1997 -0.0247
-7 1 1 0.9435 0.4006
-7 1 2 0.8352 0.6744
-7 1 3 -0.1498 0.1823
-7 1 4 -0.1171 -0.3637
-7 1 5 -0.1370 -0.6211
-7 1 6 -0.1781 -0.6380
-7 1 7 1.1369 -0.4299
-7 1 8 1.3540 -0.0991
-7 1 9 -0.2314 0.2048
-7 1 10 -0.4024 0.3861
-7 1 11 0.5338 0.3850
-7 3 1 0.4579 0.0846
-7 3 2 0.4083 0.2127
-7 3 3 -0.1911 -0.0311
-7 3 4 -0.0239 -0.1719
-7 3 5 -0.1371 -0.1537
-7 3 6 -0.3378 -0.1358
-7 3 7 0.7194 -0.0842
-7 3 8 0.9202 0.0135
-7 3 9 -0.3814 0.0990
-7 3 10 -0.5151 0.1376
-7 3 11 0.2096 0.1079
-7 5 1 -0.0727 -0.0530
-7 5 2 0.0106 -0.0930
-7 5 3 -0.0271 -0.1244
-7 5 4 0.2622 0.0298
-7 5 5 -0.0207 0.1859
-7 5 6 -0.4221 0.1766
-7 5 7 0.2422 0.1044
-7 5 8 0.4042 0.0445
-7 5 9 -0.4287 -0.0143
-7 5 10 -0.4747 -0.0644
-7 5 11 -0.0835 -0.0931
-7 7 1 -0.4451 0.0203
-7 7 2 -0.2007 -0.0595
-7 7 3 0.2580 -0.0248
-7 7 4 0.5716 0.1056
-7 7 5 0.1585 0.1548
-7 7 6 -0.2962 0.0866
-7 7 7 0.0051 0.0224
-7 7 8 0.0717 -0.0119
-7 7 9 -0.2964 -0.0485
-7 7 10 -0.2171 -0.0743
-7 7 11 -0.1158 -0.0718
-7 9 1 -0.7665 0.0459
-7 9 2 -0.4401 0.0362
-7 9 3 0.3006 0.0548
-7 9 4 0.5632 0.0304
-7 9 5 0.1734 -0.0541
-7 9 6 -0.0920 -0.1053
-7 9 7 -0.0147 -0.0689
-7 9 8 -0.1068 -0.0165
-7 9 9 -0.1777 0.0043
-7 9 10 0.0108 0.0153
-7 9 11 -0.0061 0.0244
-7 11 1 -0.9105 -0.0482
-7 11 2 -0.6446 -0.0022
-7 11 3 0.1059 0.0107
-7 11 4 0.2398 -0.0549
-7 11 5 -0.0390 -0.1212
-7 11 6 -0.0000 -0.0905
-7 11 7 -0.0007 -0.0014
-7 11 8 -0.2254 0.0427
-7 11 9 -0.1709 0.0405
-7 11 10 0.0525 0.0389
-7 11 11 0.0557 0.0292
-7 13 1 -0.5880 -0.0774
-7 13 2 -0.4859 -0.0541
-7 13 3 0.0374 -0.0320
-7 13 4 -0.0501 -0.0260
-7 13 5 -0.2808 -0.0021
-7 13 6 -0.0447 0.0568
-7 13 7 -0.0445 0.0870
-7 13 8 -0.2622 0.0443
-7 13 9 -0.1391 -0.0085
-7 13 10 0.0273 -0.0185
-7 15 1 0.0275 0.0213
-7 15 2 -0.0588 -0.0116
-7 15 3 0.1352 -0.0019
-7 15 4 -0.1579 0.0517
-7 15 5 -0.3851 0.0982
-7 15 6 -0.1269 0.1068
-7 15 7 -0.1225 0.0620
-7 15 8 -0.2008 -0.0191
-7 17 1 0.3881 0.0958
-7 17 2 0.1396 0.0403
-7 17 3 0.0515 0.0233
-7 17 4 -0.2685 0.0584
-7 17 5 -0.3811 0.0692
-7 17 6 -0.1673 0.0467
-7 17 7 -0.1903 0.0178
-7 19 1 0.3310 0.0700
-7 19 2 -0.0181 0.0352
-7 19 3 -0.2786 0.0129
-7 19 4 -0.4442 0.0220
-7 19 5 -0.3192 0.0141
-7 21 4 -0.4646 0.0320
-6 0 1 1.3667 0.6684
-6 0 2 1.5184 1.1235
-6 0 3 -0.4732 0.6408
-6 0 4 -0.9045 -0.1080
-6 0 5 0.1381 -0.6195
-6 0 6 0.0885 -0.8562
-6 0 7 0.8454 -0.7547
-6 0 8 1.7954 -0.3882
-6 0 9 0.3924 0.0310
-6 0 10 -0.7096 0.3643
-6 0 11 0.1552 0.5024
-6 2 1 1.0097 0.3056
-6 2 2 1.2453 0.6272
-6 2 3 -0.4637 0.2978
-6 2 4 -0.7732 -0.1262
-6 2 5 0.1451 -0.3482
-6 2 6 -0.0397 -0.4520
-6 2 7 0.6019 -0.3838
-6 2 8 1.5211 -0.1605
-6 2 9 0.2739 0.0692
-6 2 10 -0.7172 0.2320
-6 2 11 0.0726 0.2837
-6 4 1 0.3446 -0.0944
-6 4 2 0.7469 -0.0218
-6 4 3 -0.3193 -0.1339
-6 4 4 -0.3930 -0.1043
-6 4 5 0.1802 0.0286
-6 4 6 -0.3026 0.0591
-6 4 7 0.0860 0.0622
-6 4 8 0.9215 0.0886
-6 4 9 0.0675 0.0710
-6 4 10 -0.6404 0.0210
-6 4 11 -0.0586 -0.0244
-6 6 1 -0.0610 -0.0961
-6 6 2 0.4240 -0.1803
-6 6 3 0.0005 -0.1791
-6 6 4 0.1049 0.0142
-6 6 5 0.2529 0.1968
-6 6 6 -0.4488 0.2055
-6 6 7 -0.2819 0.1551
-6 6 8 0.3980 0.1018
-6 6 9 -0.0231 0.0059
-6 6 10 -0.3874 -0.0906
-6 6 11 -0.0643 -0.1337
-6 8 1 -0.2526 0.0912
-6 8 2 0.1327 0.0139
-6 8 3 0.1945 0.0174
-6 8 4 0.4463 0.0828
-6 8 5 0.3095 0.0840
-6 8 6 -0.3545 0.0176
-6 8 7 -0.2988 -0.0099
-6 8 8 0.1074 -0.0126
-6 8 9 -0.0391 -0.0374
-6 8 10 -0.1015 -0.0495
-6 8 11 0.0457 -0.0356
-6 10 1 -0.4786 0.0660
-6 10 2 -0.3517 0.0667
-6 10 3 0.0498 0.0615
-6 10 4 0.4685 0.0021
-6 10 5 0.2496 -0.0933
-6 10 6 -0.1655 -0.1293
-6 10 7 -0.1296 -0.0794
-6 10 8 -0.0597 -0.0306
-6 10 9 -0.1167 -0.0073
-6 10 10 0.0288 0.0325
-6 10 11 0.1332 0.0613
-6 12 1 -0.5376 -0.0948
-6 12 2 -0.7205 -0.0580
-6 12 3 -0.1553 -0.0450
-6 12 4 0.3155 -0.0818
-6 12 5 0.0454 -0.1053
-6 12 6 -0.1115 -0.0534
-6 12 7 -0.0400 0.0214
-6 12 8 -0.1912 0.0352
-6 12 9 -0.2010 0.0213
-6 12 10 0.0417 0.0389
-6 12 11 0.1365 0.0432
-6 14 1 -0.1647 -0.0833
-6 14 2 -0.5788 -0.0704
-6 14 3 -0.0708 -0.0528
-6 14 4 0.2143 -0.0256
-6 14 5 -0.1898 0.0217
-6 14 6 -0.2037 0.0760
-6 14 7 -0.0799 0.0875
-6 14 8 -0.2427 0.0366
-6 14 9 -0.1445 -0.0131
-6 14 10 0.0831 -0.0129
-6 16 1 0.3376 0.0598
-6 16 2 -0.1473 0.0429
-6 16 3 0.1519 0.0392
-6 16 4 0.1497 0.0722
-6 16 5 -0.3169 0.0961
-6 16 6 -0.2446 0.0779
-6 16 7 -0.1137 0.0324
-6 16 8 -0.1933 -0.0189
-6 18 1 0.4727 0.0802
-6 18 2 0.0553 0.0624
-6 18 3 0.1152 0.0509
-6 18 4 -0.0437 0.0694
-6 18 5 -0.3170 0.0563
-6 18 6 -0.1266 0.0095
-6 20 1 0.2693 -0.0229
-6 20 2 -0.0318 -0.0328
-6 20 3 -0.1851 -0.0211
-6 20 4 -0.3304 0.0148
-6 20 5 -0.2509 0.0132
-6 22 4 -0.4526 0.0118
-5 1 1 1.5088 0.5944
-5 1 2 1.8169 1.1095
-5 1 3 -0.0825 0.8512
-5 1 4 -1.5607 0.2274
-5 1 5 -0.1139 -0.2852
-5 1 6 0.3748 -0.6491
-5 1 7 0.2647 -0.7386
-5 1 8 1.3332 -0.5100
-5 1 9 0.8908 -0.1603
-5 1 10 -0.5600 0.1735
-5 1 11 -0.2961 0.3978
-5 3 1 0.5659 0.0323
-5 3 2 1.4196 0.2844
-5 3 3 0.1162 0.1494
-5 3 4 -1.1124 -0.0451
-5 3 5 0.0083 -0.1086
-5 3 6 0.1465 -0.1818
-5 3 7 -0.1261 -0.1887
-5 3 8 0.8611 -0.0715
-5 3 9 0.6235 0.0290
-5 3 10 -0.5151 0.0780
-5 3 11 -0.2516 0.1099
-5 3 12 0.2125 0.0972
-5 5 1 -0.3852 -0.2408
-5 5 2 1.0275 -0.2361
-5 5 3 0.3788 -0.2717
-5 5 4 -0.5575 -0.1396
-5 5 5 0.0732 0.0803
-5 5 6 -0.1974 0.1581
-5 5 7 -0.5826 0.1668
-5 5 8 0.2873 0.1750
-5 5 9 0.3221 0.0960
-5 5 10 -0.3611 -0.0326
-5 5 11 -0.1346 -0.1092
-5 5 12 0.1271 -0.1149
-5 7 1 -0.6979 -0.0164
-5 7 2 0.7779 -0.1011
-5 7 3 0.4607 -0.1189
-5 7 4 -0.1782 0.0107
-5 7 5 0.0646 0.1389
-5 7 6 -0.4011 0.1346
-5 7 7 -0.7329 0.1014
-5 7 8 -0.0496 0.0799
-5 7 9 0.1311 0.0076
-5 7 10 -0.1413 -0.0693
-5 7 11 0.0336 -0.0946
-5 7 12 0.0931 -0.0764
-5 9 1 -0.5766 0.1735
-5 9 2 0.3974 0.1321
-5 9 3 0.2021 0.1113
-5 9 4 0.0174 0.0956
-5 9 5 0.1242 0.0288
-5 9 6 -0.3160 -0.0588
-5 9 7 -0.5198 -0.0821
-5 9 8 -0.1430 -0.0699
-5 9 9 -0.0193 -0.0627
-5 9 10 -0.0040 -0.0172
-5 9 11 0.1672 0.0412
-5 11 1 -0.3800 0.0212
-5 11 2 -0.1868 0.0425
-5 11 3 -0.2377 0.0485
-5 11 4 0.1395 -0.0123
-5 11 5 0.2222 -0.0998
-5 11 6 -0.1426 -0.1210
-5 11 7 -0.2357 -0.0744
-5 11 8 -0.1803 -0.0453
-5 11 9 -0.1885 -0.0290
-5 11 10 0.0057 0.0398
-5 11 11 0.2027 0.1000
-5 13 1 -0.0843 -0.1348
-5 13 2 -0.5952 -0.1043
-5 13 3 -0.4781 -0.0783
-5 13 4 0.2487 -0.0902
-5 13 5 0.1857 -0.0859
-5 13 6 -0.1492 -0.0191
-5 13 7 -0.1255 0.0497
-5 13 8 -0.2335 0.0463
-5 13 9 -0.2796 0.0147
-5 13 10 0.0016 0.0301
-5 13 11 0.1598 0.0459
-5 15 1 0.3280 -0.0281
-5 15 2 -0.5540 -0.0267
-5 15 3 -0.3460 -0.0203
-5 15 4 0.3387 -0.0082
-5 15 5 0.0291 0.0211
-5 15 6 -0.2473 0.0560
-5 15 7 -0.0991 0.0637
-5 15 8 -0.2257 0.0329
-5 15 9 -0.2151 -0.0061
-5 15 10 0.0595 -0.0156
-5 17 1 0.5558 0.0976
-5 17 2 -0.2999 0.0781
-5 17 3 -0.0927 0.0635
-5 17 4 0.3265 0.0694
-5 17 5 -0.0734 0.0603
-5 17 6 -0.1650 0.0104
-5 17 7 0.0244 -0.0345
-5 17 8 -0.1440 -0.0382
-5 19 1 0.3994 0.0139
-5 19 2 -0.1868 -0.0124
-5 19 3 -0.0608 -0.0142
-5 19 4 0.1097 0.0166
-5 19 5 -0.0994 0.0120
-5 19 6 0.0753 -0.0494
-5 21 1 0.1000 -0.1094
-5 21 2 -0.2047 -0.1561
-5 21 3 -0.2413 -0.1380
-5 21 4 -0.2335 -0.0592
-5 21 5 -0.1445 -0.0129
-4 0 1 2.8888 0.7131
-4 0 2 1.4492 1.3267
-4 0 3 0.5625 1.3274
-4 0 4 -1.4681 0.7520
-4 0 5 -0.6721 0.0751
-4 0 6 0.4666 -0.5507
-4 0 7 0.0831 -0.9143
-4 0 8 0.7359 -0.8449
-4 0 9 1.0652 -0.4939
-4 2 1 1.9508 0.3001
-4 2 2 1.2850 0.7019
-4 2 3 0.8494 0.6902
-4 2 4 -1.0795 0.3440
-4 2 5 -0.4878 0.0053
-4 2 6 0.4037 -0.3187
-4 2 7 -0.0934 -0.5062
-4 2 8 0.4991 -0.4240
-4 2 9 0.8798 -0.2199
-4 2 10 -0.1401 -0.0047
-4 2 11 -0.3680 0.2020
-4 4 1 -0.0692 -0.2242
-4 4 2 0.9365 -0.0950
-4 4 3 1.3465 -0.1181
-4 4 4 -0.3944 -0.1403
-4 4 5 -0.2465 -0.0429
-4 4 6 0.1499 -0.0042
-4 4 7 -0.5001 0.0042
-4 4 8 -0.0071 0.0738
-4 4 9 0.4810 0.0840
-4 4 10 -0.1330 0.0172
-4 4 11 -0.1858 -0.0156
-4 4 12 0.1833 -0.0165
-4 6 1 -1.6320 -0.2091
-4 6 2 0.6550 -0.2405
-4 6 3 1.4379 -0.2808
-4 6 4 -0.1273 -0.1778
-4 6 5 -0.2996 0.0284
-4 6 6 -0.2337 0.1301
-4 6 7 -0.8192 0.1579
-4 6 8 -0.3833 0.1827
-4 6 9 0.1452 0.1171
-4 6 10 -0.0725 -0.0154
-4 6 11 0.0209 -0.0987
-4 6 12 0.2202 -0.1179
-4 8 1 -1.9211 0.1207
-4 8 2 0.4941 0.0713
-4 8 3 0.9643 0.0333
-4 8 4 -0.2590 0.0642
-4 8 5 -0.3983 0.0931
-4 8 6 -0.4168 0.0447
-4 8 7 -0.7840 -0.0014
-4 8 8 -0.4366 -0.0073
-4 8 9 -0.0383 -0.0299
-4 8 10 -0.0122 -0.0396
-4 8 11 0.1723 -0.0141
-4 8 12 0.2426 -0.0104
-4 10 1 -1.2594 0.1581
-4 10 2 0.2924 0.1574
-4 10 3 0.2343 0.1626
-4 10 4 -0.3095 0.1254
-4 10 5 -0.1850 0.0242
-4 10 6 -0.2713 -0.0783
-4 10 7 -0.4842 -0.1140
-4 10 8 -0.3149 -0.1118
-4 10 9 -0.1707 -0.0946
-4 10 10 -0.0330 -0.0097
-4 10 11 0.2167 0.0941
-4 12 1 -0.3716 -0.0695
-4 12 2 -0.0378 -0.0433
-4 12 3 -0.3994 -0.0002
-4 12 4 -0.1365 -0.0202
-4 12 5 0.1524 -0.0767
-4 12 6 -0.1133 -0.0772
-4 12 7 -0.2427 -0.0289
-4 12 8 -0.2328 -0.0150
-4 12 9 -0.3067 -0.0242
-4 12 10 -0.1162 0.0274
-4 12 11 0.1583 0.0975
-4 14 1 0.3018 -0.1062
-4 14 2 -0.3457 -0.1011
-4 14 3 -0.7264 -0.0771
-4 14 4 0.0629 -0.0744
-4 14 5 0.2513 -0.0597
-4 14 6 -0.1636 0.0052
-4 14 7 -0.1478 0.0702
-4 14 8 -0.1950 0.0743
-4 14 9 -0.3725 0.0369
-4 14 10 -0.1582 0.0216
-4 14 11 0.0707 0.0256
-4 16 1 0.6207 0.0659
-4 16 2 -0.4531 0.0395
-4 16 3 -0.6876 0.0208
-4 16 4 0.1944 0.0135
-4 16 5 0.1694 0.0212
-4 16 6 -0.1850 0.0238
-4 16 7 0.0104 0.0139
-4 16 8 -0.1020 0.0172
-4 16 9 -0.3263 0.0202
-4 18 1 0.5686 0.0914
-4 18 2 -0.4021 0.0560
-4 18 3 -0.4515 0.0318
-4 18 4 0.2435 0.0330
-4 18 5 0.1292 0.0258
-4 18 6 0.0305 -0.0413
-4 18 7 0.2820 -0.1073
-4 20 1 0.2787 -0.0614
-4 20 2 -0.3469 -0.0999
-4 20 3 -0.3045 -0.1076
-4 20 4 0.1084 -0.0676
-4 20 5 0.0710 -0.0314
-4 20 6 0.2490 -0.0734
-4 22 1 0.0145 -0.1096
-4 22 2 -0.3007 -0.1688
-4 22 3 -0.3108 -0.1871
-4 22 4 -0.1727 -0.1286
-4 22 5 -0.0991 -0.0404
-3 1 2 0.5602 0.8952
-3 1 3 0.9168 1.1766
-3 1 4 -0.1351 0.9294
-3 1 5 -0.4988 0.4248
-3 1 6 0.3759 -0.1726
-3 1 7 0.1214 -0.6525
-3 1 8 0.3475 -0.7679
-3 1 9 0.8777 -0.5832
-3 1 10 0.1403 -0.2480
-3 3 1 2.7243 -0.0178
-3 3 2 0.3527 0.1848
-3 3 3 1.7999 0.2909
-3 3 4 0.7049 0.1772
-3 3 5 -0.1010 0.0602
-3 3 6 0.3488 -0.0829
-3 3 7 -0.1057 -0.2169
-3 3 8 -0.0005 -0.2014
-3 3 9 0.5413 -0.1197
-3 3 10 0.0771 -0.0538
-3 3 11 -0.1883 0.0508
-3 5 1 -0.7840 -0.2659
-3 5 2 -0.0456 -0.2419
-3 5 3 2.4130 -0.2812
-3 5 4 1.1742 -0.2856
-3 5 5 -0.0259 -0.1310
-3 5 6 0.0695 0.0184
-3 5 7 -0.4435 0.0966
-3 5 8 -0.3966 0.1728
-3 5 9 0.1418 0.1663
-3 5 10 0.0168 0.0523
-3 5 11 0.0193 -0.0381
-3 5 12 0.2448 -0.0684
-3 7 1 -3.0069 -0.0453
-3 7 2 -0.3589 -0.0772
-3 7 3 2.0416 -0.1500
-3 7 4 0.6939 -0.1377
-3 7 5 -0.4070 -0.0185
-3 7 6 -0.3215 0.0631
-3 7 7 -0.6422 0.0882
-3 7 8 -0.5385 0.1157
-3 7 9 -0.0790 0.0903
-3 7 10 -0.0009 0.0098
-3 7 11 0.1697 -0.0446
-3 7 12 0.3068 -0.0752
-3 9 1 -3.0298 0.1649
-3 9 2 -0.2801 0.1541
-3 9 3 1.1099 0.1450
-3 9 4 -0.0212 0.1426
-3 9 5 -0.5703 0.1065
-3 9 6 -0.4153 0.0185
-3 9 7 -0.5597 -0.0567
-3 9 8 -0.4141 -0.0808
-3 9 9 -0.1390 -0.0838
-3 9 10 -0.0287 -0.0461
-3 9 11 0.2053 0.0283
-3 9 12 0.2895 0.0418
-3 11 1 -1.6179 0.0383
-3 11 2 0.0364 0.0548
-3 11 3 0.2530 0.1137
-3 11 4 -0.2690 0.1224
-3 11 5 -0.2218 0.0443
-3 11 6 -0.2280 -0.0431
-3 11 7 -0.3657 -0.0787
-3 11 8 -0.2422 -0.0907
-3 11 9 -0.2000 -0.0924
-3 11 10 -0.1414 -0.0251
-3 11 11 0.1118 0.0862
-3 13 1 -0.1737 -0.1128
-3 13 2 0.1399 -0.1061
-3 13 3 -0.3960 -0.0572
-3 13 4 -0.2091 -0.0410
-3 13 5 0.1470 -0.0557
-3 13 6 -0.1463 -0.0288
-3 13 7 -0.2568 0.0273
-3 13 8 -0.1432 0.0429
-3 13 9 -0.3107 0.0187
-3 13 10 -0.3049 0.0236
-3 13 11 -0.0429 0.0648
-3 15 1 0.5388 -0.0087
-3 15 2 -0.0705 -0.0334
-3 15 3 -0.8270 -0.0458
-3 15 4 -0.1693 -0.0514
-3 15 5 0.1940 -0.0279
-3 15 6 -0.2093 0.0294
-3 15 7 -0.1218 0.0710
-3 15 8 -0.0290 0.0836
-3 15 9 -0.3780 0.0760
-3 15 10 -0.3839 0.0449
-3 15 11 -0.1146 0.0130
-3 17 1 0.6265 0.1144
-3 17 2 -0.2796 0.0825
-3 17 3 -0.8753 0.0473
-3 17 4 -0.0800 0.0292
-3 17 5 0.1614 0.0397
-3 17 6 -0.1017 0.0264
-3 17 7 0.1966 -0.0273
-3 17 8 0.1362 -0.0183
-3 17 9 -0.3532 0.0532
-3 19 1 0.4584 0.0183
-3 19 2 -0.2974 0.0104
-3 19 3 -0.5949 0.0045
-3 19 4 0.0942 0.0017
-3 19 5 0.2166 0.0126
-3 19 6 0.1722 -0.0358
-3 19 7 0.4956 -0.1299
-3 21 1 0.2415 -0.1025
-3 21 2 -0.2410 -0.0934
-3 21 3 -0.3257 -0.0899
-3 21 4 0.1254 -0.0939
-3 21 5 0.1593 -0.0566
-3 23 1 0.0700 -0.0332
-3 23 2 -0.1972 -0.0277
-3 23 3 -0.2154 -0.0578
-3 23 4 -0.0223 -0.1001
-2 0 1 9.1372 0.2014
-2 0 2 -0.0608 0.6135
-2 0 3 0.3074 1.2587
-2 0 4 1.1718 1.3678
-2 0 5 0.4440 0.9429
-2 0 6 0.5722 0.2199
-2 0 7 0.3401 -0.4968
-2 0 8 0.4068 -0.8697
-2 2 1 7.2723 0.0962
-2 2 3 1.1007 0.6881
-2 2 4 1.8070 0.7169
-2 2 5 0.7317 0.4744
-2 2 6 0.6343 0.0953
-2 2 7 0.2864 -0.2941
-2 2 8 0.2658 -0.4794
-2 2 9 0.6368 -0.4446
-2 2 10 0.0818 -0.2844
-2 4 1 2.7462 -0.1285
-2 4 2 -0.4240 -0.0904
-2 4 3 2.4393 -0.0467
-2 4 4 2.7126 -0.1118
-2 4 5 1.0074 -0.1047
-2 4 6 0.5780 -0.0471
-2 4 7 0.1021 -0.0265
-2 4 8 -0.0410 0.0173
-2 4 9 0.3093 0.0554
-2 4 11 -0.1011 0.0175
-2 4 12 0.1542 0.0402
-2 6 1 -1.8214 -0.1106
-2 6 2 -1.0755 -0.1323
-2 6 3 2.7163 -0.2464
-2 6 4 2.4524 -0.3282
-2 6 5 0.5743 -0.2214
-2 6 6 0.1928 -0.0352
-2 6 7 -0.1631 0.0936
-2 6 8 -0.2748 0.1797
-2 6 9 0.0699 0.1919
-2 6 10 0.0380 0.0995
-2 6 11 0.0999 -0.0044
-2 6 12 0.2723 -0.0611
-2 8 1 -3.9627 0.0659
-2 8 2 -1.3818 0.0555
-2 8 3 1.8574 -0.0023
-2 8 4 1.2378 -0.0240
-2 8 5 -0.1197 0.0178
-2 8 6 -0.1880 0.0472
-2 8 7 -0.3413 0.0374
-2 8 8 -0.3099 0.0323
-2 8 9 0.0173 0.0190
-2 8 10 0.0699 -0.0133
-2 8 11 0.1919 -0.0258
-2 8 12 0.2859 -0.0363
-2 10 1 -3.2045 0.0693
-2 10 2 -0.8442 0.0810
-2 10 3 0.8826 0.1362
-2 10 4 0.2875 0.1776
-2 10 5 -0.2543 0.1388
-2 10 6 -0.2267 0.0392
-2 10 7 -0.3815 -0.0490
-2 10 8 -0.2354 -0.0941
-2 10 9 0.0168 -0.1092
-2 10 10 0.0183 -0.0760
-2 10 11 0.1200 0.0093
-2 10 12 0.1832 0.0544
-2 12 1 -1.1866 -0.0685
-2 12 2 0.0019 -0.0586
-2 12 3 0.2272 0.0151
-2 12 4 -0.0305 0.0590
-2 12 5 0.0581 0.0226
-2 12 6 -0.1373 -0.0232
-2 12 7 -0.3926 -0.0306
-2 12 8 -0.1699 -0.0321
-2 12 9 -0.0765 -0.0440
-2 12 10 -0.1897 -0.0218
-2 12 11 -0.0918 0.0513
-2 14 1 0.2184 -0.0618
-2 14 2 0.3225 -0.0767
-2 14 3 -0.3542 -0.0747
-2 14 4 -0.2043 -0.0752
-2 14 5 0.1815 -0.0643
-2 14 6 -0.2068 -0.0060
-2 14 7 -0.3513 0.0562
-2 14 8 -0.0651 0.0771
-2 14 9 -0.2191 0.0696
-2 14 10 -0.4338 0.0522
-2 14 11 -0.2753 0.0450
-2 16 1 0.5506 0.0682
-2 16 2 0.1133 0.0431
-2 16 3 -0.8013 0.0019
-2 16 4 -0.3650 -0.0251
-2 16 5 0.0751 0.0064
-2 16 6 -0.2533 0.0670
-2 16 7 -0.0876 0.0688
-2 16 8 0.1564 0.0559
-2 16 9 -0.2804 0.0910
-2 16 10 -0.5005 0.0910
-2 18 1 0.4363 0.0596
-2 18 2 -0.0620 0.0658
-2 18 3 -0.7782 0.0691
-2 18 4 -0.2282 0.0549
-2 18 5 0.1169 0.0693
-2 18 6 -0.0496 0.0663
-2 18 7 0.3190 -0.0252
-2 18 8 0.3570 -0.0579
-2 20 1 0.3527 -0.0726
-2 20 2 -0.0171 -0.0224
-2 20 3 -0.4004 0.0399
-2 20 4 0.1188 0.0235
-2 20 5 0.2801 0.0087
-2 20 6 0.1755 -0.0060
-2 22 1 0.2820 -0.0725
-2 22 2 0.0201 -0.0092
-2 22 3 -0.1048 0.0471
-2 22 4 0.2908 -0.0227
-2 22 5 0.2622 -0.0672
-1 1 1 10.4476 -0.2082
-1 1 2 -0.7009 -0.0000
-1 1 3 -0.1052 0.7402
-1 1 4 2.3571 1.1488
-1 1 5 1.6528 1.0166
-1 1 6 1.1265 0.5184
-1 1 7 0.5935 -0.1016
-1 1 8 0.3690 -0.5493
-1 1 9 0.6147 -0.6992
-1 3 1 6.7701 -0.0760
-1 3 2 -0.6323 -0.0359
-1 3 3 1.4409 0.2257
-1 3 4 3.3112 0.2991
-1 3 5 1.9252 0.2263
-1 3 6 1.1767 0.1068
-1 3 7 0.5823 -0.0543
-1 3 8 0.2504 -0.1653
-1 3 9 0.4676 -0.1802
-1 3 10 -0.0368 -0.1424
-1 3 11 -0.3948 -0.0461
-1 5 1 1.3300 -0.0093
-1 5 2 -1.0610 -0.0333
-1 5 3 2.5942 -0.1366
-1 5 4 3.5976 -0.2919
-1 5 5 1.6652 -0.2905
-1 5 6 0.9461 -0.1355
-1 5 7 0.4449 0.0114
-1 5 8 0.0819 0.1140
-1 5 9 0.3125 0.1699
-1 5 10 0.0788 0.1399
-1 5 11 -0.1001 0.0683
-1 5 12 0.1186 0.0233
-1 7 1 -2.8855 0.0362
-1 7 2 -1.7600 0.0276
-1 7 3 2.2273 -0.1069
-1 7 4 2.4907 -0.2215
-1 7 5 0.7787 -0.1802
-1 7 6 0.4685 -0.0469
-1 7 7 0.1766 0.0546
-1 7 8 -0.0651 0.1123
-1 7 9 0.2573 0.1302
-1 7 10 0.2385 0.0836
-1 7 11 0.1463 0.0090
-1 7 12 0.2004 -0.0394
-1 9 1 -3.8569 0.0249
-1 9 2 -1.7170 0.0391
-1 9 3 1.1799 0.0536
-1 9 4 1.0586 0.0885
-1 9 5 0.1401 0.1097
-1 9 6 0.1566 0.0807
-1 9 7 -0.1121 0.0227
-1 9 8 -0.1846 -0.0207
-1 9 9 0.2454 -0.0472
-1 9 10 0.3167 -0.0665
-1 9 11 0.2220 -0.0581
-1 9 12 0.1700 -0.0318
-1 11 1 -2.2002 -0.0479
-1 11 2 -0.7271 -0.0344
-1 11 3 0.4933 0.0543
-1 11 4 0.3225 0.1342
-1 11 5 0.1761 0.1132
-1 11 6 0.0995 0.0262
-1 11 7 -0.3607 -0.0389
-1 11 8 -0.2866 -0.0657
-1 11 9 0.1459 -0.0794
-1 11 10 0.1668 -0.0744
-1 11 11 0.0670 -0.0235
-1 13 1 -0.2598 -0.0638
-1 13 2 0.2092 -0.0682
-1 13 3 0.0738 -0.0436
-1 13 4 0.0322 -0.0348
-1 13 5 0.3287 -0.0603
-1 13 6 -0.0061 -0.0614
-1 13 7 -0.5106 -0.0235
-1 13 8 -0.2857 0.0083
-1 13 9 -0.0414 0.0188
-1 13 10 -0.1739 0.0202
-1 13 11 -0.2063 0.0374
-1 15 1 0.4607 0.0179
-1 15 2 0.3688 0.0010
-1 15 3 -0.4228 -0.0465
-1 15 4 -0.3017 -0.0934
-1 15 5 0.1622 -0.0831
-1 15 6 -0.2134 -0.0004
-1 15 7 -0.4135 0.0594
-1 15 8 -0.0729 0.0640
-1 15 9 -0.1712 0.0794
-1 15 10 -0.4458 0.0843
-1 15 11 -0.3338 0.0459
-1 17 1 0.3153 0.0511
-1 17 2 0.1475 0.0502
-1 17 3 -0.7063 0.0354
-1 17 4 -0.4604 0.0113
-1 17 5 -0.0060 0.0398
-1 17 6 -0.2399 0.1070
-1 17 7 -0.0537 0.0799
-1 17 8 0.2560 0.0098
-1 17 9 -0.1630 0.0514
-1 19 1 0.1985 -0.0371
-1 19 2 0.1259 -0.0026
-1 19 3 -0.4884 0.0780
-1 19 4 -0.1647 0.0876
-1 19 5 0.1401 0.0756
-1 19 6 -0.0450 0.0839
-1 19 7 0.2704 0.0024
-1 21 1 0.2836 -0.0840
-1 21 2 0.2305 -0.0370
-1 21 3 -0.0890 0.0890
-1 21 4 0.2791 0.0698
-1 21 5 0.3707 -0.0167
-1 21 6 0.0776 -0.0211
-1 23 1 0.2965 0.0328
-1 23 2 0.1847 0.0505
-1 23 3 0.0987 0.1469
0 0 1 10.3927 -0.8585
0 0 2 -2.2949 -0.6254
0 0 3 -1.0081 0.3787
0 0 4 2.7710 1.1809
0 0 5 1.9550 1.3485
0 0 6 1.2923 0.9642
0 0 7 0.8547 0.2926
0 0 8 0.2240 -0.3367
0 0 9 0.3167 -0.7199
0 2 0 17.5999 0.2389
0 2 1 8.6639 -0.4263
0 2 2 -1.9322 -0.3453
0 2 3 -0.0453 0.2351
0 2 4 3.2041 0.6542
0 2 5 2.0051 0.7120
0 2 6 1.3158 0.5044
0 2 7 0.9067 0.1482
0 2 8 0.2396 -0.1891
0 2 9 0.3120 -0.3837
0 2 10 -0.1704 -0.4112
0 2 11 -0.6559 -0.2766
0 4 0 10.1369 0.2148
0 4 1 4.2852 0.0186
0 4 2 -1.4517 0.0134
0 4 3 1.6249 0.0423
0 4 4 3.6304 -0.0378
0 4 5 1.7841 -0.0960
0 4 6 1.2210 -0.0645
0 4 7 0.9487 -0.0269
0 4 8 0.2490 -0.0039
0 4 9 0.3164 0.0300
0 4 10 0.0357 0.0525
0 4 11 -0.3507 0.0543
0 4 12 -0.0633 0.0568
0 6 0 2.1756 0.0216
0 6 1 -0.4704 0.1386
0 6 2 -1.5494 0.1411
0 6 3 2.1151 -0.0451
0 6 4 2.8792 -0.2671
0 6 5 0.9739 -0.3087
0 6 6 0.8754 -0.1835
0 6 7 0.8038 -0.0382
0 6 8 0.1733 0.0719
0 6 9 0.3432 0.1518
0 6 10 0.3190 0.1697
0 6 11 0.0222 0.1155
0 6 12 0.0469 0.0466
0 8 0 -2.4375 -0.0807
0 8 1 -3.0164 0.0234
0 8 2 -1.7109 0.0505
0 8 3 1.3329 -0.0150
0 8 4 1.3566 -0.0545
0 8 5 0.1555 -0.0170
0 8 6 0.5286 0.0279
0 8 7 0.4533 0.0363
0 8 8 -0.0350 0.0323
0 8 9 0.3387 0.0314
0 8 10 0.5379 0.0116
0 8 11 0.2991 -0.0263
0 8 12 0.1253 -0.0434
0 10 0 -2.7436 -0.0396
0 10 1 -2.5511 -0.0732
0 10 2 -1.1196 -0.0533
0 10 3 0.4968 0.0214
0 10 4 0.3076 0.1265
0 10 5 0.0224 0.1651
0 10 6 0.4131 0.1015
0 10 7 0.0148 0.0165
0 10 8 -0.3205 -0.0318
0 10 9 0.2192 -0.0593
0 10 10 0.5097 -0.0878
0 10 11 0.3280 -0.0952
0 12 0 -0.9953 0.0125
0 12 1 -0.7265 -0.0533
0 12 2 -0.1115 -0.0541
0 12 3 0.1170 -0.0023
0 12 4 -0.0032 0.0450
0 12 5 0.3197 0.0181
0 12 6 0.3501 -0.0465
0 12 7 -0.3579 -0.0650
0 12 8 -0.5062 -0.0399
0 12 9 -0.0029 -0.0179
0 12 10 0.1874 -0.0210
0 12 11 0.1025 -0.0219
0 14 0 0.0867 0.0105
0 14 1 0.3463 0.0141
0 14 2 0.3695 0.0056
0 14 3 -0.2037 -0.0333
0 14 4 -0.2015 -0.0934
0 14 5 0.3536 -0.1379
0 14 6 0.1138 -0.1132
0 14 7 -0.4984 -0.0456
0 14 8 -0.4128 0.0042
0 14 9 -0.1831 0.0438
0 14 10 -0.2171 0.0635
0 14 11 -0.1572 0.0461
0 16 0 -0.1179 -0.0089
0 16 1 0.2527 0.0332
0 16 2 0.2214 0.0314
0 16 3 -0.5510 -0.0135
0 16 4 -0.4734 -0.0720
0 16 5 0.0816 -0.0717
0 16 6 -0.1502 0.0136
0 16 7 -0.3393 0.0603
0 16 8 -0.0714 0.0239
0 16 9 -0.1966 0.0308
0 16 10 -0.3969 0.0704
0 18 0 -0.5455 -0.0206
0 18 1 -0.0589 -0.0194
0 18 2 0.0883 -0.0122
0 18 3 -0.5524 0.0277
0 18 4 -0.4391 0.0385
0 18 5 -0.0244 0.0486
0 18 6 -0.2030 0.1062
0 18 7 -0.0611 0.0854
0 18 8 0.2410 -0.0231
0 20 0 -0.4484 -0.0017
0 20 1 0.0090 -0.0634
0 20 2 0.2145 -0.0644
0 20 3 -0.2105 0.0476
0 20 4 -0.0406 0.0809
0 20 5 0.1735 0.0217
0 20 6 -0.1031 0.0208
0 22 0 -0.0750 0.0954
0 22 1 0.2087 0.0004
0 22 2 0.2860 -0.0427
0 22 3 0.0604 0.0661
0 22 4 0.3354 0.0631
0 22 5 0.3970 -0.0743
0 24 2 0.1584 0.0317
0 24 3 0.0982 0.0968
0 24 4 0.4552 0.0725
1 1 0 19.2566 -0.2938
1 1 1 8.4147 -1.0781
1 1 3 -1.6258 -0.1100
1 1 4 3.2953 0.6726
1 1 5 1.5729 1.0290
1 1 6 0.5906 0.9482
1 1 7 0.9280 0.5451
1 1 8 0.1620 0.0335
1 1 9 -0.0509 -0.3958
1 1 10 -0.2497 -0.6207
1 3 0 13.7857 0.0928
1 3 1 5.8686 -0.2856
1 3 2 -3.2260 -0.2464
1 3 3 -0.1358 0.0275
1 3 4 3.3322 0.1973
1 3 5 1.1719 0.2505
1 3 6 0.5437 0.2332
1 3 7 1.0647 0.1335
1 3 8 0.2722 0.0002
1 3 9 0.0373 -0.1010
1 3 10 -0.0866 -0.1461
1 3 11 -0.4484 -0.1284
1 5 0 5.7686 0.1648
1 5 1 2.0005 0.2007
1 5 2 -2.0042 0.2330
1 5 3 1.1707 0.0951
1 5 4 2.6344 -0.1479
1 5 5 0.2994 -0.2602
1 5 6 0.3819 -0.2157
1 5 7 1.1330 -0.1260
1 5 8 0.3452 -0.0283
1 5 9 0.1685 0.0789
1 5 10 0.2014 0.1580
1 5 11 -0.1435 0.1635
1 7 0 -0.6634 -0.0269
1 7 1 -1.1100 0.1215
1 7 2 -1.3252 0.1781
1 7 3 1.2262 0.0364
1 7 4 1.1613 -0.1301
1 7 5 -0.6028 -0.1528
1 7 6 0.2220 -0.0994
1 7 7 0.9523 -0.0581
1 7 8 0.2155 -0.0138
1 7 9 0.2424 0.0507
1 7 10 0.4874 0.1013
1 7 11 0.1964 0.0956
1 9 0 -2.9998 -0.1161
1 9 1 -1.9507 -0.0876
1 9 2 -0.7552 -0.0479
1 9 3 0.6016 -0.0271
1 9 4 -0.0851 0.0446
1 9 5 -0.8140 0.1362
1 9 6 0.2660 0.1355
1 9 7 0.5371 0.0634
1 9 8 -0.1251 0.0050
1 9 9 0.1636 -0.0260
1 9 10 0.5766 -0.0547
1 9 11 0.3939 -0.0835
1 11 0 -2.0366 -0.0134
1 11 1 -0.9674 -0.0764
1 11 2 -0.0220 -0.0784
1 11 3 0.1505 -0.0176
1 11 4 -0.4656 0.0859
1 11 5 -0.3005 0.1331
1 11 6 0.4359 0.0750
1 11 7 0.0660 0.0048
1 11 8 -0.4681 -0.0156
1 11 9 -0.0503 -0.0227
1 11 10 0.3596 -0.0551
1 11 11 0.3318 -0.0938
1 13 0 -0.4892 0.0623
1 13 1 0.0719 0.0379
1 13 2 0.4114 0.0259
1 13 3 -0.1110 0.0111
1 13 4 -0.4097 -0.0157
1 13 5 0.2102 -0.0695
1 13 6 0.4361 -0.1152
1 13 7 -0.2510 -0.0989
1 13 8 -0.5525 -0.0407
1 13 9 -0.2531 0.0168
1 13 10 -0.0403 0.0383
1 13 11 0.1009 0.0131
1 15 0 -0.0632 0.0092
1 15 1 0.1430 0.0488
1 15 2 0.2659 0.0566
1 15 3 -0.4064 0.0069
1 15 4 -0.4633 -0.0761
1 15 5 0.2311 -0.1333
1 15 6 0.1851 -0.1095
1 15 7 -0.3160 -0.0505
1 15 8 -0.3263 -0.0258
1 15 9 -0.3028 0.0097
1 15 10 -0.3332 0.0601
1 17 0 -0.3971 -0.0508
1 17 1 -0.2638 -0.0189
1 17 2 -0.0074 -0.0075
1 17 3 -0.5388 -0.0084
1 17 4 -0.5239 -0.0285
1 17 5 0.0114 -0.0335
1 17 6 -0.1008 0.0285
1 17 7 -0.2238 0.0622
1 17 8 -0.0101 -0.0061
1 19 0 -0.5134 -0.0264
1 19 1 -0.3494 -0.0481
1 19 2 0.0256 -0.0667
1 19 3 -0.3380 -0.0118
1 19 4 -0.3332 0.0249
1 19 5 -0.0428 0.0046
1 19 6 -0.2337 0.0323
1 19 7 -0.1575 0.0526
1 21 0 -0.2285 0.0483
1 21 1 -0.0842 -0.0092
1 21 2 0.1944 -0.0760
1 21 3 -0.0648 -0.0134
1 21 4 -0.0139 0.0178
1 21 5 0.1052 -0.0758
1 23 0 0.0632 0.1328
1 23 1 0.1303 0.0677
1 23 2 0.1905 -0.0522
1 23 3 0.0150 -0.0181
1 23 4 0.1946 0.0018
2 0 0 17.6579 -0.7303
2 0 1 7.6000 -1.5169
2 0 2 -5.9584 -1.4535
2 0 3 -2.8971 -0.6000
2 0 4 3.5452 0.3245
2 0 5 1.2839 0.9467
2 0 6 -0.5829 1.1498
2 0 7 0.5960 0.9113
2 0 8 0.2704 0.3930
2 0 9 -0.2235 -0.1826
2 0 10 -0.1587 -0.6096
2 2 2 -5.0916 -0.7805
2 2 3 -2.1313 -0.2936
2 2 4 3.2955 0.1741
2 2 5 0.8758 0.4859
2 2 6 -0.6099 0.6053
2 2 7 0.7030 0.4886
2 2 8 0.3322 0.2221
2 2 9 -0.1814 -0.0780
2 2 10 -0.1147 -0.3172
2 2 11 -0.2721 -0.3925
2 4 1 3.9493 0.0390
2 4 2 -3.1616 0.0834
2 4 3 -0.5962 0.1002
2 4 4 2.3981 -0.0183
2 4 5 -0.1884 -0.0861
2 4 6 -0.6691 -0.0675
2 4 7 0.9120 -0.0514
2 4 8 0.4409 -0.0290
2 4 9 -0.0658 0.0133
2 4 10 0.0308 0.0434
2 4 11 -0.2079 0.0453
2 6 0 1.7177 0.1148
2 6 1 1.0880 0.2251
2 6 2 -1.3486 0.3144
2 6 3 0.4311 0.1731
2 6 4 0.9137 -0.0911
2 6 5 -1.3433 -0.2145
2 6 6 -0.6541 -0.2131
2 6 7 0.9876 -0.1880
2 6 8 0.4180 -0.1153
2 6 9 0.0553 0.0119
2 6 10 0.2427 0.1320
2 6 11 -0.0445 0.1809
2 8 0 -2.2814 -0.1143
2 8 1 -0.6133 -0.0396
2 8 2 -0.1515 0.0394
2 8 3 0.6159 0.0031
2 8 4 -0.4312 -0.0355
2 8 5 -1.8115 0.0226
2 8 6 -0.4178 0.0557
2 8 7 0.7871 0.0108
2 8 8 0.1524 -0.0258
2 8 9 0.0648 -0.0213
2 8 10 0.3701 -0.0011
2 8 11 0.1354 0.0102
2 10 0 -2.7964 -0.0946
2 10 1 -0.7874 -0.1279
2 10 2 0.5320 -0.1199
2 10 3 0.4365 -0.0813
2 10 4 -0.9418 0.0325
2 10 5 -1.3154 0.1668
2 10 6 0.0141 0.1858
2 10 7 0.3978 0.1135
2 10 8 -0.2285 0.0454
2 10 9 -0.0709 -0.0139
2 10 10 0.2670 -0.0769
2 10 11 0.1917 -0.1224
2 12 0 -1.5429 0.0729
2 12 1 -0.3192 0.0309
2 12 2 0.7190 -0.0014
2 12 3 0.1923 -0.0048
2 12 4 -0.7708 0.0329
2 12 5 -0.4151 0.0574
2 12 6 0.3776 0.0232
2 12 7 0.0505 -0.0071
2 12 8 -0.4375 0.0015
2 12 9 -0.2347 0.0093
2 12 10 -0.0289 -0.0103
2 12 11 0.1014 -0.0531
2 14 0 -0.5240 0.0762
2 14 1 -0.1950 0.0963
2 14 2 0.4060 0.0953
2 14 3 -0.1297 0.0591
2 14 4 -0.5339 -0.0007
2 14 5 0.1392 -0.0699
2 14 6 0.4276 -0.1120
2 14 7 -0.1138 -0.0971
2 14 8 -0.3391 -0.0574
2 14 9 -0.2912 -0.0058
2 14 10 -0.3077 0.0493
2 16 0 -0.3127 -0.0435
2 16 1 -0.4643 -0.0013
2 16 2 -0.0360 0.0295
2 16 3 -0.3800 0.0268
2 16 4 -0.4564 -0.0091
2 16 5 0.1705 -0.0520
2 16 6 0.1814 -0.0479
2 16 7 -0.1609 -0.0217
2 16 8 -0.0987 -0.0422
2 16 9 -0.2287 -0.0454
2 18 0 -0.3583 -0.0596
2 18 1 -0.5873 -0.0541
2 18 2 -0.1599 -0.0525
2 18 3 -0.3417 -0.0251
2 18 4 -0.3639 -0.0027
2 18 5 -0.0003 -0.0114
2 18 6 -0.1441 0.0144
2 18 7 -0.2197 0.0482
2 20 0 -0.2262 0.0229
2 20 1 -0.3587 -0.0053
2 20 2 0.0110 -0.0609
2 20 3 -0.1305 -0.0437
2 20 4 -0.1954 -0.0173
2 20 5 -0.0865 -0.0674
2 20 6 -0.3315 -0.0785
2 22 0 -0.0092 0.0601
2 22 1 -0.0475 0.0306
2 22 2 0.1414 -0.0574
2 22 3 -0.0262 -0.0546
2 22 4 -0.0589 -0.0362
2 22 5 -0.0299 -0.1307
3 1 0 12.4965 -0.5481
3 1 1 6.5999 -1.1165
3 1 2 -4.9185 -1.2453
3 1 3 -3.1766 -0.7723
3 1 4 3.1654 -0.1520
3 1 5 1.1184 0.4132
3 1 6 -1.3151 0.7992
3 1 7 0.2318 0.8380
3 1 8 0.4607 0.5648
3 1 9 -0.1353 0.1307
3 1 10 0.0522 -0.3001
3 1 11 0.0604 -0.5184
3 3 0 8.6118 -0.0109
3 3 1 5.0519 -0.2642
3 3 2 -3.4864 -0.3064
3 3 3 -2.1237 -0.1550
3 3 4 2.2838 -0.0588
3 3 5 0.1525 0.0522
3 3 6 -1.3177 0.1840
3 3 7 0.4333 0.2123
3 3 8 0.4674 0.1564
3 3 9 -0.1398 0.0635
3 3 10 0.0395 -0.0664
3 3 11 -0.0675 -0.1688
3 5 0 3.1425 0.2139
3 5 1 2.7678 0.2200
3 5 2 -1.4720 0.2931
3 5 3 -0.7676 0.2399
3 5 4 0.8394 0.0022
3 5 5 -1.1877 -0.1656
3 5 6 -1.2261 -0.2076
3 5 7 0.6668 -0.2147
3 5 8 0.4258 -0.1509
3 5 9 -0.1012 -0.0172
3 5 10 0.0833 0.0913
3 5 11 -0.1820 0.1263
3 7 0 -1.0847 -0.0108
3 7 1 0.8101 0.0528
3 7 2 0.1950 0.1691
3 7 3 0.2150 0.1350
3 7 4 -0.4889 -0.0165
3 7 5 -2.0475 -0.0827
3 7 6 -0.9379 -0.0973
3 7 7 0.6999 -0.1351
3 7 8 0.2311 -0.1217
3 7 9 -0.0614 -0.0412
3 7 10 0.1460 0.0434
3 7 11 -0.2069 0.0975
3 9 0 -2.6890 -0.1534
3 9 1 -0.2458 -0.1581
3 9 2 1.0636 -0.1155
3 9 3 0.6683 -0.0979
3 9 4 -1.0779 -0.0491
3 9 5 -1.9251 0.0761
3 9 6 -0.4614 0.1447
3 9 7 0.4583 0.1105
3 9 8 -0.1108 0.0562
3 9 9 -0.1045 -0.0036
3 9 10 0.0915 -0.0655
3 9 11 -0.2011 -0.0861
3 11 0 -2.2406 0.0072
3 11 1 -0.5793 -0.0339
3 11 2 1.1114 -0.0810
3 11 3 0.6734 -0.0979
3 11 4 -0.9339 -0.0283
3 11 5 -1.0767 0.0897
3 11 6 0.0466 0.1385
3 11 7 0.1305 0.1260
3 11 8 -0.3715 0.0990
3 11 9 -0.1837 0.0286
3 11 10 -0.1031 -0.0659
3 11 11 -0.2110 -0.1205
3 13 0 -1.1598 0.1245
3 13 1 -0.6743 0.1230
3 13 2 0.5917 0.0839
3 13 3 0.3355 0.0407
3 13 4 -0.5739 0.0279
3 13 5 -0.2070 0.0188
3 13 6 0.3687 -0.0133
3 13 7 -0.0534 -0.0199
3 13 8 -0.3362 -0.0001
3 13 9 -0.1763 0.0024
3 13 10 -0.2958 0.0014
3 15 0 -0.3903 0.0130
3 15 1 -0.7369 0.0487
3 15 2 -0.0162 0.0749
3 15 3 -0.0821 0.0784
3 15 4 -0.3583 0.0587
3 15 5 0.2130 0.0074
3 15 6 0.3712 -0.0446
3 15 7 -0.1031 -0.0567
3 15 8 -0.1025 -0.0599
3 15 9 -0.0886 -0.0508
3 17 0 -0.0605 -0.0763
3 17 1 -0.6631 -0.0587
3 17 2 -0.2723 -0.0282
3 17 3 -0.2518 0.0103
3 17 4 -0.2468 0.0375
3 17 5 0.2107 0.0266
3 17 6 0.1006 0.0146
3 17 7 -0.1832 0.0177
3 19 0 0.0432 0.0063
3 19 1 -0.4039 -0.0094
3 19 2 -0.1395 -0.0424
3 19 3 -0.1433 -0.0367
3 19 4 -0.1408 -0.0092
3 19 5 0.0436 -0.0211
3 19 6 -0.2277 -0.0239
3 21 0 0.0694 0.0753
3 21 1 -0.1046 0.0570
3 21 2 0.0778 -0.0143
3 21 3 -0.0139 -0.0391
3 21 4 -0.0768 -0.0341
3 21 5 -0.0824 -0.0930
3 23 1 0.0810 0.0072
3 23 3 -0.0124 -0.0446
3 23 4 -0.0612 -0.0162
4 0 0 7.3933 -0.4413
4 0 1 5.3678 -0.9111
4 0 2 -2.7326 -1.3095
4 0 3 -2.5957 -1.1266
4 0 4 2.5058 -0.6034
4 0 5 1.1694 0.0572
4 0 6 -1.2362 0.6723
4 0 7 0.1528 0.9490
4 0 8 0.5592 0.8130
4 0 9 -0.0632 0.4041
4 0 10 0.2311 -0.0773
4 2 0 6.0014 -0.1429
4 2 1 4.7374 -0.4178
4 2 2 -2.2298 -0.6794
4 2 3 -2.2347 -0.5838
4 2 4 2.0241 -0.3388
4 2 5 0.6951 -0.0044
4 2 6 -1.1963 0.3505
4 2 7 0.2487 0.5130
4 2 8 0.4889 0.4485
4 2 9 -0.1238 0.2399
4 2 10 0.1880 -0.0491
4 2 11 0.1807 -0.2786
4 4 0 2.7920 0.2044
4 4 1 3.2268 0.1296
4 4 2 -0.9856 0.0847
4 4 3 -1.3341 0.1011
4 4 4 0.8562 0.0069
4 4 5 -0.4039 -0.0730
4 4 6 -1.0412 -0.0666
4 4 7 0.4781 -0.0678
4 4 8 0.3294 -0.0462
4 4 9 -0.2127 0.0183
4 4 10 0.1289 0.0340
4 4 11 -0.0680 -0.0165
4 6 0 -0.2720 0.1186
4 6 1 1.5911 0.1319
4 6 2 0.3707 0.2364
4 6 3 -0.2837 0.2675
4 6 4 -0.3262 0.1068
4 6 5 -1.3973 -0.0630
4 6 6 -0.7455 -0.1669
4 6 7 0.6423 -0.2412
4 6 8 0.1113 -0.2073
4 6 9 -0.2313 -0.0670
4 6 10 0.1124 0.0554
4 6 11 -0.2914 0.1039
4 8 0 -1.9000 -0.1248
4 8 1 0.3137 -0.1257
4 8 2 1.2104 -0.0390
4 8 3 0.5551 0.0050
4 8 4 -0.9162 -0.0212
4 8 5 -1.6951 -0.0091
4 8 6 -0.3811 0.0011
4 8 7 0.5169 -0.0317
4 8 8 -0.2098 -0.0298
4 8 9 -0.2404 -0.0072
4 8 10 0.0490 -0.0138
4 8 11 -0.4434 -0.0113
4 10 0 -2.0716 -0.0829
4 10 1 -0.5327 -0.1112
4 10 2 1.2401 -0.1405
4 10 3 0.9231 -0.1639
4 10 4 -0.8381 -0.1191
4 10 5 -1.2605 0.0099
4 10 6 -0.0486 0.1029
4 10 7 0.1412 0.1307
4 10 8 -0.5334 0.1365
4 10 9 -0.2718 0.0653
4 10 10 -0.1181 -0.0668
4 12 0 -1.4116 0.0985
4 12 1 -0.9762 0.0884
4 12 2 0.6480 0.0133
4 12 3 0.7367 -0.0620
4 12 4 -0.5073 -0.0558
4 12 5 -0.5294 0.0067
4 12 6 0.2027 0.0362
4 12 7 -0.1736 0.0616
4 12 8 -0.5902 0.0970
4 12 9 -0.2030 0.0520
4 12 10 -0.2646 -0.0450
4 14 0 -0.5183 0.0701
4 14 1 -0.9937 0.0939
4 14 2 -0.0398 0.0862
4 14 3 0.2277 0.0644
4 14 4 -0.3004 0.0589
4 14 5 0.0339 0.0375
4 14 6 0.3268 -0.0185
4 14 7 -0.2465 -0.0357
4 14 8 -0.3199 -0.0138
4 14 9 0.0013 -0.0204
4 16 0 0.1803 -0.0691
4 16 1 -0.6682 -0.0478
4 16 2 -0.3565 -0.0012
4 16 3 -0.1682 0.0473
4 16 4 -0.2252 0.0835
4 16 5 0.2604 0.0723
4 16 6 0.2550 0.0237
4 16 7 -0.2310 -0.0042
4 18 0 0.4431 -0.0385
4 18 1 -0.2504 -0.0435
4 18 2 -0.2348 -0.0389
4 18 3 -0.2168 -0.0151
4 18 4 -0.1411 0.0233
4 18 5 0.2365 0.0388
4 18 6 0.0140 0.0366
4 20 0 0.3296 0.0851
4 20 1 0.0384 0.0785
4 20 2 0.0477 0.0213
4 20 3 -0.0706 -0.0194
4 20 4 -0.0487 -0.0223
4 20 5 0.1161 -0.0335
4 22 0 0.1169 0.0694
4 22 1 0.1564 0.0821
4 22 2 0.2151 0.0302
4 22 3 0.0194 -0.0031
4 22 4 -0.0152 -0.0037
5 1 0 2.7757 -0.0771
5 1 1 3.0758 -0.2382
5 1 2 -0.5963 -0.7648
5 1 3 -1.1939 -0.9410
5 1 4 1.5288 -0.7390
5 1 5 0.6622 -0.2837
5 1 6 -0.7808 0.2767
5 1 7 0.4806 0.6400
5 1 8 0.5431 0.6709
5 1 9 -0.2416 0.4472
5 1 10 0.1982 0.0994
5 3 0 1.5243 0.1447
5 3 1 2.4342 0.0910
5 3 2 -0.1371 -0.1594
5 3 3 -0.8934 -0.2195
5 3 4 0.8394 -0.1900
5 3 5 0.1037 -0.0972
5 3 6 -0.5848 0.0693
5 3 7 0.6102 0.1648
5 3 8 0.3322 0.1633
5 3 9 -0.3400 0.1212
5 3 10 0.1908 0.0231
5 5 0 0.0136 0.1774
5 5 1 1.5381 0.1623
5 5 2 0.5504 0.1783
5 5 3 -0.3549 0.2553
5 5 4 -0.0709 0.1917
5 5 5 -0.6047 0.0442
5 5 6 -0.2199 -0.0767
5 5 7 0.8030 -0.1814
5 5 8 0.0674 -0.1928
5 5 9 -0.3871 -0.0833
5 5 10 0.2143 0.0222
5 7 0 -0.9252 -0.0325
5 7 1 0.6642 -0.0504
5 7 2 1.0601 0.0522
5 7 3 0.2715 0.1659
5 7 4 -0.6377 0.1384
5 7 5 -1.0085 0.0483
5 7 6 0.1404 -0.0505
5 7 7 0.8043 -0.1519
5 7 8 -0.2394 -0.1496
5 7 9 -0.3840 -0.0503
5 7 10 0.1868 0.0252
5 9 0 -1.2279 -0.1126
5 9 1 -0.1656 -0.1318
5 9 2 1.0450 -0.1154
5 9 3 0.7288 -0.1032
5 9 4 -0.6612 -0.0930
5 9 5 -0.9533 -0.0307
5 9 6 0.2882 0.0139
5 9 7 0.4134 0.0161
5 9 8 -0.6393 0.0552
5 9 9 -0.4316 0.0692
5 9 10 0.0114 -0.0059
5 11 0 -1.0890 0.0275
5 11 1 -0.8300 0.0263
5 11 2 0.5177 -0.0459
5 11 3 0.7653 -0.1406
5 11 4 -0.4156 -0.1541
5 11 5 -0.6080 -0.0697
5 11 6 0.2364 -0.0064
5 11 7 -0.1496 0.0372
5 11 8 -0.9162 0.1160
5 11 9 -0.4241 0.1069
5 11 10 -0.1881 -0.0253
5 13 0 -0.5523 0.0814
5 13 1 -1.0243 0.1009
5 13 2 -0.1242 0.0608
5 13 3 0.3776 -0.0075
5 13 4 -0.2776 -0.0287
5 13 5 -0.2362 -0.0168
5 13 6 0.1715 -0.0450
5 13 7 -0.4573 -0.0436
5 13 8 -0.7758 0.0338
5 13 9 -0.1797 0.0485
5 15 0 0.1877 -0.0429
5 15 1 -0.6766 -0.0295
5 15 2 -0.4437 0.0128
5 15 3 -0.1096 0.0477
5 15 4 -0.3179 0.0698
5 15 5 0.0119 0.0553
5 15 6 0.1636 -0.0104
5 15 7 -0.4284 -0.0415
5 17 0 0.6538 -0.0891
5 17 1 -0.1400 -0.1008
5 17 2 -0.3271 -0.0522
5 17 3 -0.3305 0.0053
5 17 4 -0.3427 0.0431
5 17 5 0.1316 0.0544
5 17 6 0.1211 0.0416
5 19 0 0.5855 0.0267
5 19 1 0.1928 0.0169
5 19 2 0.0025 0.0080
5 19 3 -0.2311 -0.0053
5 19 4 -0.2378 -0.0141
5 19 5 0.1744 -0.0032
5 21 0 0.2412 0.0862
5 21 1 0.2553 0.1144
5 21 2 0.2560 0.0822
5 21 3 -0.0459 0.0290
5 21 4 -0.0954 -0.0090
6 0 0 0.8900 0.1578
6 0 1 1.3120 0.1736
6 0 2 0.0949 -0.5131
6 0 3 -0.3723 -1.0037
6 0 4 0.9082 -0.9998
6 0 5 0.2252 -0.6124
6 0 6 -0.5334 -0.0114
6 0 7 0.6981 0.4925
6 0 8 0.5172 0.6815
6 0 9 -0.5118 0.5584
6 0 10 -0.0141 0.2587
6 2 0 0.6370 0.1462
6 2 1 1.2547 0.2120
6 2 2 0.2553 -0.2410
6 2 3 -0.3100 -0.5267
6 2 4 0.6730 -0.5228
6 2 5 0.0750 -0.3253
6 2 6 -0.4161 0.0133
6 2 7 0.7307 0.2867
6 2 8 0.4002 0.3546
6 2 9 -0.5143 0.2540
6 2 10 0.0618 0.0727
6 4 0 0.1641 0.1454
6 4 1 1.1260 0.1680
6 4 2 0.6225 0.0451
6 4 3 -0.1432 0.0662
6 4 4 0.1270 0.0880
6 4 5 -0.2427 0.0437
6 4 6 -0.0572 0.0246
6 4 7 0.8765 -0.0088
6 4 8 0.1870 -0.0551
6 4 9 -0.4571 -0.0561
6 4 10 0.2498 -0.0328
6 6 0 -0.1432 0.0284
6 6 1 0.9052 -0.0048
6 6 2 0.9116 0.0621
6 6 3 0.0889 0.2337
6 6 4 -0.3665 0.2751
6 6 5 -0.4845 0.1748
6 6 6 0.4089 0.0425
6 6 7 1.0384 -0.1047
6 6 8 -0.0122 -0.1742
6 6 9 -0.3464 -0.1126
6 6 10 0.3865 -0.0111
6 8 0 -0.3313 -0.0682
6 8 1 0.4405 -0.1009
6 8 2 0.8516 -0.0487
6 8 3 0.3249 0.0382
6 8 4 -0.5274 0.0572
6 8 5 -0.5428 0.0566
6 8 6 0.6420 0.0366
6 8 7 0.8581 -0.0358
6 8 8 -0.3521 -0.0500
6 8 9 -0.3646 0.0071
6 8 10 0.2785 0.0290
6 10 0 -0.5262 -0.0096
6 10 1 -0.2253 -0.0013
6 10 2 0.4137 -0.0359
6 10 3 0.4391 -0.1053
6 10 4 -0.3976 -0.1438
6 10 5 -0.4787 -0.0810
6 10 6 0.4645 -0.0208
6 10 7 0.2244 -0.0173
6 10 8 -0.8342 0.0413
6 10 9 -0.5066 0.0971
6 12 0 -0.4923 0.0579
6 12 1 -0.6922 0.0917
6 12 2 -0.1393 0.0503
6 12 3 0.3029 -0.0463
6 12 4 -0.2678 -0.1048
6 12 5 -0.3854 -0.0808
6 12 6 0.1180 -0.0796
6 12 7 -0.4173 -0.0893
6 12 8 -1.0528 0.0073
6 14 0 -0.0367 -0.0130
6 14 1 -0.6362 -0.0025
6 14 2 -0.4702 0.0247
6 14 3 -0.0361 0.0327
6 14 4 -0.3330 0.0195
6 14 5 -0.2995 -0.0042
6 14 6 -0.0580 -0.0723
6 14 7 -0.6102 -0.1098
6 16 0 0.4935 -0.0899
6 16 1 -0.2284 -0.1314
6 16 2 -0.4346 -0.0690
6 16 3 -0.3216 0.0163
6 16 4 -0.4841 0.0413
6 16 5 -0.2058 0.0200
6 16 6 -0.0244 -0.0192
6 18 0 0.6099 -0.0291
6 18 1 0.1077 -0.0905
6 18 2 -0.1467 -0.0566
6 18 3 -0.3381 -0.0009
6 18 4 -0.4944 -0.0045
6 18 5 -0.0760 -0.0180
6 20 0 0.3353 0.0513
6 20 1 0.1918 0.0338
6 20 2 0.1577 0.0456
6 20 3 -0.1484 0.0453
6 20 4 -0.3276 -0.0051
7 1 0 0.3896 0.2631
7 1 1 0.5910 0.4777
7 1 2 0.0883 -0.0775
7 1 3 -0.3932 -0.6051
7 1 4 0.2886 -0.7562
7 1 5 0.0002 -0.6161
7 1 6 -0.4252 -0.2408
7 1 7 0.4955 0.1758
7 1 8 0.2748 0.3930
7 1 9 -0.6789 0.3442
7 3 0 0.2821 0.1067
7 3 1 0.8401 0.2289
7 3 2 0.4833 -0.0204
7 3 3 -0.2013 -0.1540
7 3 4 0.0914 -0.1620
7 3 5 -0.1458 -0.1676
7 3 6 -0.2728 -0.0722
7 3 7 0.5417 0.0701
7 3 8 0.2022 0.1106
7 3 9 -0.4785 0.0387
7 5 0 0.1881 0.0012
7 5 1 1.0915 -0.0168
7 5 2 0.8939 -0.0242
7 5 3 -0.0091 0.1429
7 5 4 -0.2129 0.2427
7 5 5 -0.2858 0.1672
7 5 6 0.1161 0.0885
7 5 7 0.7757 0.0239
7 5 8 0.2103 -0.0609
7 5 9 -0.1560 -0.1118
7 7 0 0.0505 -0.0279
7 7 1 1.0064 -0.0981
7 7 2 0.9428 -0.0555
7 7 3 0.0745 0.1095
7 7 4 -0.4394 0.1845
7 7 5 -0.3300 0.1584
7 7 6 0.5331 0.1333
7 7 7 0.9679 0.0569
7 7 8 0.1538 -0.0381
7 7 9 0.0087 -0.0588
7 9 0 -0.2432 0.0139
7 9 1 0.4886 -0.0033
7 9 2 0.5850 -0.0125
7 9 3 0.1117 -0.0157
7 9 4 -0.4377 -0.0446
7 9 5 -0.3296 -0.0113
7 9 6 0.5780 0.0610
7 9 7 0.6707 0.0380
7 9 8 -0.2458 -0.0002
7 9 9 -0.1714 0.0272
7 11 0 -0.4807 0.0471
7 11 1 -0.1413 0.0943
7 11 2 0.0682 0.0734
7 11 3 0.1339 -0.0104
7 11 4 -0.2746 -0.0972
7 11 5 -0.3473 -0.0805
7 11 6 0.2159 -0.0377
7 11 7 -0.0362 -0.0709
7 13 0 -0.3264 0.0037
7 13 1 -0.4600 0.0402
7 13 2 -0.3322 0.0637
7 13 3 0.0566 0.0537
7 13 4 -0.1860 0.0028
7 13 5 -0.3744 -0.0322
7 13 6 -0.1516 -0.0820
7 13 7 -0.5403 -0.1460
7 15 0 0.1172 -0.0462
7 15 1 -0.3906 -0.0925
7 15 2 -0.4794 -0.0499
7 15 3 -0.1264 0.0374
7 15 4 -0.2869 0.0475
7 15 5 -0.3757 -0.0062
7 15 6 -0.2256 -0.0716
7 17 0 0.3929 -0.0070
7 17 1 -0.1885 -0.1271
7 17 2 -0.3740 -0.1137
7 17 3 -0.2444 -0.0097
7 17 4 -0.4264 0.0091
7 17 5 -0.3146 -0.0413
7 19 0 0.3204 0.0580
7 19 1 -0.0657 -0.0555
7 19 2 -0.1224 -0.0547
7 19 3 -0.1704 0.0221
7 19 4 -0.4073 0.0087
8 0 0 0.2835 0.4291
8 0 1 0.4908 0.7492
8 0 2 -0.0693 0.2316
8 0 4 -0.1480 -0.7103
8 0 5 0.2140 -0.7116
8 0 6 -0.2789 -0.4596
8 0 7 -0.0369 -0.0645
8 0 8 -0.1285 0.2438
8 0 9 -0.7036 0.3104
8 2 0 0.2225 0.1609
8 2 1 0.6707 0.4081
8 2 2 0.2379 0.1023
8 2 3 -0.6001 -0.2102
8 2 4 -0.1524 -0.3472
8 2 5 0.0920 -0.4346
8 2 6 -0.3394 -0.3418
8 2 7 -0.0663 -0.0571
8 2 8 -0.1034 0.1610
8 2 9 -0.5150 0.1460
8 4 0 0.0705 -0.0548
8 4 1 1.0054 0.0007
8 4 2 0.8306 -0.0757
8 4 3 -0.1655 0.0100
8 4 4 -0.2143 0.0906
8 4 5 -0.1423 -0.0235
8 4 6 -0.3087 -0.0814
8 4 7 0.0575 0.0160
8 4 8 0.0717 0.0704
8 4 9 -0.0484 -0.0104
8 6 0 -0.1473 -0.0590
8 6 1 1.0960 -0.1458
8 6 2 1.1187 -0.1523
8 6 3 0.0709 0.0485
8 6 4 -0.3537 0.1859
8 6 5 -0.2803 0.1293
8 6 6 0.0151 0.1067
8 6 7 0.4641 0.1365
8 6 8 0.3578 0.0806
8 6 9 0.3654 -0.0314
8 8 0 -0.4184 0.0404
8 8 1 0.7644 -0.0380
8 8 2 0.8925 -0.0759
8 8 3 0.0711 -0.0088
8 8 4 -0.4277 0.0232
8 8 5 -0.2870 0.0310
8 8 6 0.3424 0.1254
8 8 7 0.7112 0.1677
8 8 8 0.3541 0.0805
8 10 0 -0.6025 0.0687
8 10 1 0.2127 0.0867
8 10 2 0.3990 0.0585
8 10 3 0.0696 0.0142
8 10 4 -0.2850 -0.0567
8 10 5 -0.2510 -0.0524
8 10 6 0.2894 0.0475
8 10 7 0.3880 0.0537
8 12 0 -0.4965 0.0086
8 12 1 -0.2258 0.0737
8 12 2 -0.0643 0.1033
8 12 3 0.1328 0.0958
8 12 4 -0.0171 0.0286
8 12 5 -0.2219 -0.0166
8 12 6 -0.0342 -0.0210
8 14 0 -0.1424 -0.0192
8 14 1 -0.4058 -0.0173
8 14 2 -0.3808 0.0170
8 14 3 0.1154 0.0901
8 14 4 0.1142 0.0870
8 14 5 -0.2082 0.0147
8 14 6 -0.2324 -0.0542
8 16 0 0.1580 0.0491
8 16 1 -0.3952 -0.0580
8 16 2 -0.5076 -0.0929
8 16 3 -0.0125 -0.0016
8 16 4 0.0125 0.0344
8 16 5 -0.2166 -0.0307
9 1 0 0.1197 0.2956
9 1 1 0.4489 0.6334
9 1 2 -0.0053 0.3652
9 1 3 -0.9297 -0.0606
9 1 4 -0.3435 -0.3264
9 1 5 0.4952 -0.5179
9 1 6 -0.0623 -0.5193
9 1 7 -0.5720 -0.2437
9 1 8 -0.5514 0.0692
9 3 0 -0.0914 -0.0327
9 3 1 0.5932 0.1462
9 3 2 0.4931 0.0566
9 3 3 -0.4135 0.0112
9 3 4 -0.2623 -0.0072
9 3 5 0.1652 -0.2199
9 3 6 -0.3570 -0.3545
9 3 7 -0.6203 -0.1713
9 3 8 -0.3653 0.0768
9 5 0 -0.4211 -0.1248
9 5 1 0.6202 -0.1448
9 5 2 0.9184 -0.1828
9 5 3 0.0788 -0.0215
9 5 4 -0.2406 0.1270
9 5 5 -0.1777 0.0022
9 5 6 -0.4364 -0.1002
9 5 7 -0.3327 0.0270
9 7 0 -0.6924 0.0106
9 7 1 0.3936 -0.0929
9 7 2 0.8639 -0.1880
9 7 3 0.1930 -0.0979
9 7 4 -0.2959 0.0133
9 7 5 -0.2969 -0.0073
9 7 6 -0.1326 0.0459
9 7 7 0.2233 0.1852
9 9 0 -0.7183 0.0905
9 9 1 0.0728 0.0483
9 9 2 0.4781 -0.0443
9 9 3 0.1169 -0.0687
9 9 4 -0.2427 -0.0715
9 9 5 -0.2264 -0.0651
9 9 6 0.1425 0.0609
9 9 7 0.4643 0.1667
9 11 0 -0.4578 0.0165
9 11 1 -0.1455 0.0651
9 11 2 0.0860 0.0685
9 11 3 0.1384 0.0638
9 11 4 0.0311 0.0237
9 11 5 -0.0906 -0.0145
9 11 6 0.0932 0.0313
9 13 0 -0.0971 -0.0356
9 13 1 -0.2522 0.0140
9 13 2 -0.2115 0.0641
9 13 3 0.2136 0.1296
9 13 4 0.3431 0.1284
9 13 5 0.0314 0.0525
9 15 0 0.1200 0.0528
9 15 1 -0.3053 0.0190
9 15 2 -0.4244 -0.0122
9 15 3 0.1627 0.0461
10 0 0 0.2036 0.3760
10 0 1 0.2767 0.7031
10 0 2 -0.2141 0.5398
10 0 3 -0.9849 0.1311
10 0 4 -0.3502 -0.1717
10 0 5 0.7491 -0.3734
10 0 6 0.2187 -0.4199
10 0 7 -0.7906 -0.2520
10 2 0 0.0611 0.0814
10 2 1 0.2506 0.3556
10 2 2 -0.0150 0.3235
10 2 3 -0.6951 0.1676
10 2 4 -0.2761 0.0269
10 2 5 0.5209 -0.2512
10 2 6 -0.0547 -0.4660
10 2 7 -0.8814 -0.3267
10 4 0 -0.2913 -0.1305
10 4 1 0.1067 -0.0155
10 4 2 0.3065 -0.0089
10 4 3 -0.1522 0.0568
10 4 4 -0.1550 0.1299
10 4 5 0.0673 -0.0708
10 4 6 -0.4820 -0.3034
10 4 7 -0.8606 -0.1995
10 6 0 -0.6139 -0.0529
10 6 1 -0.1618 -0.0792
10 6 2 0.3412 -0.1730
10 6 3 0.1204 -0.1255
10 6 4 -0.1286 0.0061
10 6 5 -0.2232 -0.0487
10 6 6 -0.4976 -0.1185
10 8 0 -0.6156 0.0762
10 8 1 -0.3418 0.0252
10 8 2 0.1118 -0.1320
10 8 3 0.0675 -0.1928
10 8 4 -0.1430 -0.1311
10 8 5 -0.2367 -0.1027
10 8 6 -0.1766 -0.0210
10 10 0 -0.2574 0.0287
10 10 1 -0.2710 0.0385
10 10 2 -0.0826 -0.0302
10 10 3 0.0147 -0.0754
10 10 4 -0.0187 -0.0632
10 10 5 -0.1041 -0.0557
10 12 0 0.1433 -0.0647
10 12 1 -0.0953 -0.0192
10 12 2 -0.1527 0.0251
10 12 3 0.1048 0.0754
11 1 0 0.3172 0.1821
11 1 1 0.2871 0.4331
11 1 2 -0.2972 0.4765
11 1 3 -0.8832 0.3038
11 1 4 -0.3171 0.1026
11 3 0 0.0829 -0.0477
11 3 1 0.0705 0.1535
11 3 2 -0.1876 0.2627
11 3 3 -0.5272 0.2518
11 3 4 -0.2002 0.2026
11 5 0 -0.2276 -0.0744
11 5 1 -0.2854 0.0225
11 5 2 -0.1986 0.0352
11 5 3 -0.2107 0.0255
11 5 4 -0.0980 0.0786
11 7 0 -0.3208 0.0426
11 7 1 -0.5166 0.0674
11 7 2 -0.3531 -0.0579
11 7 3 -0.1642 -0.1802
11 9 0 -0.0534 0.0377
11 9 1 -0.3897 0.0575
11 9 2 -0.4021 -0.0612
12 0 0 0.2477 0.1699
12 0 1 0.4384 0.2963
12 2 0 0.1826 0.0480
12 2 1 0.3189 0.2025
12 4 0 0.0203 -0.0274
0 0 0 0.0 0.0
;
_shelx_fab_checksum              25890
_olex2_submission_special_instructions 'No special instructions were received'
loop_
_space_group_symop_operation_xyz
'x, y, z'
'-x, y, -z'
'x+1/2, y+1/2, z'
'-x+1/2, y+1/2, -z'
'-x, -y, -z'
'x, -y, z'
'-x+1/2, -y+1/2, -z'
'x+1/2, -y+1/2, z'
loop_
_atom_site_label
_atom_site_type_symbol
_atom_site_fract_x
_atom_site_fract_y
_atom_site_fract_z
_atom_site_U_iso_or_equiv
_atom_site_adp_type
_atom_site_occupancy
_atom_site_site_symmetry_order
_atom_site_calc_flag
_atom_site_refinement_flags_posn
_atom_site_refinement_flags_adp
_atom_site_refinement_flags_occupancy
_atom_site_disorder_assembly
_atom_site_disorder_group
Cu1 Cu 0.43897(4) 0.000000 0.10094(4) 0.0380(2) Uani 1 2 d S T P . .
O1 O 0.5720(3) 0.07410(13) 0.1626(3) 0.0541(6) Uani 1 1 d . . . . .
O2 O 0.3205(3) 0.07382(14) 0.0067(3) 0.0550(6) Uani 1 1 d . . . . .
O3 O 0.3607(5) 0.0050(16) 0.2776(5) 0.056(2) Uani 0.5 1 d . U . A -1
N4 N 0.7897(5) 0.2669(3) 0.4723(5) 0.1017(19) Uani 1 1 d . . . . .
C1 C 0.9097(7) 0.2485(4) 0.1615(6) 0.126(3) Uani 1 1 d . . . . .
H1 H 0.970682 0.272391 0.117474 0.151 Uiso 1 1 calc R . . . .
C0AA C 0.8397(6) 0.1899(3) 0.1035(5) 0.0878(17) Uani 1 1 d . . . . .
H0AA H 0.853989 0.172687 0.020994 0.105 Uiso 1 1 calc R . . . .
C2 C 0.6604(3) 0.09609(16) 0.1017(3) 0.0480(7) Uani 1 1 d . . . . .
C3 C 0.8920(8) 0.2728(4) 0.2830(7) 0.130(3) Uani 1 1 d . . . . .
H3 H 0.940072 0.313563 0.321712 0.156 Uiso 1 1 calc R . . . .
C4 C 0.8043(6) 0.2378(3) 0.3484(6) 0.093(2) Uani 1 1 d . . . . .
C5 C 0.7322(5) 0.1788(3) 0.2897(5) 0.0706(12) Uani 1 1 d . . . . .
H5 H 0.672527 0.154356 0.334621 0.085 Uiso 1 1 calc R . . . .
C6 C 0.7472(4) 0.1559(2) 0.1675(4) 0.0624(9) Uani 1 1 d . . . . .
C1AA C 0.2733(11) -0.0407(4) 0.2934(9) 0.074(2) Uani 0.5 1 d . U . A -1
H1AA H 0.240989 -0.073354 0.224176 0.089 Uiso 0.5 1 calc R . . A -1
C2AA C 0.2849(17) 0.0022(13) 0.5167(9) 0.140(6) Uani 0.5 1 d . . . A -1
H2AA H 0.339678 -0.026596 0.586083 0.210 Uiso 0.5 1 calc GR . . A -1
H2AB H 0.214241 0.026529 0.552197 0.210 Uiso 0.5 1 calc GR . . A -1
H2AC H 0.341499 0.037884 0.484639 0.210 Uiso 0.5 1 calc GR . . A -1
N2 N 0.2237(10) -0.0445(5) 0.4076(9) 0.090(2) Uani 0.5 1 d . U . A -1
C3AA C 0.1099(16) -0.0901(8) 0.4123(15) 0.117(5) Uani 0.5 1 d . . . A -1
H3AA H 0.030735 -0.060384 0.413777 0.176 Uiso 0.5 1 calc GR . . A -1
H3AB H 0.128773 -0.119664 0.491955 0.176 Uiso 0.5 1 calc GR . . A -1
H3AC H 0.092925 -0.121046 0.334410 0.176 Uiso 0.5 1 calc GR . . A -1
loop_
_atom_site_aniso_label
_atom_site_aniso_U_11
_atom_site_aniso_U_22
_atom_site_aniso_U_33
_atom_site_aniso_U_23
_atom_site_aniso_U_13
_atom_site_aniso_U_12
Cu1 0.0472(4) 0.0285(3) 0.0353(4) 0.000 0.0008(2) 0.000
O1 0.0629(14) 0.0457(12) 0.0525(14) -0.0144(10) 0.0081(10) -0.0149(10)
O2 0.0658(14) 0.0498(12) 0.0493(13) 0.0148(10) 0.0106(10) 0.0179(11)
O3 0.075(2) 0.047(6) 0.0475(19) 0.002(4) 0.0154(16) 0.014(5)
N4 0.116(3) 0.111(4) 0.088(3) -0.063(3) 0.044(3) -0.075(3)
C1 0.153(6) 0.145(6) 0.097(4) -0.063(4) 0.068(4) -0.109(5)
C0AA 0.110(4) 0.092(3) 0.069(3) -0.034(2) 0.034(3) -0.059(3)
C2 0.0559(16) 0.0383(14) 0.0465(17) -0.0056(12) 0.0013(12) -0.0071(12)
C3 0.159(6) 0.144(6) 0.104(4) -0.075(4) 0.069(4) -0.116(5)
C4 0.107(4) 0.100(4) 0.082(3) -0.054(3) 0.040(3) -0.066(3)
C5 0.075(2) 0.074(3) 0.066(2) -0.032(2) 0.0207(19) -0.034(2)
C6 0.070(2) 0.059(2) 0.059(2) -0.0208(17) 0.0140(16) -0.0245(17)
C1AA 0.112(6) 0.054(4) 0.059(5) -0.008(3) 0.024(4) -0.007(4)
C2AA 0.207(13) 0.160(11) 0.056(5) 0.007(10) 0.035(7) 0.127(13)
N2 0.120(7) 0.073(5) 0.087(5) -0.002(4) 0.046(5) -0.014(5)
C3AA 0.124(10) 0.109(10) 0.129(11) -0.018(8) 0.050(8) -0.045(9)
loop_
_atom_type_symbol
_atom_type_description
_atom_type_scat_dispersion_real
_atom_type_scat_dispersion_imag
_atom_type_scat_source
C C 0.0050 0.0020 'International Tables Vol C Tables 4.2.6.8 and 6.1.1.4'
H H 0.0000 0.0000 'International Tables Vol C Tables 4.2.6.8 and 6.1.1.4'
Cu Cu 0.2560 1.6830 'International Tables Vol C Tables 4.2.6.8 and 6.1.1.4'
N N 0.0090 0.0050 'International Tables Vol C Tables 4.2.6.8 and 6.1.1.4'
O O 0.0160 0.0090 'International Tables Vol C Tables 4.2.6.8 and 6.1.1.4'
loop_
_geom_angle_atom_site_label_1
_geom_angle_atom_site_label_2
_geom_angle_atom_site_label_3
_geom_angle
_geom_angle_site_symmetry_1
_geom_angle_site_symmetry_3
_geom_angle_publ_flag
O1 Cu1 Cu1 81.70(8) . 5_655 ?
O1 Cu1 Cu1 81.70(8) 6 5_655 ?
O1 Cu1 O1 90.23(17) 6 . ?
O1 Cu1 O2 168.46(11) 6 . ?
O1 Cu1 O2 168.46(11) . 6 ?
O1 Cu1 O2 89.05(14) . . ?
O1 Cu1 O2 89.05(14) 6 6 ?
O1 Cu1 O3 92.3(6) . . ?
O1 Cu1 O3 95.8(6) 6 . ?
O2 Cu1 Cu1 86.80(8) 6 5_655 ?
O2 Cu1 Cu1 86.80(8) . 5_655 ?
O2 Cu1 O2 89.36(17) . 6 ?
O2 Cu1 O3 99.3(6) 6 . ?
O2 Cu1 O3 95.7(6) . . ?
O3 Cu1 Cu1 173.4(4) . 5_655 ?
C2 O1 Cu1 125.6(2) . . ?
C2 O2 Cu1 119.6(2) 2_655 . ?
C1AA O3 Cu1 118.1(13) . . ?
N4 N4 C4 114.2(5) 7_656 . ?
C0AA C1 C3 120.7(5) . . ?
C1 C0AA C6 119.4(4) . . ?
O1 C2 C6 115.3(3) . . ?
O2 C2 O1 126.2(3) 2_655 . ?
O2 C2 C6 118.4(3) 2_655 . ?
C1 C3 C4 120.0(4) . . ?
C3 C4 N4 116.7(4) . . ?
C3 C4 C5 119.6(4) . . ?
C5 C4 N4 123.6(5) . . ?
C6 C5 C4 120.3(4) . . ?
C0AA C6 C2 120.7(3) . . ?
C5 C6 C0AA 120.0(4) . . ?
C5 C6 C2 119.3(3) . . ?
O3 C1AA N2 122.1(9) . . ?
C1AA N2 C2AA 117.4(10) . . ?
C1AA N2 C3AA 119.4(10) . . ?
C3AA N2 C2AA 123.1(11) . . ?
loop_
_geom_bond_atom_site_label_1
_geom_bond_atom_site_label_2
_geom_bond_distance
_geom_bond_site_symmetry_2
_geom_bond_publ_flag
Cu1 Cu1 2.6299(16) 5_655 ?
Cu1 O1 1.954(2) 6 ?
Cu1 O1 1.954(2) . ?
Cu1 O2 1.961(2) 6 ?
Cu1 O2 1.961(2) . ?
Cu1 O3 2.133(5) . ?
O1 C2 1.263(4) . ?
O2 C2 1.247(4) 2_655 ?
O3 C1AA 1.27(2) . ?
N4 N4 1.248(9) 7_656 ?
N4 C4 1.427(7) . ?
C1 C0AA 1.377(6) . ?
C1 C3 1.381(7) . ?
C0AA C6 1.404(6) . ?
C2 C6 1.503(4) . ?
C3 C4 1.384(7) . ?
C4 C5 1.396(6) . ?
C5 C6 1.371(5) . ?
C1AA N2 1.374(12) . ?
C2AA N2 1.47(2) . ?
N2 C3AA 1.445(15) . ?
loop_
_smtbx_masks_void_nr
_smtbx_masks_void_average_x
_smtbx_masks_void_average_y
_smtbx_masks_void_average_z
_smtbx_masks_void_volume
_smtbx_masks_void_count_electrons
_smtbx_masks_void_content
1 0.000 0.000 0.000 83.1 11.4 ?
2 0.500 0.500 0.000 83.1 11.4 ?
