#------------------------------------------------------------------------------
#$Date: 2020-06-04 03:58:12 +0300 (Thu, 04 Jun 2020) $
#$Revision: 252595 $
#$URL: file:///home/coder/svn-repositories/cod/cif/4/13/49/4134962.cif $
#------------------------------------------------------------------------------
#
# This file is available in the Crystallography Open Database (COD),
# http://www.crystallography.net/
#
# All data on this site have been placed in the public domain by the
# contributors.
#
data_4134962
loop_
_publ_author_name
'Wang, Jun'
'Zhang, Yan'
'Zhang, Peixin'
'Hu, Jianbo'
'Lin, Rui-Biao'
'Deng, Qiang'
'Zeng, Zheling'
'Xing, Huabin'
'Deng, Shuguang'
'Chen, Banglin'
_publ_section_title
;
 Optimizing Pore Space for Flexible-Robust Metal-Organic Framework to
 Boost Trace Acetylene Removal.
;
_journal_issue                   21
_journal_name_full               'Journal of the American Chemical Society'
_journal_page_first              9744
_journal_page_last               9751
_journal_paper_doi               10.1021/jacs.0c02594
_journal_volume                  142
_journal_year                    2020
_chemical_formula_sum            'C20 H28 Cu F6 N4 O6 S2 Si'
_chemical_formula_weight         690.21
_space_group_crystal_system      orthorhombic
_space_group_IT_number           72
_space_group_name_Hall           '-I 2 2c'
_space_group_name_H-M_alt        'I b a m'
_atom_sites_solution_hydrogens   mixed
_audit_creation_method           SHELXL-2018/3
_cell_angle_alpha                90
_cell_angle_beta                 90
_cell_angle_gamma                90
_cell_formula_units_Z            4
_cell_length_a                   19.040(4)
_cell_length_b                   9.9063(18)
_cell_length_c                   15.835(3)
_cell_measurement_reflns_used    3535
_cell_measurement_temperature    193(2)
_cell_measurement_theta_max      53.88
_cell_measurement_theta_min      6.33
_cell_volume                     2986.7(10)
_computing_structure_refinement  'SHELXL-2018/3 (Sheldrick, 2018)'
_computing_structure_solution    'SHELXT 2014/5 (Sheldrick, 2014)'
_diffrn_ambient_temperature      193(2)
_diffrn_measured_fraction_theta_full 0.990
_diffrn_measured_fraction_theta_max 0.990
_diffrn_measurement_device_type  'Bruker D8 Venture'
_diffrn_measurement_method       '\f and \w scans'
_diffrn_radiation_type           GaK\a
_diffrn_radiation_wavelength     1.34139
_diffrn_reflns_av_R_equivalents  0.0779
_diffrn_reflns_av_unetI/netI     0.0591
_diffrn_reflns_Laue_measured_fraction_full 0.990
_diffrn_reflns_Laue_measured_fraction_max 0.990
_diffrn_reflns_limit_h_max       13
_diffrn_reflns_limit_h_min       -22
_diffrn_reflns_limit_k_max       6
_diffrn_reflns_limit_k_min       -11
_diffrn_reflns_limit_l_max       18
_diffrn_reflns_limit_l_min       -18
_diffrn_reflns_number            7810
_diffrn_reflns_point_group_measured_fraction_full 0.990
_diffrn_reflns_point_group_measured_fraction_max 0.990
_diffrn_reflns_theta_full        52.998
_diffrn_reflns_theta_max         52.998
_diffrn_reflns_theta_min         6.113
_exptl_absorpt_coefficient_mu    5.526
_exptl_crystal_density_diffrn    1.535
_exptl_crystal_description       block
_exptl_crystal_F_000             1412
_exptl_crystal_size_max          0.190
_exptl_crystal_size_mid          0.170
_exptl_crystal_size_min          0.140
_refine_diff_density_max         1.049
_refine_diff_density_min         -0.653
_refine_diff_density_rms         0.124
_refine_ls_extinction_method     none
_refine_ls_goodness_of_fit_ref   1.080
_refine_ls_hydrogen_treatment    constr
_refine_ls_matrix_type           full
_refine_ls_number_parameters     110
_refine_ls_number_reflns         1362
_refine_ls_number_restraints     36
_refine_ls_restrained_S_all      1.097
_refine_ls_R_factor_all          0.0862
_refine_ls_R_factor_gt           0.0752
_refine_ls_shift/su_max          0.000
_refine_ls_shift/su_mean         0.000
_refine_ls_structure_factor_coef Fsqd
_refine_ls_weighting_details
'w=1/[\s^2^(Fo^2^)+(0.1765P)^2^+5.7525P] where P=(Fo^2^+2Fc^2^)/3'
_refine_ls_weighting_scheme      calc
_refine_ls_wR_factor_gt          0.2390
_refine_ls_wR_factor_ref         0.2579
_reflns_Friedel_coverage         0.000
_reflns_number_gt                1062
_reflns_number_total             1362
_reflns_threshold_expression     'I > 2\s(I)'
_cod_data_source_file            ja0c02594_si_001.cif
_cod_data_source_block           12_a_sq
_cod_depositor_comments
'Adding full bibliography for 4134961--4134962.cif.'
_cod_original_cell_volume        2986.8(10)
_cod_database_code               4134962
_shelx_shelxl_version_number     2018/3
_shelx_space_group_comment
;
The symmetry employed for this shelxl refinement is uniquely defined
by the following loop, which should always be used as a source of
symmetry information in preference to the above space-group names.
They are only intended as comments.
;
_shelx_estimated_absorpt_t_min   0.420
_shelx_estimated_absorpt_t_max   0.512
_shelx_res_file
;
TITL 12_a.res in Ibam
    12_a_sq.res
    created by SHELXL-2018/3 at 17:49:52 on 04-Apr-2019
CELL  1.34139  19.0404   9.9063  15.8350   90.000   90.000   90.000
ZERR    4.000   0.0036   0.0018   0.0030    0.000    0.000    0.000
LATT 2
SYMM -X, -Y, Z
SYMM 1/2-X, 1/2+Y, -Z
SYMM 1/2+X, 1/2-Y, -Z
SFAC C  H  Cu F  N  S  Si O
UNIT 80 112 4 24 16 8 4 24
OMIT  -3.00 106.00
L.S. 50
ACTA
BOND $H
FMAP 2
PLAN 20
ISOR .01 $F
SIZE .19 .17 .14
ISOR .01 O1
TEMP -80.180
WGHT    0.176500    5.752500
FVAR       0.37118   0.72836   0.68631
C1    1    0.571787    0.241692    0.687530    11.00000    0.04732    0.03354 =
         0.03831    0.00306   -0.00491   -0.00453
AFIX  43
H1    2    0.538599    0.232612    0.643094    11.00000   -1.20000
AFIX   0
C2    1    0.616327    0.351060    0.687152    11.00000    0.05375    0.03472 =
         0.04463    0.00294   -0.00262   -0.00429
AFIX  43
H2    2    0.613079    0.417233    0.643906    11.00000   -1.20000
AFIX   0
C3    1    0.665733    0.363393    0.750338    11.00000    0.02815    0.02501 =
         0.05841   -0.00719    0.00162    0.00142
C4    1    0.668594    0.265610    0.812479    11.00000    0.03430    0.03357 =
         0.05021   -0.00161   -0.00348    0.00312
AFIX  43
H4    2    0.702379    0.271356    0.856479    11.00000   -1.20000
AFIX   0
C5    1    0.621822    0.159791    0.809739    11.00000    0.03538    0.02969 =
         0.04094    0.00201   -0.00306    0.00238
AFIX  43
H5    2    0.623735    0.093076    0.852773    11.00000   -1.20000
AFIX   0
CU1   3    0.500000    0.000000    0.750000    10.25000    0.03108    0.02149 =
         0.02650    0.00000    0.00000    0.00000
F1    4    0.500000    0.000000    0.606449    10.50000    0.06537    0.04333 =
         0.01894    0.00000    0.00000   -0.00610
PART 1
F2    4    0.494721    0.169036    0.500000    20.50000    0.14091    0.03195 =
         0.04223    0.00000    0.00000    0.00296
F3    4    0.587122    0.007396    0.500000    30.50000    0.03520    0.13216 =
         0.05172    0.00000    0.00000   -0.00471
PART 2
F2'   4    0.444306    0.130590    0.500000   -20.50000    0.09709    0.08347 =
         0.07602    0.00000    0.00000    0.04991
F3'   4    0.569468    0.097526    0.500000   -30.50000    0.08054    0.09538 =
         0.09921    0.00000    0.00000   -0.05838
PART 0
N1    5    0.573471    0.147511    0.748232    11.00000    0.02985    0.02752 =
         0.03431   -0.00281   -0.00054    0.00121
S1    6    0.725928    0.500000    0.750000    10.50000    0.02704    0.02540 =
         0.09460   -0.00524    0.00000    0.00000
SI1   7    0.500000    0.000000    0.500000    10.25000    0.03543    0.02901 =
         0.02309    0.00000    0.00000   -0.00148
O1    8    0.692954    0.489610    0.500000    10.50000    0.12638    0.23187 =
         0.09824    0.00000    0.00000   -0.01423
AFIX   3
H1B   2    0.717553    0.429990    0.475190    10.50000   -1.50000
H1C   2    0.660424    0.516100    0.467190    10.50000   -1.50000
AFIX   0
O2    8    0.560976    0.578845    0.500000    10.50000    0.16552
AFIX   3
H2A   2    0.524986    0.629595    0.500000    10.50000   -1.50000
H2B   2    0.585426    0.594545    0.543830    10.50000   -1.50000
AFIX   0
O3    8    0.700994    0.196186    0.500000    10.50000    0.22588
AFIX   3
H3D   2    0.666785    0.141066    0.500000    10.50000   -1.20000
H3A   2    0.739434    0.152556    0.500000    10.50000   -1.50000
AFIX   0
HKLF 4




REM  12_a.res in Ibam
REM wR2 = 0.2579, GooF = S = 1.080, Restrained GooF = 1.097 for all data
REM R1 = 0.0752 for 1062 Fo > 4sig(Fo) and 0.0862 for all 1362 data
REM 110 parameters refined using 36 restraints

END

WGHT      0.1548      8.1136

REM Highest difference peak  1.049,  deepest hole -0.653,  1-sigma level  0.124
Q1    1   0.5531  0.5819  0.5416  11.00000  0.05    1.05
Q2    1   0.7935  0.3765  0.5000  10.50000  0.05    1.04
Q3    1   0.7656  0.4970  0.5000  10.50000  0.05    0.63
Q4    1   0.7385  0.4120  0.5000  10.50000  0.05    0.62
Q5    1   0.5350  0.1412  0.5000  10.50000  0.05    0.54
Q6    1   0.4670  0.1415  0.5000  10.50000  0.05    0.49
Q7    1   0.4842 -0.0955  0.5636  11.00000  0.05    0.33
Q8    1   0.6705  0.5086  0.5000  10.50000  0.05    0.32
Q9    1   0.5298  0.1419  0.6276  11.00000  0.05    0.32
Q10   1   0.7014  0.0997  0.4517  11.00000  0.05    0.31
Q11   1   0.5265  0.1203  0.7455  11.00000  0.05    0.31
Q12   1   0.6410 -0.0883  0.5000  10.50000  0.05    0.31
Q13   1   0.5989  0.1454  0.7551  11.00000  0.05    0.30
Q14   1   0.5651  0.5699  0.7030  11.00000  0.05    0.30
Q15   1   0.5188 -0.0964  0.6833  11.00000  0.05    0.30
Q16   1   0.4311  0.0728  0.5000  10.50000  0.05    0.29
Q17   1   0.5329 -0.1352  0.6265  11.00000  0.05    0.29
Q18   1   0.4980  0.2491  0.6350  11.00000  0.05    0.27
Q19   1   0.7159  0.1001  0.5000  10.50000  0.05    0.26
Q20   1   0.6303  0.0966  0.6596  11.00000  0.05    0.26
;
_shelx_res_checksum              66561
_shelx_hkl_file
;
   0   2   0 2170.38  224.48
   0   4   0 2208.78  231.78
   0   6   0 5778.22  579.14
   0  -6   0 5152.88  571.94
   0  -6   0 5759.72  568.74
   0  -8   0 4499.65  472.75
   0  -8   0 4747.92  477.65
   0 -10   0   33.10    7.50
   0 -10   0   65.59   15.30
   0   1  -1    0.20    1.20
   0   1  -1   -0.50    1.40
   0   1  -1   -0.60    1.20
   0   1   1    2.10    2.50
   0  -1   1    0.30    1.50
   0   3   1   -0.70    3.50
   0   3  -1    3.00    4.50
   0  -3   1    0.10    4.30
   0   3  -1    1.40    3.80
   0   3   1    0.70    4.20
   0   5  -1    5.40    6.00
   0   5   1    1.20    5.30
   0  -5   1   -2.30    5.90
   0   5   1    3.40    5.30
   0   5  -1    1.70    4.60
   0  -7  -1   -1.40    2.80
   0  -7   1    1.60    4.50
   0  -7   1    1.10    7.80
   0  -7   1    5.00    2.40
   0  -7  -1   -4.60    6.90
   0  -9   1    2.20   10.90
   0  -9  -1    8.00   10.70
   0  -9  -1   -0.70    5.40
   0  -9   1    2.50    4.60
   0 -11  -1    5.90    5.00
   0 -11   1   -2.10    4.20
   0  -2   2 2631.54  255.87
   0   2   2 2371.86  258.07
   0   2  -2 2474.05  257.47
   0   4   2  223.68   32.50
   0  -4   2  239.88   26.70
   0  -4   2  235.88   29.50
   0   4  -2  298.77   32.10
   0   4   2  290.57   38.00
   0   6   2 1533.15  158.98
   0  -6   2 1464.75  144.79
   0   6   2 1272.17  154.58
   0  -6  -2 1233.78  144.59
   0   6  -2 1584.34  154.38
   0  -8  -2 2310.27  215.98
   0  -8  -2 1994.70  210.28
   0  -8   2 1882.91  210.48
   0 -10  -2   53.09   14.30
   0 -10   2   25.70   12.20
   0 -10  -2   39.80    7.80
   0 -10   2   49.80    7.70
   0  -1   3    0.00    2.30
   0   1   3    1.60    2.80
   0   3   3   -1.80    3.00
   0   3   3   -0.30    4.00
   0  -3   3    0.50    4.00
   0   3  -3   -3.50    1.80
   0   3  -3    0.90    2.90
   0  -3   3    0.50    1.80
   0   5   3    6.10    5.80
   0  -5   3   -2.10    5.70
   0  -5   3    5.40    3.20
   0   5   3   -1.00    4.70
   0   5  -3    0.00    4.00
   0  -5   3   -0.90    1.50
   0   5  -3   -7.00    6.60
   0  -7  -3    1.10    3.70
   0  -7   3   -1.30    4.30
   0  -7   3   -2.00    7.50
   0  -9   3   -1.90    4.40
   0  -9  -3   -1.80    2.40
   0  -9  -3    4.20    9.30
   0  -9   3   -0.70    9.20
   0 -11   3    3.20    4.60
   0 -11  -3    1.00    4.80
   0   2   4 7287.37  682.63
   0   2  -4 6098.79  678.73
   0   2  -4 5979.40  678.93
   0   2   4 7241.08  683.73
   0   4  -4  103.49   15.40
   0   4   4   80.39   17.20
   0  -4   4  119.39   15.30
   0  -4   4  106.69   11.10
   0   4  -4   78.29   13.80
   0   6   4 4496.75  558.34
   0  -6   4 5938.21  550.84
   0   6   4 4461.25  556.14
   0  -6  -4 6060.29  546.55
   0   6  -4 5251.07  553.44
   0  -6   4 5706.83  545.35
   0  -8  -4 1472.35  183.68
   0  -8  -4 1833.72  179.98
   0  -8   4 1904.41  179.98
   0 -10  -4  213.08   22.30
   0 -10   4  161.88   21.80
   0  -1   5    0.00    1.90
   0   1   5   -1.60    2.30
   0  -1   5   -0.50    3.20
   0   1   5   -1.00    2.60
   0  -1   5   -0.10    1.40
   0   1   5    0.90    1.90
   0   3  -5    0.20    1.90
   0   3  -5    0.90    1.90
   0  -3   5   -1.90    2.00
   0  -3   5   -0.30    3.90
   0   3   5    1.60    3.80
   0   3   5    6.10    5.80
   0  -3   5   -0.40    1.80
   0   5   5    6.60    7.10
   0   5  -5    6.20    4.90
   0  -5   5    2.00    2.50
   0  -5   5    2.60    6.50
   0   5   5    1.20    5.40
   0  -5   5    1.20    3.00
   0  -7   5    2.10    2.10
   0  -7   5   -0.90    8.80
   0  -7  -5   -0.50    4.10
   0  -7   5   -1.00    4.60
   0  -9   5   -4.50    5.00
   0  -9  -5    2.10    9.00
   0  -9   5   -2.00    9.50
   0  -9  -5   -1.00    4.40
   0 -11  -5    1.40    5.00
   0 -11   5    0.40    4.60
   0   0   6 1662.53  170.98
   0   0   6 1780.72  169.68
   0   0   6 1733.63  169.68
   0   0   6 1488.85  170.78
   0   0   6 1618.04  171.08
   0   2   6 3484.35  345.07
   0   2   6 3188.88  343.97
   0   2   6 3302.67  338.87
   0  -2   6 3298.67  340.67
   0   4   6  111.39   21.70
   0   4   6  106.89   18.80
   0  -4   6  120.39   12.40
   0   4  -6  106.99   13.70
   0   4  -6  101.89   13.50
   0  -4   6   99.69   11.80
   0  -6   6 1330.77  146.49
   0  -6   6 1541.45  147.49
   0  -8   6  648.04   73.59
   0  -8   6  689.53   79.79
   0  -8  -6  768.12   74.09
   0 -10   6  379.06   43.30
   0 -10  -6  326.57   41.90
   0 -10   6  336.97   36.00
   0 -10  -6  308.57   35.60
   0  -1   7   -0.90    2.50
   0   1   7    1.20    2.40
   0  -1   7    4.10    5.10
   0   1   7    6.40    2.70
   0   1   7   -1.70    2.80
   0  -1   7    1.60    2.10
   0   1   7    0.50    3.00
   0   3   7   -6.80    4.70
   0  -3   7   -0.70    1.90
   0   3   7   -1.80    1.90
   0  -3   7   -1.40    4.80
   0  -3   7    0.20    2.60
   0  -5   7    7.20    7.90
   0   5   7   -7.40   11.60
   0  -5   7    0.80    3.20
   0  -5   7    0.00    3.00
   0  -7   7   -6.30    9.10
   0  -7  -7   -4.70    4.90
   0  -7   7    0.10    2.90
   0  -7   7   -0.70    4.80
   0  -9  -7   -4.20    5.40
   0  -9  -7   -1.30    8.90
   0  -9   7    6.10    5.70
   0  -9   7    5.60   11.90
   0 -11  -7    1.30    4.50
   0 -11   7    0.20    4.80
   0   2   8 8165.98  871.91
   0   2   8 8805.92  872.91
   0  -4   8  559.64   56.99
   0  -4   8  576.94   56.79
   0   4   8  480.55   66.29
   0  -6   8 3802.22  385.86
   0  -6   8 3743.93  391.66
   0  -8   8  966.90  106.39
   0  -8  -8  950.50  100.09
   0 -10   8  535.05   65.39
   0 -10  -8  715.43   65.79
   0  -1   9   -0.80    3.10
   0  -1   9    2.50    5.30
   0   1   9   -2.50    4.10
   0   1   9   -0.20    2.70
   0   1   9   -0.30    3.20
   0   1   9   -0.20    4.20
   0  -1   9   -0.50    2.60
   0   3   9    4.60    6.60
   0   3   9    3.00    2.60
   0  -3   9    0.00    5.70
   0  -3   9    0.70    3.00
   0  -3   9    0.20    3.30
   0  -5   9   13.00    9.10
   0  -5   9   -7.80    3.70
   0  -5   9   -4.80    3.50
   0  -7   9  -18.30    9.20
   0  -7   9    2.60    5.80
   0  -7   9    2.90    3.70
   0  -9  -9   -1.80    5.20
   0  -9  -9   -7.80    8.40
   0  -9   9   -3.40    5.90
   0  -9   9   16.10   11.40
   0   0  10  453.75   53.29
   0   0  10  567.94   53.09
   0  -2  10  315.77   35.00
   0  -2  10  297.17   38.10
   0   2  10  405.86   47.00
   0   2  10  320.57   34.60
   0   2  10  358.06   35.40
   0  -2  10  324.87   34.70
   0  -4  10   98.59   11.80
   0  -4  10   88.69   12.20
   0  -4  10  105.59   16.90
   0  -6  10   91.09   13.70
   0  -6  10  103.89   12.30
   0  -6  10   91.29   19.60
   0  -8  10   98.29   14.50
   0  -8  10  110.59   12.00
   0  -8 -10   80.19   13.90
   0 -10 -10  101.89   13.00
   0 -10  10   79.69   12.10
   0  -1  11    1.00    7.20
   0  -1  11    1.70    3.90
   0   1  11   -3.00    3.50
   0   1  11    2.50    4.20
   0   1  11    1.70    4.90
   0  -1  11   -3.10    3.30
   0  -3  11   -5.50    6.90
   0  -3  11    0.10    4.00
   0  -3  11    1.80    4.40
   0   3  11    0.40    3.60
   0  -5  11    1.00    5.60
   0  -5  11   -0.40    4.70
   0  -5  11    2.60    9.20
   0  -7  11    5.70    4.50
   0  -7  11    2.50   10.50
   0  -7  11   -5.80    6.90
   0  -9 -11    4.30    5.90
   0  -9  11   -3.50    6.30
   0   0  12 4563.44  480.75
   0   0  12 4827.62  480.05
   0  -2  12 1162.68  110.09
   0  -2  12  949.71  113.39
   0   2  12 1054.39  109.49
   0   2  12 1072.89  110.19
   0  -4  12  236.68   34.50
   0  -4  12  288.67   30.50
   0  -4  12  292.77   30.00
   0  -6  12 1176.88  123.19
   0  -6  12 1212.58  122.09
   0  -6  12 1162.68  128.99
   0  -8 -12  523.95   53.99
   0  -8  12  555.54   51.99
   0  -8  12  403.86   53.19
   0   1  13    6.60    5.20
   0  -1  13    1.70    5.40
   0   1  13   -1.30    5.90
   0  -1  13    0.70    5.40
   0  -3  13    3.70    5.20
   0  -3  13    2.80    4.80
   0  -3  13   -8.90    7.20
   0   3  13    0.60    4.30
   0  -5  13    4.00   10.80
   0  -5  13   -7.40    5.70
   0  -5  13   -0.50    5.00
   0  -7  13   -9.80    6.70
   0  -7  13   18.90   12.90
   0  -7 -13   -3.20    6.90
   0  -7  13    0.80    4.80
   0   0  14 1062.09  105.99
   0   0  14  986.90  106.49
   0  -2  14   18.40    6.50
   0  -2  14    4.60    5.80
   0   2  14   17.30    5.90
   0   2  14   22.00    7.10
   0  -4  14   80.49   11.40
   0  -4  14   98.59   12.80
   0  -4  14   68.89   16.50
   0  -6  14  168.58   20.10
   0  -6  14  178.78   21.50
   0  -6  14  175.58   29.70
   0  -8 -14  342.17   35.20
   0  -8  14  291.67   34.00
   0  -8  14  295.57   32.40
   0   1  15   -0.70    5.70
   0  -1  15   -6.00    6.50
   0  -1  15    0.80    6.10
   0   1  15   -2.50    5.50
   0  -3  15    0.80    6.00
   0  -3  15    6.60    6.20
   0   3  15   -1.20    6.20
   0  -5  15   -3.00   11.60
   0  -5  15   -3.80    5.40
   0  -5  15    0.70    6.20
   0  -7  15   11.00    5.90
   0  -7 -15   -1.80    6.70
   0  -7  15   -1.50    7.20
   0   0  16 2661.63  282.57
   0   0  16 2837.12  281.87
   0  -2  16   25.40    8.10
   0   2  16   44.00    7.70
   0  -2  16   47.60   11.10
   0  -4  16  103.99   14.70
   0  -6 -16  303.37   39.20
   0  -6  16  359.96   37.80
   0  -6  16  403.36   39.00
   0  -1  17    0.30    5.30
   0   1  17    0.50    6.10
   0  -1  17   -5.00    6.50
   0  -3  17    2.80    6.60
   0  -3  17   -0.70    5.20
   0  -5  17   -0.70    5.10
   0   0  18  128.49   16.00
   0   0  18  108.99   15.30
   0  -2  18   55.99    9.60
   0   2  18   19.50   18.90
   0  -2  18   79.79   10.80
   1   3   0  470.35   54.59
  -1   3   0  477.35   54.19
  -1   5   0 4070.69  399.16
   1   5   0 4338.67  398.06
  -1  -5   0 3383.06  392.06
  -1   5   0 3470.85  398.36
  -1  -7   0 2311.47  228.78
   1  -7   0 2350.66  233.18
   1  -7   0 2186.18  228.38
  -1  -7   0 2091.29  228.58
   1  -9   0  289.07   30.50
  -1  -9   0  258.17   41.80
   1  -9   0  250.27   35.60
  -1  -9   0  286.37   30.50
   1 -11   0  354.36   32.40
  -1 -11   0  242.98   32.00
  -1   0   1    0.40    1.00
  -1   0  -1   -0.20    0.70
   1   0  -1   -0.30    0.80
   1   0  -1    0.10    0.90
   1   0   1    0.40    0.80
  -1   0  -1    0.70    0.50
   1   0   1    0.50    0.60
   1  -2   1   -0.60    2.60
   1   2  -1   -1.10    2.90
   1  -2   1    0.30    3.60
  -1   2   1   -0.40    3.00
  -1   2  -1   -0.10    2.30
   1  -2  -1    2.00    3.40
   1   2   1    0.50    3.20
  -1  -2   1    1.60    3.60
   1   4  -1    0.00    4.70
   1  -4   1    3.50    5.50
   1   4  -1    3.50    5.40
  -1   4   1    5.00    6.70
  -1   4   1    6.70    5.90
  -1  -4  -1    4.80    2.60
   1   4   1    7.80    6.80
  -1   4  -1    4.10    4.30
  -1  -4   1    7.70    6.10
   1   4   1    2.60    4.60
  -1  -6  -1  139.39   17.70
  -1  -6  -1  126.09   12.80
   1  -6   1  113.79   12.80
  -1   6   1  117.39   25.80
   1  -6   1  104.49   17.20
   1   6  -1   97.29   20.20
   1  -6  -1   84.19   12.10
   1   6   1  149.79   25.40
   1   6   1  113.69   20.60
  -1   6  -1  106.49   20.30
  -1  -6   1   73.09   16.20
  -1  -6   1  110.29   12.30
  -1  -6   1   96.99   12.80
   1  -8   1   61.39    8.40
  -1  -8  -1   57.89    7.80
   1  -8   1   60.69   14.70
  -1  -8  -1   48.70    8.30
  -1  -8  -1   50.19   13.70
  -1  -8   1   33.60   12.30
   1  -8  -1   50.39   13.50
  -1  -8   1   38.80    8.30
  -1 -10  -1   10.50   10.20
   1 -10   1    3.50    4.90
   1 -10   1    3.60    8.50
  -1 -10  -1    3.50    5.50
  -1 -10   1    8.50    5.00
  -1 -10   1   12.10   10.10
   1 -10  -1   10.70    9.50
   1 -10  -1    7.70    5.90
   1   1  -2   64.69    7.80
   1  -1   2   61.99    7.50
  -1  -1  -2   58.69    9.20
  -1   1   2   71.79    9.70
   1   1   2   56.09    9.00
   1  -1  -2   48.00    9.00
  -1  -1   2   60.89    7.80
  -1   1  -2   62.29    7.30
   1   3  -2  162.78   19.70
   1  -3   2  132.99   14.00
   1   3  -2   97.99   16.60
  -1   3   2  141.69   20.30
   1  -3   2  156.08   17.00
   1   3   2  113.49   18.30
  -1   3  -2  160.88   18.00
  -1  -3   2  129.39   16.40
   1   3   2  103.59   19.40
  -1  -3   2  124.19   13.90
   1   5  -2   40.30   10.80
   1   5  -2   15.90    7.30
  -1   5   2   25.60    9.50
  -1   5   2   34.80   12.00
   1  -5   2   43.60   10.00
  -1  -5   2   34.50    5.00
  -1   5  -2   38.60   11.80
  -1  -5   2   22.30    4.20
  -1  -5   2   16.20    7.70
  -1   5  -2   20.20    8.10
   1   5   2   28.30   10.80
   1   5   2   42.10   11.50
  -1  -7  -2   16.60    9.30
   1  -7   2   29.20   10.80
  -1  -7  -2   27.60    5.50
   1  -7   2   23.00    5.50
  -1  -7   2   17.60    3.90
  -1  -7   2   25.30    5.50
   1  -7  -2   16.70    9.20
  -1  -7   2   30.20   11.00
   1  -7  -2   32.10    5.40
  -1  -9  -2   27.20    6.90
   1  -9   2   17.80    6.60
  -1  -9  -2   42.30   14.10
   1  -9  -2   21.70   15.10
  -1  -9   2   21.70   15.90
   1  -9  -2   24.00    7.00
  -1  -9   2   27.20    6.20
  -1 -11  -2    4.50    5.10
   1 -11   2   14.10    4.90
  -1 -11   2   11.80    5.10
   1 -11  -2    8.30    5.00
   1   0   3    2.00    2.40
   1   0  -3    0.20    1.70
  -1   0   3    0.80    1.70
   1   0   3   -0.20    1.40
  -1   0   3    0.90    2.80
   1  -2   3 1260.37  124.69
   1   2  -3 1322.57  125.59
  -1   2   3 1081.19  127.79
  -1   2  -3 1263.37  125.19
  -1  -2   3 1291.97  124.89
  -1   2  -3 1099.39  125.09
   1   2   3 1180.78  127.39
   1  -2  -3 1147.89  128.29
  -1   4   3   25.90   10.50
   1   4  -3   52.69   11.70
   1  -4   3   50.29    9.50
  -1   4   3   34.40   11.30
   1  -4   3   29.40    5.00
   1   4   3   34.20   10.50
  -1  -4   3   44.70    8.80
  -1   4  -3   23.20    7.50
   1   4   3   32.90    9.70
  -1  -4   3   40.60    5.30
  -1  -4   3   35.80    4.40
   1  -6   3  147.69   14.20
   1  -6   3  140.09   20.00
  -1   6   3  115.79   24.50
   1  -6   3  115.09   12.40
  -1   6   3   98.09   26.10
   1   6  -3  124.39   23.60
  -1  -6   3  159.68   20.20
  -1  -6   3   86.59   12.40
   1  -6  -3  126.99   13.80
  -1  -6   3   99.99   13.90
   1   6   3  184.68   29.50
  -1   6  -3  127.89   21.20
   1   6   3  146.39   25.80
   1  -8   3  139.79   17.80
  -1  -8  -3  168.68   18.00
   1  -8   3  171.78   24.40
  -1  -8  -3  136.29   23.10
   1  -8  -3  127.49   17.30
  -1  -8   3  125.59   23.80
   1  -8  -3  157.28   23.30
  -1  -8   3  185.38   18.20
   1 -10   3   50.89    8.70
   1 -10   3   45.50   14.30
  -1 -10  -3   76.79   11.10
  -1 -10  -3   59.09   14.70
  -1 -10   3   62.89   10.30
  -1 -10   3   55.99   14.80
   1 -10  -3   52.79    9.50
   1 -10  -3   77.69   17.20
  -1   1   4 1842.42  187.18
   1   1  -4 1795.52  184.78
   1  -1  -4 1884.21  187.98
  -1  -1   4 1720.93  184.68
   1   1   4 1722.83  186.58
   1   1   4 1846.52  187.58
   1  -3   4   90.49   10.00
   1   3  -4   96.59   12.80
  -1   3   4   79.19   15.40
   1  -3   4  104.49    9.80
  -1   3   4  112.59   17.40
   1  -3   4   66.89   11.90
   1   3   4   61.19   14.30
  -1  -3   4   86.09    9.80
  -1   3  -4  113.79   12.70
  -1  -3   4   81.59   10.00
  -1   3  -4   97.39   12.60
  -1   5   4  982.10  110.89
   1  -5   4 1002.00   94.29
   1  -5   4  975.60   98.79
  -1   5   4  725.23  102.59
   1  -5   4  911.11   94.99
  -1  -5   4  896.01   94.89
  -1   5  -4  871.31   99.89
  -1   5  -4 1030.50  101.59
   1   5   4  876.11  103.69
  -1  -7  -4  991.80   97.69
   1  -7   4  885.41   97.29
   1  -7   4  910.61  102.19
   1  -7  -4  962.10   97.39
  -1  -9  -4   34.20    7.00
   1  -9   4   40.60   12.60
  -1  -9  -4   64.19   15.90
   1  -9   4   43.30    8.00
  -1  -9   4   27.20   12.60
  -1  -9   4   42.70    7.60
   1  -9  -4   51.29   14.20
  -1 -11  -4   79.89   11.40
   1 -11   4   80.79   11.00
   1 -11  -4   64.99   10.50
   1   0   5    2.10    2.00
  -1   0   5    1.40    3.70
   1   0   5    0.50    1.60
   1   0   5    5.00    3.60
   1   0  -5   -0.60    1.90
  -1   0   5    2.00    2.20
   1   0   5    1.30    1.90
  -1   0   5    1.30    1.40
   1  -2   5  180.48   20.70
   1   2  -5  201.68   19.80
  -1   2   5  179.98   19.30
   1   2   5  210.38   25.90
   1   2   5  169.68   19.30
  -1  -2   5  149.99   20.60
   1  -4   5   38.70    8.70
  -1   4   5   20.10    9.20
   1   4  -5   45.70    8.90
  -1   4   5   39.10   11.90
   1   4  -5   40.40    8.10
   1  -4   5   39.10    5.20
   1  -4   5   36.10    4.90
   1   4   5   39.10   13.40
   1   4   5   56.79   14.00
  -1  -4   5   25.90    8.10
  -1  -4   5   32.80    4.80
  -1  -4   5   27.40    4.90
  -1  -4   5   34.70    4.80
  -1   4  -5   41.00    8.30
  -1   4  -5   25.40    6.60
  -1   6   5  202.78   36.40
   1   6  -5  161.58   30.40
   1  -6   5  220.38   20.20
   1  -6   5  144.79   25.20
   1  -6   5  182.98   18.80
  -1  -6   5  180.48   25.70
  -1  -6   5  203.38   20.10
  -1   6  -5  147.39   24.30
  -1  -6   5  152.88   18.90
   1   6   5  216.18   36.60
  -1  -8  -5  137.49   24.10
   1  -8   5  145.59   25.80
  -1  -8  -5  176.38   19.30
   1  -8   5  195.08   19.30
  -1  -8   5  124.09   18.60
  -1  -8   5  164.38   25.80
   1 -10   5   24.40   12.20
   1 -10   5   23.20    6.90
  -1 -10  -5   33.60    7.50
  -1 -10  -5   46.70    6.50
  -1 -10  -5    7.70   10.40
  -1 -10   5   27.00   17.40
  -1 -10   5   25.00    6.90
   1 -10  -5   44.40   15.60
   1  -1   6  402.06   40.70
  -1   1   6  342.37   42.80
  -1   1   6  388.86   38.80
   1  -1   6  363.46   38.90
  -1   1   6  319.37   39.00
   1  -1   6  359.56   38.90
  -1  -1   6  410.36   39.00
  -1  -1   6  399.06   38.90
   1   1   6  354.36   38.90
  -1  -1   6  360.46   40.70
   1   1   6  411.36   42.30
   1   1   6  393.46   42.90
   1   1   6  395.96   39.10
   1  -3   6  458.45   43.50
   1   3  -6  383.56   44.20
  -1   3   6  466.95   51.19
   1  -3   6  390.26   43.60
  -1   3   6  383.86   50.39
   1  -3   6  382.36   45.50
   1   3  -6  426.76   44.40
   1   3   6  449.16   43.50
  -1  -3   6  473.95   43.70
  -1  -3   6  410.56   43.60
   1   3   6  375.86   49.50
  -1  -3   6  404.16   43.50
   1   3   6  488.65   52.59
   1  -5   6   45.60   12.30
  -1   5   6   94.79   21.20
  -1   5   6  129.49   24.60
   1  -5   6   74.89    8.50
   1   5  -6   60.49   12.10
   1  -5   6   90.99    9.60
   1   5   6   86.99   20.60
  -1  -5   6   58.89    9.20
   1   5   6   55.59   17.50
  -1  -5   6   90.79   15.10
  -1   5  -6   69.59   11.80
   1  -7   6  130.99   14.10
  -1  -7  -6  142.59   16.70
   1  -7   6  134.99   23.40
   1  -7   6  131.29   16.00
  -1  -7   6  137.39   16.30
  -1  -7   6  140.09   22.70
   1  -7  -6  147.59   16.40
  -1  -7   6  108.39   14.20
  -1  -9  -6   35.20   12.60
   1  -9   6   34.00    7.10
   1  -9   6   36.90   13.50
  -1  -9  -6   15.20    6.80
   1  -9  -6   39.20    7.00
  -1  -9   6   31.60   12.70
  -1  -9   6   50.39    7.90
   1  -9  -6   38.70   13.00
   1 -11   6    4.40    4.60
  -1 -11  -6    9.60    5.50
  -1 -11   6    4.80    4.50
   1 -11  -6   10.00    5.00
   1   0   7    2.60    2.10
  -1   0   7    1.70    2.40
  -1   0   7    3.30    2.70
   1   0   7   -2.20    5.10
  -1   0   7    0.50    5.10
   1   0   7    0.80    1.80
   1   0   7   -0.50    1.70
  -1   0   7    1.00    2.50
   1   0   7   -0.60    2.50
  -1   0   7    1.60    2.20
  -1   2   7   28.50    8.70
   1  -2   7   33.60    7.50
  -1   2   7   49.40    6.00
  -1   2   7   27.70    8.80
  -1   2   7   37.30    4.90
   1  -2   7   37.40    5.00
   1  -2   7   49.70    5.40
   1   2   7   39.30    5.10
   1   2   7   38.50    5.60
  -1  -2   7   48.20    5.30
  -1  -2   7   36.60    5.10
  -1  -2   7   27.20    7.20
   1   2   7   37.80    8.90
   1   2   7   19.50    7.40
  -1   4   7   34.90   13.80
   1  -4   7   39.20    5.80
   1  -4   7   44.30    5.90
   1  -4   7   39.50    9.40
   1   4   7   23.90   11.00
  -1  -4   7   46.10    5.80
  -1  -4   7   35.80    5.70
   1   4   7   44.20   12.60
  -1  -4   7   52.29   10.40
   1  -6   7   13.10    9.50
   1  -6   7    0.50    4.30
   1  -6   7    6.90    3.20
  -1  -6   7    3.00    4.10
  -1  -6   7   10.60    3.70
  -1  -6   7    3.00    8.60
   1  -8   7   20.50   20.20
  -1  -8  -7   13.00    6.80
   1  -8   7    2.80    6.20
   1  -8  -7   13.00    5.90
  -1  -8   7    3.50    6.00
   1 -10   7    6.50    5.50
  -1 -10  -7   10.40    5.20
  -1 -10   7   -2.00    5.90
  -1   1   8 4232.68  390.26
  -1   1   8 3342.97  389.36
   1  -1   8 3623.94  385.96
  -1   1   8 3972.20  385.56
   1  -1   8 3933.01  388.06
  -1  -1   8 4058.29  388.26
   1   1   8 3193.38  388.56
   1   1   8 3910.61  385.66
   1   1   8 3710.13  389.56
  -1   3   8  395.16   40.30
   1  -3   8  350.06   40.60
   1  -3   8  412.06   40.50
   1  -3   8  392.56   43.10
  -1  -3   8  400.16   40.70
  -1  -3   8  413.06   43.50
  -1  -3   8  362.26   40.50
   1   3   8  400.46   40.40
   1  -5   8  973.70  124.79
   1  -5   8 1245.08  114.49
   1  -5   8 1094.09  113.79
  -1  -5   8 1069.89  113.79
   1  -7   8 1017.80  100.49
   1  -7   8  876.61  107.09
   1  -7   8  857.41  101.49
  -1  -7   8 1136.79  108.79
  -1  -7   8 1019.50  101.69
  -1  -9  -8  136.89   23.20
   1  -9   8   82.59   21.20
   1  -9   8  178.98   18.30
  -1  -9   8  115.59   17.60
  -1  -9   8  176.18   26.90
  -1   0   9   -0.40    1.70
   1   0   9    1.10    2.80
   1   0   9   -0.50    3.00
  -1   0   9   -0.90    2.70
  -1   0   9    1.20    2.90
  -1   0   9    2.20    2.20
  -1   2   9   31.80    5.80
  -1   2   9   25.90    4.40
   1  -2   9   27.70    8.20
   1  -2   9   36.80    5.20
  -1   2   9   23.20    8.40
   1  -2   9   30.40    5.00
  -1  -2   9   31.20    5.00
   1   2   9   17.60    7.00
   1   2   9   37.60    5.80
   1   2   9   19.80    6.20
  -1  -2   9   41.60    9.20
  -1  -2   9   28.20    4.90
   1  -4   9    6.20    3.80
   1  -4   9    5.60    3.90
   1  -4   9   -1.00    6.30
  -1   4   9    7.40    2.40
  -1  -4   9    6.80    3.80
  -1  -4   9   12.20    8.20
  -1  -4   9   -0.20    3.50
   1  -6   9   -7.70    8.70
   1  -6   9    1.10    4.90
   1  -6   9    1.40    3.70
  -1  -6   9   -2.90    4.70
  -1  -6   9    8.10   10.20
  -1  -8  -9   30.40    8.40
   1  -8   9   38.10    8.30
   1  -8   9    7.50   11.70
   1  -8   9   52.99    5.80
   1  -8  -9   21.90    7.40
  -1  -8   9   11.40    7.90
  -1  -8   9   43.10   15.20
  -1  -8   9   31.60    5.30
   1 -10   9    2.20    5.00
  -1 -10  -9   -0.40    5.00
  -1 -10   9    0.60    5.10
   1  -1  10  126.79   14.00
   1  -1  10  125.89   14.00
   1  -1  10  132.49   17.90
  -1   1  10  109.99   13.70
  -1   1  10  112.49   17.00
  -1   1  10  121.39   14.40
  -1  -1  10  126.09   18.10
  -1  -1  10  131.49   14.10
  -1  -1  10  120.19   13.90
   1   1  10  138.39   14.50
   1   1  10  141.49   14.00
   1   1  10   91.39   16.10
   1  -3  10   32.40    5.90
   1  -3  10   31.30    5.50
  -1   3  10   35.50    5.00
   1  -3  10   21.60    9.10
  -1  -3  10   22.40    5.20
   1   3  10   37.70    5.40
  -1  -3  10   31.90    5.70
  -1  -3  10   29.60   10.50
   1  -5  10   60.39   14.00
   1  -5  10   49.90    7.90
  -1  -5  10   57.89   14.20
  -1  -5  10   58.79    9.00
   1  -7  10    9.90   10.80
  -1  -7 -10   11.70    6.90
   1  -7  10   12.30    4.40
   1  -7  10    4.60    6.30
  -1  -7  10   10.60    4.80
  -1  -7  10   15.60    7.00
  -1  -7  10   -0.10   10.00
  -1  -9 -10    4.90    6.30
   1  -9  10    3.70    6.60
  -1  -9  10    6.40    7.20
   1  -9 -10    8.80    6.10
   1   0  11    3.70    4.00
  -1   0  11    5.60    4.20
   1   0  11   -5.50    3.70
  -1   0  11   -0.70    4.10
   1  -2  11   83.29   11.00
  -1   2  11   76.49   10.60
   1  -2  11   64.99   14.10
   1  -2  11   90.19   10.80
  -1   2  11   93.39   11.70
   1   2  11   82.69   11.50
  -1  -2  11   84.99   10.70
  -1  -2  11   95.29   16.10
  -1  -2  11   88.09   11.10
   1   2  11   89.09   10.90
   1  -4  11    9.50    9.00
  -1   4  11   19.70    4.00
   1  -4  11   21.00    5.80
   1  -4  11   19.00    5.40
  -1  -4  11   21.10    5.30
  -1  -4  11   15.70    9.60
  -1  -4  11   12.80    5.10
   1   4  11  -16.00   14.10
   1  -6  11   42.60    8.40
   1  -6  11   33.90    6.60
   1  -6  11   28.00   12.00
  -1  -6  11   29.30    7.90
  -1  -6  11   35.30    6.50
   1  -8  11   91.89   13.20
   1  -8  11   92.29   11.20
  -1  -8 -11  106.19   14.50
   1  -8 -11   64.39   12.80
  -1  -8  11   85.89   11.20
  -1  -8  11   89.89   13.30
  -1   1  12 1207.58  123.59
  -1   1  12 1230.48  124.39
   1  -1  12 1179.18  124.09
   1  -1  12 1180.18  123.69
  -1  -1  12 1137.39  123.69
   1   1  12 1251.97  124.29
  -1  -1  12 1236.98  124.29
   1   1  12 1203.48  123.69
  -1   3  12  142.49   16.70
   1  -3  12  155.78   17.50
   1  -3  12  167.78   22.50
  -1  -3  12  127.79   22.80
   1   3  12  122.39   16.90
  -1  -3  12  158.28   17.60
  -1  -3  12  176.18   17.70
   1  -5  12  375.36   41.30
   1  -5  12  358.76   41.90
   1  -5  12  374.56   47.40
  -1  -5  12  392.46   48.10
  -1  -5  12  434.66   42.30
  -1  -5  12  404.96   41.30
   1  -7  12  226.28   33.70
  -1  -7  12  279.87   37.50
   1  -9  12   11.90    5.50
  -1  -9  12   27.10    6.60
   1  -9 -12   58.29   12.50
  -1   0  13   -1.80    5.30
  -1   0  13   -4.00    4.90
   1   0  13   -1.40    5.10
  -1   2  13   51.09    8.70
   1  -2  13   46.70    7.80
  -1   2  13   37.30    6.90
   1  -2  13   38.70    7.60
   1   2  13   37.20    8.60
  -1  -2  13   42.20    7.50
  -1  -2  13   45.40    7.80
   1   2  13   42.20    7.50
  -1  -2  13   30.30   12.10
   1  -4  13   18.70    6.50
   1  -4  13   22.40   10.50
   1  -4  13   19.10    6.20
  -1   4  13    1.40    8.20
  -1  -4  13   14.30    5.90
  -1  -4  13   23.60   11.30
  -1  -4  13   15.90    6.60
   1  -6  13   13.00   11.00
   1  -6  13   13.30    5.70
   1  -6  13   16.50    7.60
  -1  -6  13   17.40    5.80
  -1  -6  13    6.20    8.40
  -1  -6  13   28.60   13.10
  -1  -8 -13   67.19   11.50
   1  -8  13   71.99    9.00
   1  -8  13   71.89   10.60
  -1  -8  13   35.40   10.20
  -1  -8  13   59.09    8.20
   1  -8 -13   59.79   11.30
   1  -1  14   55.89   10.40
  -1   1  14   89.09   12.00
  -1   1  14   78.49   10.10
   1  -1  14   73.79   10.40
   1   1  14   64.69   10.10
  -1  -1  14   59.99   10.50
  -1  -1  14   66.89   10.40
   1   1  14   74.49   11.20
   1  -3  14  100.49   13.50
  -1   3  14   86.99   12.20
   1  -3  14  108.09   13.20
  -1  -3  14  102.89   19.70
  -1  -3  14  100.39   13.10
  -1  -3  14  101.19   13.40
   1   3  14   77.49   12.30
   1  -5  14   72.59   10.70
   1  -5  14   73.89   10.10
   1  -5  14   43.40   15.50
  -1  -5  14   91.69   12.40
  -1  -5  14   69.69   10.00
  -1  -5  14   48.20   15.80
   1  -7  14   47.10    9.00
   1  -7  14   46.30    7.50
  -1  -7 -14   67.09   11.40
  -1  -7  14   37.50    9.40
   1  -7 -14   29.50    9.30
  -1  -7  14   44.60    7.30
   1   0  15   -0.90    6.40
   1   0  15   -1.80    6.00
  -1   0  15   -7.50    6.40
  -1   0  15    2.40    6.20
  -1   2  15   13.80    5.80
   1  -2  15   11.20    6.60
   1  -2  15   15.00    6.70
  -1  -2  15   16.40    6.90
   1   2  15   13.60    6.20
  -1  -2  15   18.10    6.70
   1  -4  15   14.10    8.20
   1  -4  15    0.70    5.60
  -1  -4  15   -1.60    6.30
  -1  -4  15   -5.20    9.60
  -1  -4  15    1.90    8.50
  -1  -6 -15    3.70    7.10
   1  -6  15    4.60    5.60
   1  -6  15    3.70    5.20
  -1  -6  15   -7.00    6.00
  -1  -6  15    3.10    5.20
  -1   1  16  387.46   42.60
   1  -1  16  357.36   42.00
   1  -1  16  409.76   42.00
  -1   1  16  424.06   41.80
   1   1  16  363.06   42.30
  -1  -1  16  379.96   42.30
   1   1  16  401.26   41.90
  -1  -1  16  399.86   42.10
   1  -3  16   53.19    8.80
   1  -3  16   35.00    7.90
  -1   3  16   11.00    8.60
  -1  -3  16   25.80    8.20
  -1  -3  16   64.49    8.80
   1  -5  16  171.38   19.20
   1  -5  16  125.89   19.50
  -1  -5  16  192.68   20.40
  -1  -5  16  168.08   19.50
   1   0  17    1.20    5.80
   1   0  17    3.00    7.00
  -1   0  17   -1.40    6.30
  -1   0  17   -2.80    5.80
  -1   2  17   -0.50    5.50
   1  -2  17    3.80    6.30
   1  -2  17   -1.00    6.90
  -1  -2  17    1.10    7.10
   1   2  17    0.20   11.60
  -1  -2  17   -2.40    6.90
   1  -4  17   -5.10    4.80
   1  -4  17    2.00    6.20
  -1  -4  17    1.70    6.70
  -1  -4  17   -2.90    5.90
   1  -1  18    8.30    5.70
   1  -1  18   16.90    7.20
  -1   1  18    9.40    5.80
  -1  -1  18    5.70    5.50
  -1  -1  18    9.10    7.20
   1   1  18    9.90    8.90
   1  -3  18    2.90    7.50
   1  -3  18   15.00    6.70
  -1  -3  18   24.70    7.20
  -1  -3  18    5.00    6.20
  -1   0  19    2.60    7.40
   2   2   0  816.12   89.69
  -2  -2   0  831.82   89.69
  -2   2   0  890.51   90.19
  -2  -4   0  141.69   16.40
   2   4   0  107.59   20.10
  -2   4   0  102.99   18.60
   2   4   0  112.69   18.20
   2   6   0  658.93   91.49
  -2   6   0  929.11   96.49
  -2  -6   0  742.93   86.79
  -2  -6   0  735.13   83.39
  -2  -6   0  836.42   83.39
  -2   6   0  931.81   95.59
   2  -6   0  881.81   87.39
   2  -8   0  152.08   18.90
  -2  -8   0  143.99   18.20
  -2  -8   0  206.48   25.90
  -2  -8   0  191.08   19.40
  -2 -10   0   28.20   12.10
   2 -10   0   16.70    6.20
   2 -10   0   15.60    9.90
  -2 -10   0   19.50    6.10
  -2   1   1    0.10    2.20
   2  -1   1    2.40    1.90
   2   1  -1    2.20    2.40
  -2  -1  -1   -0.10    2.60
   2  -1   1    0.50    1.60
  -2  -1   1    1.20    2.10
   2   1   1   -0.70    2.50
  -2   1  -1    1.00    2.20
   2  -1  -1    2.00    2.50
   2  -3   1   16.30    6.50
  -2   3   1   25.30    7.90
   2  -3   1   48.80    7.90
  -2  -3  -1   29.50    8.00
   2   3  -1   26.60    7.10
   2  -3  -1   26.80    7.70
  -2  -3   1   42.40    4.50
   2   3   1   38.50    9.30
  -2  -3   1   21.30    6.30
  -2   3  -1   29.50    7.40
  -2  -3   1   33.00    6.90
   2  -5   1    1.00    6.20
  -2  -5  -1    3.90    3.20
  -2  -5  -1    3.90    5.90
  -2   5   1   10.80    6.60
   2   5  -1    0.90    4.40
  -2   5   1   -4.00    5.30
   2   5  -1    5.60    6.10
   2   5   1   -1.90    4.80
   2  -5  -1   -4.10    1.90
  -2   5  -1    2.80    6.40
   2   5   1   -2.10    6.50
  -2  -5   1    1.20    6.00
  -2  -5   1   -0.90    2.70
  -2  -5   1    1.50    3.00
  -2   5  -1   -7.10    3.70
  -2  -7  -1    1.90    3.40
   2  -7   1    7.80    4.60
   2  -7   1   -2.10    7.30
  -2  -7  -1    8.10    8.10
   2  -7  -1    1.70    2.70
  -2  -7   1    4.40    3.00
  -2  -7   1    3.20    3.90
   2  -7  -1   -6.90    6.70
  -2  -7   1   10.80    8.40
   2  -9   1    7.20    5.00
  -2  -9  -1    4.10    5.60
   2  -9  -1   10.50    5.90
  -2  -9   1   -0.10    5.40
  -2 -11  -1    6.00    5.20
   2 -11   1    2.00    4.50
   2 -11  -1    3.70    5.50
  -2 -11   1   -1.50    4.30
   2   0  -2  710.13   66.69
   2   0   2  631.44   64.79
  -2   0  -2  603.64   64.69
  -2   0  -2  552.74   65.79
   2   0   2  664.33   65.99
  -2  -2  -2  941.31   89.19
   2  -2   2  750.72   85.89
   2   2  -2  843.02   87.59
  -2  -2   2  703.13   85.79
   2   2   2  915.01   88.99
  -2  -2   2  850.21   87.59
   2  -4   2   83.59    9.90
  -2   4   2   56.59   15.50
  -2  -4  -2   88.39   10.00
   2   4  -2   65.59   13.30
   2   4   2  118.89   17.40
  -2  -4   2   98.69    9.90
  -2   4  -2   63.49   13.60
  -2  -4   2   80.99    9.50
  -2   4  -2   71.39   14.00
  -2  -4   2  104.59   13.70
   2   4   2   71.59   17.60
  -2   6   2  140.99   34.30
  -2  -6  -2  115.39   15.40
  -2  -6  -2  154.38   20.10
   2  -6   2  121.09   15.30
   2   6  -2  123.29   22.50
  -2   6   2  146.69   24.90
   2   6   2  158.18   28.00
  -2  -6   2  107.89   14.90
   2  -6  -2  155.68   14.80
  -2  -6   2  122.59   14.70
   2   6   2  133.99   26.90
  -2  -8  -2   54.19    8.10
   2  -8   2   29.80   12.10
  -2  -8  -2   50.99   13.50
   2  -8   2   47.40    7.80
  -2  -8  -2   40.70    7.60
  -2  -8   2   44.90   13.20
   2  -8  -2   41.20   12.90
  -2  -8   2   58.29    8.10
  -2 -10  -2  127.59   14.20
  -2 -10  -2   89.99   19.30
   2 -10   2  117.29   13.60
   2 -10   2   71.39   18.50
   2 -10  -2  105.39   14.10
   2 -10  -2   74.29   17.80
  -2 -10   2   82.79   18.60
  -2 -10   2  124.19   14.10
   2  -1   3   21.10    3.60
   2   1  -3   10.80    3.50
   2  -1   3   18.80    3.50
  -2  -1  -3   12.50    4.20
   2  -1  -3    8.80    4.20
   2   1   3   22.10    5.90
  -2   1  -3   19.70    3.60
  -2  -1   3   17.70    4.00
  -2  -1   3   15.40    4.00
  -2   3   3  125.19   20.50
   2   3  -3  140.29   18.40
   2  -3   3  112.79   15.00
  -2  -3   3  152.28   17.60
  -2   3  -3  148.09   18.40
   2   3   3  165.58   23.10
   2   3   3  158.58   20.90
   2  -3  -3  162.68   22.30
  -2  -3   3  143.39   15.00
  -2  -3   3  139.39   14.80
  -2  -3   3  142.19   18.40
   2   5  -3    1.00    4.80
   2  -5   3   -1.40    5.90
  -2   5   3    7.60    5.90
   2  -5   3    1.90    3.40
  -2  -5  -3   10.60    3.70
  -2   5   3    6.30    8.30
   2   5  -3    1.70    5.00
  -2  -5   3    2.20    2.60
   2   5   3   -0.50    5.50
  -2   5  -3    4.30    5.20
  -2  -5   3    6.10    6.20
  -2  -5   3    3.20    1.80
  -2   5  -3    0.40    4.40
   2   5   3   24.00   11.30
  -2  -5   3    4.10    3.00
  -2  -7  -3   14.00    5.70
   2  -7   3   39.70   11.60
  -2  -7  -3   21.60    9.70
  -2  -7   3   29.00    4.10
  -2  -7   3   18.90   10.60
  -2  -7   3   50.29    6.80
   2  -7  -3   39.60    5.80
  -2  -7   3   25.90    4.50
  -2  -9  -3    4.70    5.50
   2  -9   3    7.10   10.10
   2  -9   3    3.50    4.80
  -2  -9  -3    7.90    4.60
  -2  -9  -3    5.30    9.80
  -2  -9   3    4.70    9.20
  -2  -9   3    2.70    4.90
   2  -9  -3    8.10    9.70
  -2 -11  -3    1.20    4.60
   2 -11   3   -0.30    4.10
   2 -11  -3   -1.30    5.30
  -2 -11   3   -5.50    4.20
   2   0   4  120.69   15.30
   2   0  -4  149.29   16.60
  -2   0   4  123.79   15.30
  -2   0  -4  136.79   15.60
  -2   0   4  132.09   16.10
   2   2  -4  135.09   17.20
  -2   2   4  143.79   15.50
  -2   2   4  146.19   20.20
   2  -2   4  164.68   16.70
  -2   2  -4  146.09   16.40
   2   2   4  109.99   18.70
  -2  -2   4  141.29   15.20
  -2  -2   4  146.29   17.30
  -2  -2   4  139.89   15.20
  -2  -2   4  169.48   17.30
   2  -2  -4  150.88   21.10
   2   4  -4  237.78   32.50
   2  -4   4  309.27   28.80
  -2   4   4  225.98   35.80
   2  -4   4  268.37   28.20
   2   4  -4  271.67   34.30
  -2  -4   4  254.47   28.60
  -2  -4   4  286.27   28.70
  -2   4  -4  301.47   33.10
  -2  -4   4  247.98   31.40
   2   4   4  241.38   35.20
  -2   4  -4  318.97   33.20
  -2  -4   4  279.87   28.30
   2  -6   4  102.59   10.30
   2   6  -4   84.09   18.20
  -2   6   4  164.38   29.90
  -2   6   4  132.69   24.20
  -2  -6  -4   96.89   12.40
   2  -6   4  124.59   18.20
   2  -6   4   71.89   11.60
   2   6   4  111.49   24.00
   2   6   4  124.49   29.30
  -2  -6   4  117.69   17.50
  -2  -6   4   71.99   10.40
  -2  -6   4   86.99   11.50
  -2  -6   4   99.39   11.00
   2  -8   4   21.90    5.90
  -2  -8  -4    9.30    9.70
   2  -8   4   32.80   11.80
  -2  -8   4   23.40    5.70
  -2  -8   4   20.80   11.00
   2  -8  -4   10.80    4.40
  -2 -10  -4   19.60    6.80
   2 -10   4    6.90    8.80
   2 -10   4   17.50    5.80
  -2 -10  -4   11.30   10.40
  -2 -10   4   10.20    9.90
  -2 -10   4   17.50    5.90
   2 -10  -4   19.50    6.80
   2 -10  -4   19.00   10.40
  -2   1   5   -1.40    1.50
   2  -1   5    2.30    3.30
   2  -1   5    0.00    2.00
   2   1  -5   -1.10    1.80
  -2   1   5    0.80    2.60
  -2  -1   5   -0.10    3.20
  -2  -1   5    3.80    1.60
   2   1   5    1.20    2.80
   2   1   5    1.10    1.90
  -2  -1   5    0.10    2.00
   2   1   5    0.60    3.30
   2  -1  -5    4.90    4.20
  -2  -1   5    1.60    1.80
   2   3  -5    0.30    2.80
   2  -3   5    0.40    2.00
  -2   3   5    6.70    5.20
   2  -3   5    1.90    1.70
  -2   3  -5   -1.10    1.80
  -2  -3   5    2.50    2.10
   2   3   5   -0.80    3.90
  -2  -3   5    2.00    2.20
  -2  -3   5   -0.20    4.20
  -2  -3   5   -0.10    1.80
   2   3   5   -2.10    4.40
  -2   3  -5    1.70    2.20
   2  -5   5    2.60    2.00
  -2   5   5   -3.90    5.40
  -2   5   5   12.40    9.80
   2   5  -5    3.30    4.80
   2  -5   5    5.30    3.10
   2  -5   5   -1.20    6.20
   2   5   5    4.90    6.90
  -2  -5   5    0.20    2.40
  -2  -5   5    2.70    3.20
  -2  -5   5    7.30    7.10
  -2  -5   5    4.90    2.40
   2   5   5    2.90    9.40
  -2   5  -5    2.20    4.30
  -2  -7  -5   19.60    6.00
   2  -7   5   12.30   10.00
   2  -7   5    6.30    4.90
  -2  -7   5   11.70   10.10
  -2  -7   5    5.80    6.60
  -2  -7   5   12.80    3.10
   2  -7  -5   11.40    4.90
   2  -9   5   17.60    6.00
   2  -9   5    6.40    9.80
  -2  -9  -5    5.20    5.40
  -2  -9  -5    7.50    9.70
  -2  -9   5   10.30   10.60
   2  -9  -5    9.10    9.40
   2  -9  -5    4.30    3.30
  -2  -9   5   12.20    5.80
   2 -11   5    3.90    4.60
  -2 -11  -5   -4.20    4.20
   2 -11  -5    0.10    4.70
  -2 -11   5    6.90    5.10
  -2   0   6   49.10    6.10
  -2   0   6   43.70    8.10
   2   0  -6   51.49    9.10
   2   0   6   53.29    7.90
  -2   0   6   46.10    6.10
   2   0   6   55.49    7.60
   2   0   6   46.20    6.10
   2   0   6   46.70    8.50
   2   0   6   49.70    6.00
   2  -2   6   36.20    5.10
   2  -2   6   52.19    5.80
  -2   2   6   39.20    5.00
  -2   2   6   44.50    6.20
   2   2  -6   38.40    6.00
  -2   2   6   46.00   10.90
   2  -2   6   49.70    7.70
   2   2   6   30.30    9.90
  -2  -2   6   51.99    8.50
   2  -2  -6   37.50   10.60
  -2  -2   6   43.80    5.50
  -2  -2   6   41.20    6.30
   2   2   6   49.10    5.50
  -2  -2   6   35.90    5.20
   2   2   6   28.70    8.20
   2   2   6   47.80    5.90
  -2  -2   6   37.60    5.70
  -2   4   6   66.69   17.00
  -2   4   6   44.00   12.90
   2  -4   6   70.89    7.70
   2   4  -6   48.60   10.00
   2   4  -6   63.19   11.10
   2  -4   6   89.39   12.30
   2  -4   6   64.09    7.90
  -2  -4   6   86.39   12.90
   2   4   6   54.69   13.80
  -2   4  -6   62.49    9.20
  -2   4  -6   62.79    9.00
   2   4   6   70.09   17.20
  -2  -4   6   55.19    7.70
  -2  -4   6   79.99    8.10
  -2  -4   6   58.79    7.80
  -2  -6  -6   20.40    5.80
   2  -6   6   24.40   15.70
   2  -6   6   18.40    3.30
   2  -6   6   16.90    4.90
  -2  -6   6   11.70    3.00
  -2  -6   6   18.20    9.50
  -2  -6   6   11.00    4.60
  -2  -6   6   19.80    3.80
   2  -8   6   27.00    6.80
  -2  -8  -6   10.60   10.10
  -2  -8  -6   29.00    7.40
   2  -8   6   19.80   11.50
  -2  -8   6   27.80   12.50
   2  -8  -6   23.90    6.50
  -2  -8   6   18.20    6.20
  -2 -10  -6    2.10    9.10
   2 -10   6    9.60    5.60
  -2 -10  -6   13.20    5.20
  -2 -10  -6    7.50    5.90
   2 -10   6   10.60    9.30
  -2 -10   6    7.50    6.10
   2 -10  -6   15.10    9.70
  -2 -10   6    5.30   10.20
  -2   1   7    4.80    3.80
   2  -1   7    8.20    3.00
   2  -1   7    6.20    2.30
  -2   1   7    2.30    2.40
  -2   1   7    5.80    2.50
  -2  -1   7    9.00    2.70
   2   1   7    6.90    2.70
   2   1   7    7.70    2.80
   2  -1  -7    6.20    4.90
   2   1   7    6.60    4.40
  -2  -1   7    5.90    2.40
   2   1   7    9.00    4.40
  -2  -1   7    3.10    5.40
  -2  -1   7    6.40    2.40
   2  -3   7   13.50    3.30
  -2   3   7   12.80    7.50
   2  -3   7    6.40    2.40
  -2   3   7    8.30    2.00
  -2   3   7   13.20    6.40
   2  -3   7    5.40    5.20
  -2  -3   7    7.90    2.90
   2   3   7    0.90    5.00
   2   3   7    3.70    6.00
  -2  -3   7   11.90    5.70
   2   3   7   11.10    3.00
   2   5  -7    4.80    5.50
   2  -5   7    5.00    7.00
   2  -5   7    2.50    3.40
  -2   5   7   -2.80   11.10
   2  -5   7   -0.30    2.70
  -2  -5   7    2.20    3.10
  -2  -5   7   -2.90    7.10
  -2  -5   7    0.20    3.40
  -2  -5   7    5.50    2.40
   2   5   7   11.60   14.80
  -2  -7  -7   11.40    6.40
   2  -7   7    6.40    9.80
   2  -7   7   20.10    6.10
   2  -7   7   14.40    3.60
  -2  -7   7   18.90    6.30
  -2  -7   7   29.70    4.40
  -2  -7   7   -3.80    9.60
  -2  -9  -7   -6.60    7.90
  -2  -9  -7    3.90    6.10
   2  -9   7   -0.60    5.80
   2  -9   7   12.70   10.90
   2  -9  -7   -7.80    8.00
   2  -9  -7    0.80    4.60
  -2  -9   7    3.50    6.00
  -2  -9   7    3.60   11.10
   2 -11   7   -3.70    5.70
  -2 -11  -7    2.10    4.80
   2 -11  -7    2.00    4.40
  -2 -11   7    2.00    5.00
  -2   0   8 1452.55  141.19
   2   0   8 1350.56  141.89
   2   0   8 1386.46  140.89
   2   0   8 1219.58  141.69
  -2   0   8 1322.17  143.29
  -2   0   8 1513.15  143.59
  -2   0   8 1390.56  140.79
   2  -2   8  528.05   54.29
   2  -2   8  555.44   56.59
  -2   2   8  462.35   59.69
  -2   2   8  529.05   53.99
  -2   2   8  520.15   54.59
  -2   2   8  495.55   60.09
   2  -2   8  612.94   54.69
   2   2   8  528.55   54.59
   2   2   8  531.15   59.69
  -2  -2   8  514.25   56.79
   2   2   8  534.65   54.19
   2   2   8  501.05   60.39
  -2  -2   8  490.95   54.19
   2  -4   8  129.79   15.20
  -2   4   8  106.29   24.10
  -2   4   8  129.69   14.50
   2  -4   8  169.68   15.40
  -2  -4   8  126.69   19.70
  -2  -4   8  127.99   15.20
  -2  -4   8  153.68   15.50
   2   4   8  135.59   26.20
   2  -6   8  639.84   70.09
   2  -6   8  590.14   64.59
   2  -6   8  677.33   63.89
  -2  -6   8  533.65   64.59
  -2  -6   8  621.04   63.89
  -2  -6   8  654.83   70.59
   2  -8   8   72.79   10.40
  -2  -8  -8   59.29   10.90
   2  -8   8   67.19   16.80
  -2  -8   8   38.00    9.30
  -2  -8   8   69.99    8.10
   2  -8  -8   40.20    9.30
  -2  -8   8  105.79   19.90
  -2 -10  -8   39.60    7.50
   2 -10   8   27.70    7.10
  -2 -10   8   39.90    8.00
   2  -1   9    2.30    3.20
  -2   1   9    3.40    4.60
  -2   1   9   -1.80    4.10
   2  -1   9    2.30    2.50
   2  -1   9    0.20    5.70
  -2   1   9   -1.10    3.10
  -2  -1   9    1.80    3.20
   2   1   9   -1.00    3.70
   2   1   9    0.60    3.30
  -2  -1   9    1.00    6.10
   2   1   9   -2.60    3.10
   2   1   9    0.00    3.00
  -2  -1   9    2.20    2.80
  -2   3   9   -0.10    2.40
   2  -3   9    0.60    3.40
   2  -3   9    2.60    2.90
  -2   3   9    3.60    3.80
   2  -3   9   -0.30    5.80
  -2   3   9    3.70    6.90
   2   3   9    3.30    2.80
  -2  -3   9    5.00    3.80
  -2  -3   9   -2.10    6.10
   2   3   9    2.80    7.70
  -2  -3   9    2.30    3.00
   2  -5   9    3.80    8.10
   2  -5   9    3.70    4.30
   2  -5   9    5.20    3.80
  -2  -5   9    4.10    4.00
  -2  -5   9    5.00    4.20
  -2  -5   9   -2.90    8.00
   2  -7   9    3.90    3.80
  -2  -7  -9    0.90    6.30
   2  -7   9   -1.80    9.90
   2  -7   9   -2.40    5.00
  -2  -7   9   -8.80   10.10
  -2  -7   9   10.10    4.40
  -2  -7   9   -1.40    5.50
  -2  -9  -9   11.90    9.00
   2  -9   9    3.00    5.90
  -2  -9  -9    5.00    6.30
   2  -9   9   -4.70    9.10
  -2  -9   9   -1.20   10.60
   2  -9  -9    5.90    5.10
  -2  -9   9    1.70    6.30
   2   0  10  345.67   39.90
  -2   0  10  397.86   39.60
  -2   0  10  395.36   40.10
   2   0  10  379.36   39.70
  -2   2  10  106.29   20.90
  -2   2  10  139.69   14.50
   2  -2  10  126.49   18.20
   2  -2  10  129.79   14.90
  -2   2  10  138.59   15.70
   2  -2  10  133.19   14.90
   2   2  10  138.69   14.90
  -2  -2  10  125.09   15.10
   2   2  10  133.59   15.20
  -2  -2  10  136.89   15.00
   2   2  10  119.89   20.60
  -2  -2  10  131.49   19.10
   2  -4  10  109.39   17.10
   2  -4  10   98.59   12.20
   2  -4  10  108.19   12.30
  -2  -4  10   82.39   16.50
  -2  -4  10   89.39   11.90
  -2  -4  10  105.29   12.50
   2  -6  10  116.99   13.90
   2  -6  10  132.59   21.60
   2  -6  10  123.19   15.60
  -2  -6  10  126.99   14.20
  -2  -6  10  139.79   23.10
  -2  -6  10   84.79   14.90
  -2  -8 -10   37.90   10.50
   2  -8  10   75.09    7.80
   2  -8  10   57.49   15.90
   2  -8  10   37.80    9.50
   2  -8 -10   40.40    9.90
  -2  -8  10   55.49   16.30
  -2  -8  10   52.49    7.40
  -2  -8  10   52.69   10.40
   2 -10  10    9.80    6.00
  -2 -10 -10   15.80    5.90
   2 -10 -10    5.40    5.00
  -2 -10  10   10.10    5.80
   2  -1  11   -2.10    3.30
  -2   1  11    1.70    4.40
  -2   1  11   -3.40    3.70
  -2   1  11    0.90    5.20
   2  -1  11    0.80    3.90
   2   1  11   -2.90    4.30
  -2  -1  11    0.90    4.00
  -2  -1  11    0.50    3.40
   2   1  11    4.80    4.00
  -2  -1  11    6.40    8.20
  -2   3  11    2.70    5.40
   2  -3  11    1.40    7.40
  -2   3  11    1.30    3.20
   2  -3  11   -0.70    3.60
   2  -3  11    0.10    4.00
  -2  -3  11    2.60    4.40
  -2  -3  11    3.90    4.50
  -2  -3  11   -0.50    7.70
   2   3  11   -2.80    3.50
   2  -5  11   -3.10    7.90
   2  -5  11   -1.70    4.60
   2  -5  11    2.90    5.40
  -2  -5  11    0.70    5.70
  -2  -5  11    8.50   10.40
  -2  -5  11   -2.10    4.70
   2  -7  11    0.00    6.70
   2  -7  11    9.80    4.60
   2  -7  11    7.30   10.60
  -2  -7 -11    6.30    7.10
  -2  -7  11    4.00   10.80
  -2  -7  11   10.50    7.10
  -2  -7  11    2.80    5.00
  -2  -9 -11    2.20    6.40
   2  -9  11    1.70    5.90
  -2  -9  11    4.60    6.90
   2  -9 -11    4.70    5.20
  -2   0  12  572.24   62.09
   2   0  12  565.54   61.59
  -2   0  12  609.04   61.59
   2   0  12  623.64   62.09
   2  -2  12  114.09   14.90
  -2   2  12  154.88   18.30
   2  -2  12  115.09   15.70
  -2   2  12  148.99   14.80
   2  -2  12  111.19   19.90
  -2  -2  12  133.59   15.10
  -2  -2  12  117.99   21.10
   2   2  12  133.69   15.80
  -2  -2  12  108.89   15.40
   2   2  12  133.89   15.10
  -2   4  12   55.89    8.90
   2  -4  12   77.19   15.20
   2  -4  12   76.29   10.50
   2  -4  12   84.19   10.90
  -2  -4  12   80.19   10.10
  -2  -4  12   58.09   15.70
  -2  -4  12   84.29   11.00
   2  -6  12  284.67   30.00
   2  -6  12  212.78   34.10
   2  -6  12  259.97   28.80
  -2  -6  12  293.97   28.90
  -2  -6  12  288.37   30.30
  -2  -6  12  213.38   36.40
  -2  -8 -12   53.19   10.30
   2  -8  12   48.20    9.60
   2  -8  12   43.30    7.30
  -2  -8  12   58.39    7.60
   2  -8 -12   56.39   10.60
  -2  -8  12   65.89   10.60
  -2   1  13    0.60    5.90
   2  -1  13    5.20    5.50
  -2   1  13    2.40    4.90
  -2  -1  13    3.20    5.60
   2   1  13    1.00    5.00
  -2  -1  13   -2.80    4.60
   2  -3  13    0.60    4.60
   2  -3  13    3.70    5.40
  -2   3  13   -1.80    4.10
   2  -3  13  -17.60    7.00
   2   3  13    6.30    7.10
  -2  -3  13    1.40    5.30
  -2  -3  13   -3.20    8.80
  -2  -3  13   -1.50    5.40
   2  -5  13    1.00    5.40
   2  -5  13    7.20    9.00
   2  -5  13   -3.70    5.40
  -2  -5  13    8.20    5.50
  -2  -5  13    6.90   11.60
  -2  -5  13   -4.40    6.60
   2  -7  13    2.00    6.10
   2  -7  13    5.30    5.00
  -2  -7 -13    2.60    7.60
  -2  -7  13    3.20    7.90
  -2  -7  13    4.60   13.40
  -2  -7  13    0.60    4.90
  -2   0  14   47.90    9.70
   2   0  14   60.09    9.50
   2   0  14   48.10    9.50
  -2   0  14   59.09    9.20
  -2   2  14   65.19   10.50
  -2   2  14   64.59    8.50
   2  -2  14   52.99    9.10
  -2  -2  14   34.30    8.70
  -2  -2  14   61.69    9.20
   2   2  14   52.59    9.00
   2  -4  14   39.30    7.70
  -2   4  14   25.40   11.10
   2  -4  14   47.30    8.50
   2  -4  14   37.90   13.30
  -2  -4  14   50.89    8.60
  -2  -4  14   53.29    9.40
  -2  -4  14   43.70   13.90
  -2  -6 -14   13.20    8.30
   2  -6  14   13.80    5.60
   2  -6  14    1.30   10.60
   2  -6  14    8.30    5.80
  -2  -6  14    9.60   12.50
  -2  -6  14   22.30    7.70
  -2  -6  14   16.40    5.60
   2  -8  14   22.80    5.50
   2  -8  14   -6.80    3.90
  -2  -8 -14    8.70   10.70
  -2  -8  14    7.50    8.50
  -2  -8  14   12.10    4.00
   2  -8 -14   25.50   11.50
   2  -1  15    0.90    6.40
   2  -1  15    6.20    6.00
  -2   1  15    6.40    5.60
  -2   1  15    3.50    6.60
   2   1  15    6.30    6.10
  -2  -1  15   -0.70    6.50
  -2  -1  15    7.30    6.30
   2   1  15    5.10    6.50
   2  -3  15   -6.30    5.80
   2  -3  15   -3.60    5.50
  -2   3  15   -2.20    4.30
  -2  -3  15   -1.40    6.60
   2   3  15  -28.10   26.60
  -2  -3  15    3.10    6.30
   2  -5  15   18.70    6.20
   2  -5  15   -6.40    9.80
   2  -5  15    7.20    6.00
  -2  -5  15    1.10    6.80
  -2  -5  15   24.80   13.60
  -2  -5  15   11.80    6.00
   2  -7  15    4.80    4.70
  -2  -7 -15    3.90    6.80
   2  -7 -15    8.40    6.50
  -2  -7  15    4.60    6.70
  -2  -7  15   -0.10    7.10
  -2   0  16  316.27   34.30
   2   0  16  320.77   34.40
   2   0  16  299.97   34.30
  -2   0  16  323.37   35.10
   2  -2  16   53.09    8.70
   2   2  16    5.60   14.50
   2  -4  16   57.79    9.30
  -2  -4  16   68.39    9.70
  -2  -4  16   41.80    9.60
  -2  -6 -16  152.48   18.50
   2  -6  16  110.99   15.20
  -2  -6  16  112.19   16.40
  -2  -6  16  133.99   15.50
   2  -1  17   -0.10    5.40
   2  -1  17   -1.70    6.70
  -2   1  17   -1.10    5.50
  -2   1  17    2.30    7.50
  -2  -1  17    6.90    7.20
  -2  -1  17    0.70    6.30
   2   1  17   -4.90    7.20
   2  -3  17    2.00    6.50
  -2   3  17   -1.40   13.90
   2  -3  17    2.10    5.00
  -2  -3  17   -0.40    7.00
  -2  -3  17    2.20    6.60
  -2  -5 -17    0.20    6.80
   2  -5  17    1.70    5.20
   2  -5  17   -2.60    4.60
  -2  -5  17   -1.50    5.70
  -2  -5  17    5.20    6.70
  -2   0  18    9.20    6.60
  -2   0  18   11.50    6.90
   2   0  18   18.70    8.10
   2  -2  18    6.20    4.70
  -2   2  18    8.70    6.20
   2  -2  18   22.90    7.70
  -2  -2  18   15.80    6.60
  -2  -2  18   22.70    7.70
   3  -3   0 2599.64  287.27
  -3  -3   0 2985.10  283.87
  -3   3   0 2897.51  287.57
  -3  -3   0 2553.04  286.57
   3   5   0 4105.79  431.06
  -3   5   0 4327.27  432.96
  -3  -5   0 4655.83  426.46
   3   5   0 4731.23  435.26
  -3  -5   0 3586.74  423.36
  -3   5   0 3474.25  433.56
  -3  -7   0 2969.80  316.97
  -3  -7   0 3414.06  321.57
  -3  -7   0 2932.81  317.07
  -3  -9   0 1262.27  136.09
   3  -9   0 1128.09  130.69
  -3  -9   0 1414.86  131.09
  -3 -11   0  122.89   15.50
   3 -11   0  127.79   15.40
  -3   0   1    1.60    1.80
   3   0  -1    1.20    2.80
   3   0   1    0.20    2.60
  -3   0  -1    1.90    2.40
   3   0  -1    1.90    1.70
  -3   0   1    0.90    2.90
  -3   2   1    6.70    4.50
   3   2  -1    5.00    4.40
   3  -2   1    3.10    4.00
  -3  -2  -1    8.20    5.00
  -3  -2   1   14.20    4.10
   3  -2  -1    3.30    3.90
  -3   2  -1    2.20    3.50
   3   2   1    3.70    4.20
  -3  -2   1    4.40    3.90
   3  -4   1  590.34   59.79
  -3  -4  -1  487.05   56.99
  -3   4   1  534.05   64.49
  -3  -4  -1  611.84   59.29
   3   4  -1  490.65   61.69
  -3   4  -1  520.65   62.69
   3   4   1  505.75   62.59
  -3  -4   1  632.94   63.19
  -3  -4   1  580.34   59.29
   3   6  -1   16.90    9.00
  -3   6   1   45.10   14.20
  -3   6   1   18.00    9.10
   3  -6   1   39.50   10.60
  -3  -6  -1   39.80   10.60
  -3  -6   1   31.60    5.40
  -3  -6   1   31.60    4.10
   3  -6  -1   24.10    4.40
  -3  -6   1   35.90    9.90
  -3  -6   1   32.60    5.70
  -3   6  -1   52.99   16.90
   3   6   1   14.70   10.60
   3   6   1   18.70   11.70
   3  -8   1   51.99   14.10
   3  -8   1   90.79   10.40
  -3  -8  -1   57.79    9.40
  -3  -8  -1   83.39   10.30
  -3  -8  -1   64.19   14.90
  -3  -8   1   71.09    9.10
   3  -8  -1   70.69   15.30
  -3  -8   1   40.10   13.40
  -3  -8   1   66.19    9.70
   3 -10   1   -2.10    5.00
   3 -10   1  -14.00    6.40
  -3 -10  -1    2.60    5.30
  -3 -10  -1    2.30    9.00
   3 -10  -1   -0.40    5.10
   3 -10  -1    9.40    8.60
  -3 -10   1   -1.20    8.80
  -3 -10   1   -2.00    4.80
   3  -1   2 1280.17  141.29
  -3  -1  -2 1372.96  142.29
   3   1  -2 1560.94  142.19
   3  -1   2 1280.47  139.59
  -3   1  -2 1331.27  141.29
  -3   3   2   46.20   11.10
   3   3  -2   22.30    6.80
  -3  -3  -2   41.50   10.40
  -3  -3  -2   31.50    5.00
   3  -3   2   18.90    8.70
   3  -3   2   16.80    6.30
  -3  -3   2   33.20    4.30
  -3   3  -2   30.70    7.40
  -3  -3   2   31.60    6.90
   3   3   2   56.79   11.50
   3  -3  -2   39.50   11.00
  -3   5   2  134.29   22.90
   3   5  -2  114.19   19.60
   3   5  -2  162.38   27.20
   3  -5   2  139.19   18.40
  -3  -5  -2  108.49   13.90
  -3   5  -2  117.09   20.20
   3   5   2  134.09   23.80
   3   5   2  103.69   20.50
  -3   5  -2   95.89   18.40
  -3  -5   2  105.59   13.50
  -3  -5   2  123.49   12.50
   3  -7   2  278.27   36.00
   3  -7   2  304.27   31.20
  -3  -7  -2  252.37   35.30
  -3  -7   2  293.07   30.70
  -3  -7   2  333.77   30.20
  -3  -7   2  297.27   31.00
  -3  -7   2  318.37   36.30
   3  -7  -2  228.08   30.30
  -3  -9  -2  458.45   50.29
  -3  -9  -2  457.45   50.59
  -3  -9  -2  549.35   57.09
   3  -9   2  401.86   54.99
  -3  -9   2  475.45   50.59
   3  -9  -2  573.84   50.79
   3  -9  -2  454.75   55.99
  -3  -9   2  444.66   56.19
   3 -11   2   17.90    5.40
  -3 -11  -2   30.00    6.30
  -3 -11   2   17.60    5.80
   3 -11  -2   13.80    5.40
  -3   0  -3   -0.30    1.40
   3   0  -3   -0.20    3.00
  -3   0   3   -0.80    2.40
   3   0   3   -0.10    2.10
  -3   0  -3   -0.70    2.00
  -3   0   3    0.40    2.60
   3  -2   3 2339.07  221.98
  -3  -2  -3 2221.08  225.58
   3   2  -3 1805.32  223.38
   3  -2   3 2258.67  223.78
  -3   2   3 2014.20  221.18
  -3  -2   3 2208.78  222.18
   3   2   3 2298.27  225.68
   3  -4   3   45.20   10.00
   3  -4   3   45.10    6.60
  -3  -4  -3   49.50    7.30
   3   4  -3   62.79   11.90
  -3   4   3   31.10   10.60
  -3  -4   3   45.80    6.00
  -3  -4   3   57.49    6.50
  -3  -4   3   48.80    9.60
  -3   4  -3   55.79   10.70
   3  -4  -3   33.60   11.20
   3   4   3   45.60   13.60
   3   4   3   61.79   14.20
  -3  -4   3   69.19   12.20
   3  -6   3   40.60   12.10
  -3   6   3   52.09   15.80
  -3   6   3   94.69   30.50
   3   6  -3   51.09   14.00
   3  -6   3   70.29    8.80
   3   6   3   91.29   23.20
  -3   6  -3   50.39   14.20
  -3  -6   3   94.79   14.90
  -3  -6   3   74.29    8.20
  -3  -6   3   58.59    8.00
  -3  -6   3   45.10    6.80
  -3  -8  -3  100.29   19.10
   3  -8   3  101.89   13.30
   3  -8   3   84.49   17.90
  -3  -8  -3   93.29   13.30
  -3  -8   3  114.09   12.90
  -3  -8   3  110.69   19.60
   3  -8  -3   76.49   16.90
  -3 -10  -3   15.30    6.50
   3 -10   3   24.90   10.00
  -3 -10  -3   20.30   10.80
   3 -10   3   30.40    7.20
  -3 -10  -3   31.20    6.30
  -3 -10   3   17.20    6.90
  -3 -10   3   19.70   11.50
   3 -10  -3   27.90    8.80
   3 -10  -3   17.00   10.30
   3  -1   4 4288.87  497.85
   3   1  -4 5344.57  499.45
  -3  -1  -4 4928.81  499.95
  -3  -1   4 4928.91  499.05
  -3   1  -4 4614.34  497.85
   3  -1  -4 5053.19  500.95
   3   1   4 4896.01  499.85
  -3   3   4  325.77   43.70
   3  -3   4  381.86   39.50
   3  -3   4  367.56   41.20
   3   3  -4  293.57   40.60
   3  -3   4  364.26   37.40
   3  -3   4  374.06   37.60
  -3   3  -4  370.76   40.70
   3  -3  -4  283.87   43.80
   3   3   4  389.56   44.20
  -3  -3   4  417.26   37.50
  -3  -3   4  334.07   39.50
  -3  -3   4  403.36   37.70
   3   5  -4  910.11   91.59
   3  -5   4  936.31   83.99
   3  -5   4  686.83   85.69
  -3  -5  -4  722.83   84.89
  -3   5   4  778.82   94.89
   3  -5   4  946.51   88.79
  -3  -5   4  759.92   83.99
  -3  -5   4  829.52   84.49
  -3  -5   4  770.22   87.69
   3   5   4  829.22   94.19
   3   5   4  852.71   97.19
  -3  -7  -4 1553.04  181.98
  -3  -7  -4 1660.83  178.68
   3  -7  -4 2016.50  178.48
  -3  -7   4 1672.53  182.88
  -3  -9  -4  280.77   29.50
  -3  -9  -4  251.77   35.30
   3  -9   4  252.87   34.90
  -3  -9  -4  277.97   29.70
   3  -9  -4  275.17   35.30
  -3  -9   4  232.78   35.50
  -3 -11  -4  113.99   13.70
   3 -11   4   85.29   12.90
   3 -11  -4  115.69   14.00
  -3 -11   4  109.49   13.70
  -3   0   5    1.90    1.80
  -3   0   5   -0.50    2.30
  -3   0   5   -1.80    1.60
  -3   0  -5    4.20    3.50
   3   0  -5   -0.30    2.60
  -3   0   5   -0.10    3.40
   3   0   5   -0.90    2.00
   3   0   5    2.20    2.40
   3   2  -5  227.38   27.50
  -3   2   5  280.17   31.10
   3  -2   5  277.37   26.50
  -3   2   5  221.08   25.20
   3  -2   5  233.88   25.00
  -3   2  -5  255.97   26.00
   3   2   5  235.88   25.10
  -3  -2   5  244.78   27.60
   3   2   5  274.27   30.30
  -3  -2   5  217.18   24.90
   3  -2  -5  183.68   30.10
   3  -4   5  530.35   55.09
  -3   4   5  610.44   65.79
   3  -4   5  479.15   57.79
   3  -4   5  535.75   55.39
  -3   4  -5  570.64   59.19
  -3  -4   5  569.74   55.19
  -3  -4   5  577.74   58.49
  -3   4  -5  441.36   58.29
   3  -6   5   74.29   10.60
   3  -6   5   81.39   15.50
   3  -6   5   82.69    8.90
  -3   6   5  132.19   29.20
  -3  -6  -5   76.49   11.60
  -3   6   5  105.99   22.60
  -3  -6   5   78.89    9.20
  -3  -6   5   51.69   14.00
  -3  -6   5   73.49    9.60
   3   6   5   87.29   24.50
  -3  -8  -5  159.68   26.40
   3  -8   5  186.18   21.20
  -3  -8  -5  181.38   21.70
  -3  -8   5  164.38   27.30
  -3  -8   5  224.48   21.20
   3  -8  -5  163.58   20.50
  -3 -10  -5   -5.10    4.10
   3 -10   5   -3.00    8.30
  -3 -10  -5   -1.60    7.90
   3 -10   5    4.00    5.10
  -3 -10  -5    4.90    5.80
   3 -10  -5   11.00    9.00
  -3 -10   5    3.30    5.10
  -3 -10   5    9.50   10.40
   3  -1   6 1409.26  151.18
   3   1  -6 1449.26  153.88
   3  -1   6 1530.35  151.28
   3  -1   6 1351.36  152.38
  -3   1   6 1268.17  155.08
  -3   1   6 1611.04  151.58
   3  -1  -6 1486.85  156.68
   3   1   6 1506.65  151.28
  -3  -1   6 1275.27  153.18
   3   1   6 1627.64  155.38
  -3  -1   6 1438.86  151.18
   3   1   6 1513.45  151.38
  -3  -1   6 1533.25  151.58
  -3  -1   6 1504.05  153.08
  -3  -1   6 1652.63  151.48
   3  -3   6  565.14   54.59
   3  -3   6  522.65   52.39
  -3   3   6  545.35   60.39
   3   3  -6  553.74   55.49
  -3  -3   6  428.66   54.59
  -3  -3   6  457.05   54.89
   3  -3  -6  547.45   61.89
  -3  -3   6  433.76   52.69
   3   3   6  598.94   60.39
  -3  -3   6  495.45   52.39
   3   5  -6  181.48   23.10
   3  -5   6  122.69   21.20
   3  -5   6  174.68   17.90
   3  -5   6  155.48   17.20
  -3   5   6  163.18   27.90
  -3   5   6  162.18   30.10
  -3  -5   6  162.58   17.30
  -3  -5   6  154.58   17.70
  -3  -5   6  178.08   22.90
  -3  -5   6  188.98   18.00
   3   5   6  154.18   30.50
  -3   5  -6  138.09   21.00
   3   5   6  133.39   35.80
  -3  -7  -6  646.74   68.99
   3  -7   6  618.24   63.69
  -3  -7   6  639.34   63.89
  -3  -7   6  656.43   70.59
  -3  -7   6  552.14   64.79
   3  -9   6  138.19   24.80
  -3  -9  -6  141.39   24.40
  -3  -9  -6  164.68   19.90
   3  -9   6  159.78   19.10
   3  -9  -6  149.39   18.30
   3  -9  -6  152.68   24.80
  -3  -9   6  173.78   26.00
  -3  -9   6  187.28   19.70
  -3 -11  -6   48.00    6.70
   3 -11   6   17.90    5.30
  -3 -11   6   22.40    5.90
   3 -11  -6   26.40    6.40
  -3   0   7    0.90    2.10
  -3   0   7   -0.20    2.40
  -3   0   7   -0.80    2.50
   3   0   7   -0.20    2.20
   3   0  -7   -0.80    2.70
   3   0   7    2.20    2.80
  -3   0   7    1.10    4.60
   3   0   7   -1.40    2.60
   3  -2   7   76.29   11.60
   3   2  -7   88.09   10.90
  -3   2   7   66.59    9.00
  -3   2   7   74.49   14.10
  -3   2   7   84.29   10.00
   3  -2   7   83.69    9.20
   3  -2   7   78.79    9.40
   3   2   7   72.59   14.90
  -3  -2   7   76.39   10.60
  -3  -2   7   87.29    9.50
   3  -2  -7   78.39   15.90
  -3  -2   7   94.29    9.60
  -3  -2   7   93.09   10.00
   3   2   7   78.49    9.40
   3   2   7   85.19   14.30
  -3  -2   7   80.39   12.30
   3  -4   7    7.20    3.00
   3  -4   7   15.40    3.30
  -3   4   7   20.20   10.20
   3  -4   7    4.10    5.70
   3   4  -7    8.90    4.60
  -3   4   7    3.40    5.80
  -3  -4   7    3.70    2.90
  -3  -4   7    2.80    6.80
   3   4   7    1.30    7.30
  -3  -4   7    6.50    3.10
  -3  -4   7    8.90    3.40
   3  -6   7    3.00    2.80
   3  -6   7    2.10    8.20
   3  -6   7    6.20    4.10
  -3  -6  -7    0.70    5.20
  -3  -6   7    3.90    2.90
  -3  -6   7    3.50    8.90
  -3  -6   7    1.10    4.00
  -3  -6   7    3.60    3.50
   3  -8   7   11.40    5.80
  -3  -8  -7   15.80    9.70
  -3  -8  -7   13.70    7.00
  -3  -8   7    9.60   11.50
   3  -8  -7    9.90    5.50
  -3  -8   7   16.30    6.50
  -3  -8   7   15.40    3.60
   3 -10   7    4.90    5.30
  -3 -10  -7   -1.70    4.90
  -3 -10  -7    2.10    5.20
  -3 -10   7   -1.80    5.60
   3  -1   8 5294.87  507.55
   3   1  -8 5007.40  507.85
  -3   1   8 4674.83  505.05
  -3   1   8 4531.75  510.05
   3   1   8 4413.86  509.65
   3   1   8 4843.72  509.25
   3  -1  -8 4908.71  511.85
   3   1   8 5175.68  505.65
  -3  -1   8 5228.58  507.35
  -3  -1   8 5380.76  508.25
  -3   3   8  876.91  101.59
  -3   3   8  888.71   93.99
  -3   3   8  953.00   93.19
   3  -3   8  942.41   93.49
   3  -3   8  876.11   93.49
   3  -3   8  921.21   95.69
   3   3   8  812.02   93.59
  -3  -3   8  866.61   93.69
   3   3   8 1023.20  104.39
  -3  -3   8  926.11   93.49
  -3  -3   8  949.31   96.59
   3  -5   8 1179.28  128.99
   3  -5   8 1270.77  133.19
  -3  -5   8 1325.37  129.09
   3  -7   8 2193.28  195.98
  -3  -7  -8 1848.22  196.48
   3  -7   8 1714.03  200.58
   3  -7   8 1811.52  194.68
  -3  -7   8 1914.51  194.78
  -3  -7   8 1917.61  201.58
   3  -9   8  118.39   17.20
   3  -9  -8  133.89   17.30
  -3  -9   8  208.48   36.60
  -3  -9   8  161.78   18.30
  -3   0   9    0.40    2.90
  -3   0   9    2.30    2.70
  -3   0   9    3.60    3.50
   3   0   9    1.30    3.10
   3   0   9   -2.20    2.40
  -3   0   9    0.90    5.40
  -3   2   9   50.39    7.30
   3  -2   9   55.89    7.50
  -3   2   9   73.29    8.80
   3  -2   9   62.39   11.20
  -3   2   9   48.30   12.60
   3  -2   9   57.49    8.10
  -3  -2   9   69.09    8.00
   3   2   9   66.39   14.80
  -3  -2   9   58.39    8.00
  -3  -2   9   75.79   12.70
   3   2   9   56.29    7.70
   3  -4   9    5.10    3.50
  -3   4   9   -0.10    2.00
   3  -4   9    4.10    6.00
   3  -4   9   -3.40    3.20
  -3  -4   9    4.10    3.50
  -3  -4   9   -1.40    7.30
  -3  -4   9   -2.50    3.60
  -3  -6  -9    7.60    6.40
   3  -6   9    6.60    4.80
   3  -6   9   10.40    9.80
   3  -6   9    6.70    4.50
  -3  -6   9    8.70    4.70
  -3  -6   9    6.50   10.80
  -3  -6   9    3.50    5.00
   3  -8   9   16.30   10.40
  -3  -8  -9    6.20    7.00
   3  -8   9   13.30    6.20
  -3  -8   9    7.00   11.30
  -3  -8   9    5.60    4.00
   3  -8  -9    6.80    6.00
  -3  -8   9   11.00    6.40
   3 -10   9    2.90    4.80
  -3 -10  -9    5.40    5.50
  -3 -10  -9    6.00    4.70
  -3 -10   9    9.00    6.30
   3  -1  10   39.60    5.90
   3  -1  10   34.90    6.20
  -3   1  10   51.39    7.20
  -3   1  10   32.90    9.00
  -3   1  10   41.50    5.90
   3   1  10   31.10    8.30
  -3  -1  10   33.70   10.40
  -3  -1  10   39.10    6.30
   3   1  10   49.90    6.50
  -3  -1  10   40.30    6.20
   3   1  10   53.09    6.80
   3  -3  10   21.40    4.70
   3  -3  10   32.00    5.40
  -3   3  10   23.40    6.10
   3  -3  10   34.20    9.50
  -3  -3  10   28.10   10.00
   3   3  10   15.00    6.00
  -3  -3  10   25.40    5.30
  -3  -3  10   26.60    5.60
   3  -5  10   20.40    9.30
   3  -5  10   24.20    5.90
  -3  -5  10   21.50    6.20
  -3  -5  10   17.20    5.30
  -3  -5  10   29.60   11.40
   3  -7  10  122.29   14.30
  -3  -7 -10  108.69   16.90
   3  -7  10  121.49   16.10
  -3  -7  10   97.59   21.40
  -3  -7  10  144.09   14.80
  -3  -7  10  118.79   16.60
  -3  -9 -10   21.70    7.70
   3  -9  10   16.40    6.30
   3  -9 -10   15.70    5.70
  -3  -9  10   18.60    7.10
   3   0  11   -0.50    4.00
   3   0  11    0.00    3.80
  -3   0  11    3.20    4.10
  -3   0  11    1.80    4.00
  -3   2  11   84.69   10.20
   3  -2  11   88.39   10.40
   3  -2  11   86.09   14.80
  -3   2  11   88.89   11.90
   3  -2  11   83.39   11.00
  -3  -2  11   83.19   10.80
   3   2  11   66.59   10.70
  -3  -2  11   78.09   11.00
  -3  -2  11   89.79   16.10
  -3   4  11   77.39    8.90
   3  -4  11   70.39   10.50
   3  -4  11  107.69   16.50
   3  -4  11   75.69   10.50
  -3  -4  11   71.89   10.70
  -3  -4  11   75.69   10.60
  -3  -4  11   56.39   15.20
   3  -6  11   21.50   10.90
   3  -6  11   30.00    6.40
   3  -6  11   45.90    8.10
  -3  -6 -11   33.20    9.10
  -3  -6  11   39.60    6.90
  -3  -6  11   39.80    8.30
  -3  -6  11   31.70   13.50
   3  -8  11    3.80   10.10
  -3  -8 -11   30.50    9.00
   3  -8  11   35.40    7.60
  -3  -8  11   54.49    9.30
  -3  -8  11   16.90   12.70
   3  -8 -11   62.39    9.00
   3  -1  12 1378.56  150.38
  -3   1  12 1534.45  149.99
  -3   1  12 1499.25  150.88
   3  -1  12 1467.85  150.58
   3   1  12 1477.75  150.18
  -3  -1  12 1427.26  150.08
   3   1  12 1476.05  150.48
  -3  -1  12 1429.96  150.68
   3  -3  12  161.08   24.40
  -3   3  12  192.78   20.10
   3  -3  12  194.28   20.90
   3  -3  12  195.48   20.70
  -3  -3  12  185.68   20.80
  -3  -3  12  170.38   26.10
  -3  -3  12  174.98   21.00
   3  -5  12  428.36   44.40
   3  -5  12  367.16   48.80
   3  -5  12  470.65   44.90
  -3  -5  12  457.05   45.40
  -3  -5  12  352.96   54.49
  -3  -5  12  399.56   44.20
  -3  -7 -12  504.25   53.99
   3  -7  12  391.76   57.79
   3  -7  12  527.15   51.99
   3  -7  12  532.05   52.79
  -3  -7  12  499.65   60.39
  -3  -7  12  482.35   53.19
  -3  -9 -12   83.19   15.50
   3  -9 -12   94.69   13.20
  -3  -9  12  107.89   13.70
   3   0  13    2.30    5.20
  -3   0  13   -1.70    5.00
   3   0  13   -5.00    5.30
  -3   0  13    1.40    5.70
   3  -2  13   51.39    9.30
  -3   2  13   71.29   10.00
   3  -2  13   74.89   10.20
  -3   2  13   84.19   11.70
  -3  -2  13   65.59   10.10
   3   2  13   73.89   10.00
  -3  -2  13   64.39   16.00
  -3  -2  13   86.99   11.10
   3  -4  13   20.40    5.80
   3  -4  13   28.20    6.90
  -3   4  13   16.50    4.30
   3  -4  13   38.90   11.40
  -3  -4  13   32.80   12.70
  -3  -4  13   22.40    7.50
  -3  -4  13   23.90    6.70
   3  -6  13   17.10    6.00
   3  -6  13    5.60    9.00
   3  -6  13   21.80    6.50
  -3  -6  13   12.40   13.00
  -3  -6  13   24.00   10.20
  -3  -6  13   14.10    7.00
  -3  -8 -13   55.79   10.20
   3  -8  13   43.10    7.30
  -3  -8  13   22.00    7.40
  -3  -8  13   45.80    6.40
   3  -8 -13   29.50    8.10
   3  -1  14  223.68   25.50
  -3   1  14  196.48   24.70
  -3   1  14  248.38   25.90
   3  -1  14  230.28   25.30
   3   1  14  216.48   25.20
  -3  -1  14  222.08   25.30
   3   1  14  238.28   25.40
  -3   3  14   95.79   12.80
   3  -3  14  125.49   14.10
   3  -3  14   90.99   13.60
  -3  -3  14  114.59   14.20
  -3  -3  14  101.99   14.30
  -3  -3  14   98.49   19.70
   3  -5  14   96.89   13.10
   3  -5  14   88.99   13.10
  -3  -5  14   84.59   20.00
  -3  -5  14  116.09   15.30
  -3  -5  14   93.09   12.80
  -3  -7 -14   89.49   13.80
   3  -7  14   62.89   10.90
   3  -7  14   95.99   11.50
  -3  -7  14  105.39   13.80
  -3  -7  14   89.89   11.50
   3   0  15   -3.80    5.50
   3   0  15   -6.40    6.00
  -3   0  15    1.30    5.90
  -3   0  15    0.00    6.10
  -3   2  15   25.50    7.90
  -3   2  15   17.30    6.00
   3  -2  15   14.70    6.10
   3  -2  15   19.90    6.80
   3   2  15    1.70   10.20
  -3  -2  15    3.30    7.10
  -3  -2  15   21.30    7.30
   3  -4  15   15.80   10.40
  -3  -4  15   -9.30    9.80
  -3  -4  15   20.60    8.00
  -3  -4  15    6.80    8.00
   3  -6  15    9.60    4.80
  -3  -6 -15    2.50    7.70
   3  -6  15    2.80    4.90
  -3  -6  15   -1.10    5.40
  -3  -6  15    4.90    6.60
  -3   1  16  379.46   42.70
   3  -1  16  425.56   42.90
   3  -1  16  381.66   42.00
  -3   1  16  411.46   41.90
   3   1  16  420.96   42.80
  -3  -1  16  336.37   42.50
  -3  -1  16  400.36   42.50
  -3   3  16   50.89    7.90
   3  -3  16   54.49    8.90
   3  -3  16   69.49   10.20
  -3  -3  16   27.00    9.90
  -3  -3  16   97.39   10.90
   3  -5  16  143.09   18.10
  -3  -5 -16  129.49   19.90
  -3  -5  16  158.78   18.40
  -3  -5  16  168.78   19.70
  -3   0  17   -1.10    6.00
  -3   0  17    4.50    6.10
   3   0  17    3.70    7.30
   3  -2  17    3.70    4.80
  -3   2  17   -1.20    4.50
   3  -2  17   -6.50    6.80
  -3  -2  17   -0.50    7.00
  -3  -2  17    4.80    6.60
   3  -4  17    7.60    6.80
  -3  -4 -17    0.00    7.20
   3  -4  17   -3.00    6.00
  -3  -4  17   -0.40    7.20
  -3  -4  17    1.40    6.20
  -3  -1 -18    1.70    5.90
  -3   1  18    6.70    5.60
   3  -1  18   -6.20    7.50
  -3  -1  18   -0.30    6.40
  -3  -1  18    2.70    6.30
   3   1  18    3.20   31.20
   3  -3  18    7.10    5.00
  -3  -3 -18   -0.50    6.80
   3  -3  18    7.20    6.60
  -3  -3  18    7.90    7.10
  -3  -3  18    4.10    6.40
   4   0   0  718.23   76.29
  -4   0   0  802.92   76.29
   4   0   0  825.32   79.49
  -4   0   0  625.74   78.89
  -4   4   0 9081.69  846.52
  -4  -4   0 7846.41  845.02
   4  -4   0 7715.43  845.82
  -4  -6   0 1823.32  185.48
  -4   6   0 1753.12  196.08
  -4  -6   0 1500.45  187.88
  -4  -6   0 1891.11  184.48
   4   6   0 2077.29  197.58
  -4  -8   0  859.01   81.19
   4  -8   0  825.82   80.99
  -4  -8   0  675.03   85.09
   4  -8   0  721.33   85.39
  -4 -10   0 2106.19  225.58
   4 -10   0 2177.58  224.38
  -4 -10   0 2250.67  229.28
  -4  -1  -1    2.40    3.70
  -4  -1  -1    1.40    1.90
   4  -1   1    2.50    3.10
   4   1  -1    3.60    3.60
  -4   1   1    0.50    3.30
  -4  -1   1   -0.90    2.10
   4   1   1    1.00    3.80
   4  -1  -1    2.40    3.90
  -4  -1   1   -0.50    3.50
  -4   1  -1   -0.80    2.30
  -4  -3  -1  767.82   73.69
  -4   3   1  720.63   78.79
   4   3   1  713.23   78.49
  -4   3  -1  879.91   89.29
  -4  -3   1  675.93   73.39
  -4  -3   1  611.04   77.19
  -4  -3   1  719.13   72.99
   4  -3  -1  661.73   78.79
  -4  -5  -1   84.79   14.70
  -4   5   1  136.49   20.90
   4   5  -1   92.49   17.90
  -4  -5  -1   82.99   11.50
   4  -5   1   90.29   14.70
  -4   5  -1   76.39   23.90
  -4  -5   1   84.69   11.30
  -4  -5   1   63.99   13.90
  -4  -5   1  111.99   11.00
   4  -5  -1  131.59   21.10
   4   5   1   87.89   17.60
  -4  -7  -1   28.50    6.10
   4  -7   1   22.60    5.90
   4  -7   1   26.00   10.40
  -4  -7  -1   27.20   10.40
  -4  -7  -1   31.80    6.20
  -4  -7   1   27.20    4.10
   4  -7  -1   32.70   10.10
  -4  -7   1   22.20    5.50
  -4  -7   1   33.90    5.80
  -4  -7   1   43.00   11.30
   4  -9   1   46.60    7.80
   4  -9   1   42.30   12.50
  -4  -9  -1   36.00    7.20
  -4  -9  -1   26.40   12.20
  -4  -9  -1   41.10    6.90
   4  -9  -1   21.40   11.70
  -4  -9   1   37.50   12.60
   4  -9  -1   48.60    7.80
  -4  -9   1   41.10    7.20
  -4 -11  -1    0.60    4.50
   4 -11   1    1.20    4.00
  -4 -11   1   -5.20    4.10
   4 -11  -1   -1.30    4.70
  -4   0   2 2378.36  245.28
   4   0   2 2032.70  244.38
  -4   0   2 2687.23  242.78
   4  -2   2 5904.61  648.04
   4   2  -2 6820.72  648.94
   4  -2   2 5991.30  645.64
  -4  -2  -2 6038.80  649.04
   4  -2  -2 6831.62  650.33
   4   4  -2 4408.56  485.95
   4  -4   2 4166.38  482.55
  -4  -4  -2 4691.43  480.65
   4  -4   2 5327.07  487.95
   4  -4  -2 5201.58  489.85
  -4  -4   2 4999.50  480.25
  -4  -4   2 4147.08  482.05
   4   6  -2   57.99   15.30
  -4  -6  -2   61.29    8.70
  -4   6   2   93.39   21.90
  -4  -6  -2   45.80   11.30
   4  -6   2   62.69    8.30
   4  -6   2   69.39   13.80
  -4   6   2   81.69   19.60
  -4  -6   2   35.60    6.20
   4   6   2   54.99   18.40
  -4  -6   2   56.59    7.70
  -4  -6   2   53.89    8.10
  -4  -6   2   37.60   10.90
   4  -8   2  225.58   30.60
  -4  -8  -2  210.38   30.20
  -4  -8  -2  204.08   25.00
  -4  -8  -2  244.98   25.50
  -4  -8   2  236.78   24.60
  -4  -8   2  271.87   31.50
  -4  -8   2  192.78   24.80
   4  -8  -2  230.78   30.50
   4 -10   2  740.23   74.69
  -4 -10  -2  661.73   74.29
  -4 -10  -2  809.42   79.79
  -4 -10  -2  742.13   73.79
   4 -10  -2  648.94   74.89
   4 -10  -2  625.84   78.39
  -4  -1  -3 4824.72  474.35
  -4   1   3 5156.98  475.15
   4   1  -3 5028.50  474.05
   4  -1   3 4555.84  473.15
  -4   1  -3 4050.99  472.75
   4   1   3 4732.63  474.25
   4  -1  -3 4558.84  474.75
  -4  -1   3 3972.50  473.35
   4  -3   3  694.33   76.49
  -4  -3  -3  696.43   78.19
  -4  -3  -3  619.54   72.39
   4   3  -3  725.13   76.69
  -4   3   3  808.12   79.39
   4  -3   3  687.73   71.89
  -4  -3   3  767.92   71.99
   4   3   3  793.22   78.79
  -4   3  -3  573.44   75.29
   4  -3  -3  668.73   78.89
   4  -5   3  332.67   38.20
   4   5  -3  388.66   45.80
   4   5   3  404.66   50.99
  -4   5  -3  377.66   45.40
   4   5   3  416.56   48.30
  -4  -5   3  348.67   37.60
  -4  -5   3  399.26   38.20
  -4  -5   3  387.96   41.80
   4  -5  -3  331.27   48.20
  -4  -5   3  310.37   38.40
   4  -7   3  138.59   22.20
   4  -7   3  136.29   16.70
  -4  -7  -3  150.98   17.70
  -4  -7  -3  128.69   21.60
  -4  -7   3  156.18   16.60
  -4  -7   3  148.69   16.40
  -4  -7   3  129.89   15.20
  -4  -7   3  205.18   24.00
   4  -7  -3  131.39   15.90
   4  -9   3   50.29    7.70
   4  -9   3   58.39   14.30
  -4  -9  -3   66.49    9.20
  -4  -9  -3   42.30    8.00
  -4  -9  -3   29.90   11.90
  -4  -9   3   35.60    7.80
   4  -9  -3   49.30   13.60
  -4  -9   3   56.69   14.30
  -4 -11  -3   22.00    5.70
   4 -11   3   35.10    6.10
   4 -11  -3   26.50    6.00
  -4 -11   3   19.20    5.40
  -4   0   4 2061.79  236.48
  -4   0  -4 2398.46  239.18
   4   0  -4 2614.74  240.48
   4   0   4 2025.60  238.68
  -4   0   4 2475.25  236.38
   4  -2   4 2064.79  197.78
  -4   2   4 1990.60  203.48
  -4   2   4 1921.51  197.98
  -4  -2  -4 1946.01  207.08
   4  -2   4 1666.23  198.38
   4   2  -4 2090.69  201.58
  -4  -2   4 1818.92  201.08
  -4   2  -4 2087.59  200.58
   4  -2  -4 2111.49  204.68
  -4  -2   4 1852.91  197.78
   4   2   4 1736.63  205.08
   4   4  -4 1643.14  175.28
   4  -4   4 1741.73  169.58
   4  -4   4 1384.26  171.78
  -4   4   4 1970.10  180.38
  -4  -4   4 1704.83  169.68
   4  -4  -4 1695.53  180.08
  -4  -4   4 1522.15  170.18
   4  -6   4 1053.29  102.79
  -4   6   4  968.10  116.09
  -4  -6   4  992.90  103.49
   4   6   4  793.82  113.39
  -4  -6   4 1021.80  102.89
   4   6   4 1201.98  122.09
  -4  -8  -4  416.26   46.40
  -4  -8  -4  531.05   51.99
   4  -8   4  362.06   45.50
  -4  -8   4  472.95   45.90
  -4  -8   4  406.36   51.39
  -4 -10  -4  658.73   66.39
  -4 -10  -4  553.24   71.29
  -4 -10  -4  563.94   66.19
   4 -10   4  696.03   66.29
  -4 -10   4  504.05   70.79
  -4 -10   4  703.23   66.59
   4 -10  -4  703.13   66.59
  -4  -1  -5  487.05   55.39
  -4   1   5  413.76   51.49
  -4   1   5  403.96   55.19
   4  -1   5  458.65   51.39
   4  -1   5  537.25   52.39
   4   1  -5  486.25   54.79
  -4   1   5  447.06   51.29
   4  -1   5  536.45   53.69
  -4   1  -5  509.85   53.39
  -4  -1   5  502.15   51.69
   4   1   5  552.54   55.79
  -4  -1   5  551.84   51.49
  -4  -1   5  566.24   53.39
  -4  -1   5  502.25   51.39
   4   1   5  483.45   51.49
  -4  -1   5  525.85   54.89
   4  -1  -5  556.74   57.29
   4  -3   5  743.13   69.29
   4  -3   5  725.93   67.49
  -4   3   5  598.64   74.19
   4  -3   5  664.63   67.39
   4   3  -5  616.84   71.29
   4  -3   5  613.64   70.69
  -4   3  -5  641.04   70.09
  -4  -3   5  635.44   67.39
  -4  -3   5  634.24   67.49
  -4  -3   5  636.24   71.49
  -4  -3   5  680.53   67.99
  -4   5   5  227.48   37.50
  -4  -5  -5  231.88   27.50
   4  -5   5  254.57   30.60
   4  -5   5  232.68   26.00
   4   5  -5  271.07   33.30
  -4  -5   5  218.98   26.60
  -4  -5   5  282.87   26.30
   4   5   5  252.67   36.30
  -4   5  -5  247.68   40.10
  -4  -5   5  302.47   31.30
  -4  -5   5  242.58   26.90
   4  -7   5   95.59   14.20
  -4  -7  -5  137.29   15.90
  -4  -7  -5   76.49   17.80
   4  -7   5   90.49   19.00
  -4  -7   5  141.99   21.50
  -4  -7   5   99.39   13.30
  -4  -7   5  147.29   14.70
  -4  -7   5  134.39   13.00
   4  -9   5  110.99   13.40
  -4  -9  -5  100.59   14.30
  -4  -9  -5   76.59   17.90
  -4  -9  -5   87.69   13.30
  -4  -9   5  111.79   13.90
  -4  -9   5   91.69   19.20
   4 -11   5   10.90    4.50
  -4 -11  -5    7.20    4.70
  -4 -11   5    5.40    4.60
   4 -11  -5    1.90    4.90
  -4   0   6 2959.50  281.87
  -4   0  -6 2461.05  280.27
   4   0   6 2749.02  277.67
  -4   0   6 2688.53  277.57
   4   0  -6 2730.23  282.07
   4  -2   6 1691.53  174.98
  -4   2   6 1538.95  182.88
  -4   2   6 1792.32  174.88
   4  -2   6 1933.21  176.48
  -4   2   6 1753.42  175.28
   4  -2   6 1598.34  174.98
   4   2  -6 1595.14  178.18
  -4   2  -6 1632.64  175.88
  -4  -2   6 1694.53  178.18
   4   2   6 1744.43  180.88
   4  -2  -6 1859.41  183.38
  -4  -2   6 1765.22  175.38
  -4  -2   6 1627.84  176.98
   4   2   6 1798.82  175.08
  -4  -2   6 1618.94  174.98
   4  -4   6 2035.80  191.48
   4  -4   6 2049.20  194.28
   4   4  -6 1803.52  196.18
   4   4   6 1851.01  203.38
   4  -4  -6 1688.83  202.58
  -4   4  -6 1688.13  194.08
  -4  -4   6 1701.03  191.48
  -4  -4   6 1656.53  191.98
  -4   4  -6 1972.50  195.78
  -4  -4   6 2033.10  191.88
   4   4   6 2123.79  201.98
   4  -6   6  466.85   49.99
   4  -6   6  508.05   49.20
  -4  -6  -6  453.85   50.89
  -4  -6   6  484.95   50.09
  -4  -6   6  479.75   49.90
  -4  -6   6  455.35   49.30
  -4  -8  -6  454.35   48.10
   4  -8   6  381.66   51.99
   4  -8   6  374.16   47.00
   4  -8  -6  478.15   47.20
  -4  -8   6  450.05   46.00
  -4  -8   6  500.25   47.40
  -4 -10  -6  186.08   20.60
   4 -10   6  150.78   19.80
  -4 -10  -6  201.98   20.50
  -4 -10   6  159.68   20.40
   4   1  -7  256.67   31.60
   4  -1   7  246.78   28.10
   4  -1   7  280.37   28.80
  -4   1   7  269.77   35.20
   4  -1   7  296.17   28.40
   4  -1   7  262.67   29.90
  -4   1   7  297.37   28.20
  -4   1   7  278.27   28.60
  -4  -1   7  296.07   31.70
   4  -1  -7  258.97   37.20
   4   1   7  272.87   33.70
   4   1   7  218.58   31.60
  -4  -1   7  262.37   28.40
  -4  -1   7  266.97   28.30
  -4  -1   7  282.77   31.20
   4   1   7  267.27   28.30
   4   3  -7   40.80    8.40
   4  -3   7   30.70    4.70
   4  -3   7   32.60    7.60
  -4   3   7   34.60    5.90
   4  -3   7   35.70    6.20
   4   3   7   31.10   10.10
  -4  -3   7   41.70    5.40
  -4  -3   7   45.00    8.50
   4   3   7   58.29   15.50
   4  -3  -7   30.50   11.40
  -4  -3   7   31.80    8.40
  -4  -3   7   29.40    5.10
  -4  -3   7   45.00    6.30
   4   5  -7    5.90    7.10
   4  -5   7    5.30    3.30
   4  -5   7    8.80    3.20
  -4  -5  -7    4.30    5.30
   4  -5   7    0.40    6.50
  -4  -5   7    1.90    7.70
  -4  -5   7    8.80    3.40
  -4  -5   7    6.60    3.80
  -4  -5   7    8.10    3.70
   4  -7   7   -0.30    8.00
   4  -7   7   -1.00    4.90
  -4  -7  -7   -1.60    6.10
   4  -7   7    6.40    2.80
  -4  -7   7    3.30    2.80
  -4  -7   7    0.20    9.70
  -4  -7   7    1.50    4.90
   4  -9   7    7.90   10.10
  -4  -9  -7    5.70    8.20
   4  -9   7    5.50    5.20
  -4  -9  -7    1.00    6.80
  -4  -9   7    3.80   10.90
   4  -9  -7   13.60    4.50
  -4  -9   7   12.90   10.10
  -4   0   8 7718.03  788.32
   4   0   8 7406.06  788.22
  -4   0   8 7043.70  789.22
   4   0  -8 7742.33  790.92
   4   0   8 8541.85  788.12
   4  -2   8  883.81   87.09
   4   2  -8  783.72   89.39
   4  -2   8  944.51   89.29
  -4   2   8  874.41   87.49
  -4   2   8  840.02   86.79
   4  -2   8  846.22   87.09
   4   2   8  805.92   94.49
  -4  -2   8  867.21   89.19
  -4  -2   8  807.62   89.79
  -4  -2   8  830.52   87.09
   4  -2  -8  787.82   95.29
  -4  -2   8  862.61   87.29
   4  -4   8 1575.14  168.88
   4  -4   8 1644.94  166.48
  -4   4   8 1684.93  190.68
   4   4  -8 1547.35  168.68
   4  -4   8 1720.53  166.38
  -4  -4   8 1556.54  166.78
  -4  -4   8 1740.03  166.78
  -4  -4   8 1714.03  166.28
  -4  -4   8 1428.46  169.48
   4  -6   8 2021.50  205.48
   4  -6   8 2054.99  209.98
   4  -6   8 2153.48  204.88
  -4  -6   8 1918.71  204.78
  -4  -6   8 1838.22  209.98
  -4  -6   8 1998.50  205.68
   4  -8   8  627.34   71.39
   4  -8   8  554.64   65.49
  -4  -8   8  548.85   64.49
  -4  -8   8  724.33   66.19
  -4  -8   8  732.53   73.29
   4  -8  -8  636.34   65.99
   4 -10   8   81.69   11.80
  -4 -10   8  100.29   12.90
   4   1  -9   92.79   13.80
   4  -1   9   86.29   10.50
  -4   1   9   82.09   10.90
  -4   1   9  110.69   16.70
   4  -1   9   92.29   10.90
  -4   1   9  107.79   11.40
   4  -1   9   92.49   13.90
  -4  -1   9   86.59   10.90
  -4  -1   9   97.79   12.60
  -4  -1   9   96.09   11.10
   4   1   9   88.89   10.90
   4   1   9   70.09   14.50
   4  -1  -9   91.09   16.60
   4   1   9   98.09   10.90
   4  -3   9   57.79    8.40
  -4   3   9   60.89    7.20
   4  -3   9   77.39   12.00
  -4   3   9   64.19   17.10
   4  -3   9   56.29    7.70
  -4   3   9   61.39    8.90
  -4  -3   9   57.49    8.20
   4   3   9   72.09   19.30
   4   3   9   41.90   15.40
  -4  -3   9   45.90   11.80
  -4  -3   9   68.99    8.50
   4  -5   9   33.90    6.10
   4  -5   9   42.50    6.10
   4  -5   9   18.10    8.70
  -4  -5   9   53.19   13.10
  -4  -5   9   36.80    6.10
  -4  -5   9   31.60    7.40
   4  -7   9   16.30    4.20
  -4  -7  -9    9.70    7.40
   4  -7   9    7.30    5.50
   4  -7   9   14.30    9.70
  -4  -7   9   22.90    5.50
  -4  -7   9   20.90    6.30
  -4  -7   9    5.90   11.10
  -4  -9  -9    5.70    7.10
   4  -9   9   -1.00    5.10
  -4  -9   9  -17.30   16.60
   4  -9  -9    3.90    4.70
  -4  -9   9    6.90    6.10
  -4   0  10  194.28   21.30
  -4   0  10  217.38   21.60
   4   0  10  217.18   21.40
  -4   0  10  157.88   23.60
   4  -2  10   64.89    8.00
  -4   2  10   67.19    9.40
  -4   2  10   59.19    7.90
   4  -2  10   73.39    8.60
   4  -2  10   58.49   11.40
   4   2  10   63.59   16.00
  -4  -2  10   69.19    8.80
  -4  -2  10   47.20    8.10
   4   2  10   60.59    8.60
  -4  -2  10   56.19   13.50
   4  -4  10  267.47   26.90
  -4   4  10  250.07   26.20
   4  -4  10  254.97   27.00
  -4  -4  10  254.07   27.10
  -4  -4  10  214.98   31.50
  -4  -4  10  247.08   27.40
   4  -6  10   74.29    9.80
   4  -6  10   43.70   12.40
   4  -6  10   70.69    9.50
  -4  -6 -10   54.29   11.20
  -4  -6  10   76.49   10.10
  -4  -6  10   58.59    9.90
  -4  -6  10   88.69   17.80
  -4  -8 -10   48.10   10.10
   4  -8  10   30.70    8.60
  -4  -8 -10   40.50   13.00
   4  -8  10   29.60   11.90
  -4  -8  10   60.69   16.90
   4  -8 -10   55.59   10.10
  -4  -8  10   90.29   10.20
  -4  -8  10   59.69   10.20
   4  -1  11  121.69   14.70
   4  -1  11  120.69   14.80
  -4   1  11  121.99   15.60
  -4   1  11  141.59   14.60
  -4  -1  11  124.29   14.90
   4   1  11  112.99   14.80
  -4  -1  11  111.19   19.80
   4   1  11  131.09   14.90
  -4  -1  11  142.49   15.00
  -4   3  11  110.69   17.60
   4  -3  11   94.29   12.90
  -4   3  11   95.69   11.50
   4  -3  11  101.99   12.00
   4   3  11   90.99   22.90
  -4  -3  11  107.69   18.40
   4  -5  11   84.49   11.90
   4  -5  11   86.09   12.30
   4  -5  11   95.49   17.40
  -4  -5  11  100.49   18.90
  -4  -5  11   96.69   12.90
  -4  -5  11   97.39   12.40
  -4  -7 -11   57.69   12.30
   4  -7  11  109.79   12.10
   4  -7  11   71.59   10.50
   4  -7  11   45.80   14.90
  -4  -7  11   62.89   18.50
  -4  -7  11   92.19   11.20
  -4  -7  11   88.69   12.20
  -4  -9 -11   15.10    7.10
   4  -9  11   11.60    5.00
  -4  -9  11   16.60    7.30
   4  -9 -11   10.00    5.80
   4   0  12  774.72   80.49
   4   0  12  735.73   81.89
  -4   0  12  806.02   80.19
  -4   2  12  691.93   69.79
   4  -2  12  705.93   70.19
  -4   2  12  680.63   70.89
  -4  -2  12  686.63   70.59
  -4  -2  12  674.13   70.19
  -4  -2  12  594.04   74.39
   4  -4  12  619.04   66.19
   4  -4  12  696.63   66.39
  -4   4  12  591.64   65.49
   4  -4  12  593.34   69.79
  -4  -4  12  645.54   66.09
  -4  -4  12  608.84   71.69
  -4  -4  12  687.03   66.79
   4  -6  12  414.06   57.69
  -4  -6 -12  585.64   55.69
   4  -6  12  500.25   53.69
   4  -6  12  509.25   53.29
  -4  -6  12  436.66   59.59
  -4  -6  12  514.65   53.29
  -4  -6  12  581.74   54.79
  -4  -8 -12  160.48   21.20
   4  -8  12  134.99   18.50
  -4  -8  12  184.98   20.70
  -4  -8  12  166.08   18.20
   4  -8 -12  174.78   20.40
  -4   1  13   96.89   13.10
  -4   1  13   77.49   11.80
   4  -1  13  103.79   11.70
   4  -1  13   93.39   12.10
  -4  -1  13   89.79   12.00
  -4  -1  13   70.09   11.90
   4   1  13   82.69   12.10
   4   1  13   83.49   12.10
  -4   3  13   93.99   11.80
   4  -3  13   90.69   12.50
   4  -3  13   97.79   13.20
  -4  -3  13   93.09   19.20
  -4  -3  13  103.49   13.60
  -4  -3  13  105.39   13.60
   4  -5  13   38.80   12.40
   4  -5  13   63.59    9.10
  -4  -5 -13   52.49   11.00
   4  -5  13   51.89    8.30
  -4  -5  13   63.39    9.10
  -4  -5  13   75.59   17.60
  -4  -5  13   54.39   10.70
  -4  -7 -13   38.80   10.20
   4  -7  13   38.10    6.60
   4  -7  13   25.90    6.30
  -4  -7  13   37.00    6.70
  -4  -7  13   31.70    9.50
  -4   0  14    8.10    6.20
   4   0  14   21.50    5.70
  -4   0  14   14.10    6.90
   4   0  14   18.50    6.50
  -4   2  14  583.24   63.49
   4  -2  14  621.44   64.09
  -4   2  14  639.84   64.89
   4  -2  14  632.34   64.09
  -4  -2  14  542.65   64.29
  -4  -2  14  653.83   64.09
   4  -4  14  417.36   43.70
   4  -4  14  391.06   43.90
  -4  -4  14  409.96   43.80
  -4  -4  14  426.16   44.40
  -4  -6 -14   16.00    8.60
   4  -6  14   24.30    5.90
   4  -6  14   19.10    6.10
  -4  -6  14   33.60    7.10
  -4  -6  14   33.10    8.50
   4  -1  15   10.10    5.60
  -4   1  15    5.30    5.90
  -4   1  15    7.90    6.80
   4  -1  15    2.70    6.30
   4   1  15    5.60    7.40
  -4  -1  15   13.30    7.00
  -4  -1  15   13.20    7.20
   4  -3  15    8.80    6.70
  -4   3  15    4.70    4.20
   4  -3  15    2.30    5.00
  -4  -3  15   11.00    6.80
  -4  -3  15   10.00    7.00
   4  -5  15   -1.20    4.40
  -4  -5 -15    7.50    7.90
   4  -5  15   12.80    6.10
  -4  -5  15   10.80    6.40
  -4  -5  15   13.70    7.40
   4  -7  15    2.70    3.80
   4  -7  15   -3.30   10.00
  -4  -7 -15    7.80    7.60
  -4  -7  15    5.30    4.60
  -4  -7  15   -0.50    6.20
   4   0  16   26.40   11.80
  -4   0  16   42.80    9.90
  -4   0  16   52.59   11.00
   4  -2  16  401.86   41.90
  -4   2  16  379.16   40.90
   4  -2  16  374.86   41.40
  -4  -2  16  365.46   42.10
  -4  -2  16  419.26   42.10
  -4  -4 -16  323.07   35.90
   4  -4  16  286.17   34.00
  -4  -4  16  361.66   34.10
  -4  -4  16  275.67   34.40
   4  -6  16   39.50   14.30
  -4  -6 -16   97.69   13.70
  -4  -6  16   78.79   12.80
  -4  -6  16  112.49   13.60
  -4   1  17    5.70    5.90
   4  -1  17    8.60    8.60
  -4  -1 -17   11.70    6.60
  -4   1  17   13.10    7.60
   4   1  17  -23.50   31.80
  -4  -1  17   12.90    7.10
  -4  -1  17    8.10    6.80
  -4   1 -17   13.00    5.20
  -4  -3 -17   -1.40    6.90
   4  -3  17    1.80    4.60
   4  -3  17    6.70    6.70
  -4  -3  17    9.10    7.00
  -4  -3  17   -2.50    6.50
  -4  -5 -17   -2.40    7.80
  -4  -5  17   -4.80    7.90
  -4   0  18   79.39   11.10
  -4   0  18   90.29   12.40
  -4   0 -18   75.29   13.30
   4   0  18   25.60   30.60
  -4   2  18   14.50    5.60
  -4  -2 -18   19.20    8.00
   4  -2  18   22.30   10.90
  -4  -2  18   23.80    8.00
  -4  -2  18   37.50    8.30
  -5   1   0   46.10   10.20
   5   1   0   40.30    9.90
  -5  -1   0   61.89    6.90
   5  -1   0   71.99   11.70
  -5  -3   0  628.94   66.69
  -5  -3   0  539.05   62.09
   5   3   0  605.44   66.69
  -5   3   0  515.85   65.89
  -5  -3   0  647.64   60.59
  -5  -5   0  462.55   49.60
  -5  -5   0  441.26   49.90
  -5   5   0  491.95   65.69
   5  -5   0  489.45   59.89
  -5  -5   0  524.95   52.59
   5   5   0  461.95   57.89
  -5  -7   0  193.98   23.00
  -5  -7   0  216.48   21.80
  -5  -9   0   68.19    9.10
  -5  -9   0   53.39   13.60
  -5  -9   0   51.99    8.70
   5  -9   0   57.29   13.70
   5  -9   0   47.00    8.50
   5 -11   0  298.27   29.80
  -5 -11   0  249.97   29.80
   5   0   1   -0.40    3.50
  -5   0   1    0.50    3.70
  -5   0  -1    0.50    3.80
   5   0  -1    2.00    4.00
  -5   0   1    2.80    2.20
  -5  -2  -1  358.56   45.10
  -5  -2  -1  323.57   41.30
   5   2  -1  463.25   45.90
  -5  -2  -1  390.96   41.00
   5  -2  -1  400.86   46.00
  -5  -2   1  394.26   41.00
   5   2   1  456.15   46.30
   5  -4   1   88.59   13.10
   5  -4   1   59.09   15.40
   5   4  -1   92.09   16.20
  -5  -4  -1   71.39   11.80
  -5  -4  -1   82.39   15.80
  -5   4   1   58.39   14.40
  -5  -4  -1   63.79    9.70
  -5  -4   1   70.79    9.60
   5   4   1   75.69   16.70
  -5  -4   1   79.89    8.80
  -5   4  -1   69.19   14.70
  -5  -4   1  107.89   12.80
   5  -6   1   -2.20    6.50
   5   6  -1   -0.10    7.10
  -5  -6  -1   -3.40    3.90
  -5  -6  -1    7.60    6.90
  -5  -6  -1    3.80    3.40
  -5  -6   1   -1.70    3.10
  -5  -6   1    1.10    3.70
  -5  -6   1    2.60    2.20
  -5   6  -1    8.70    7.40
  -5  -6   1    0.70    6.40
   5   6   1  -16.10   10.50
   5   6   1   -0.90    9.10
  -5  -8  -1    6.00    8.90
   5  -8   1    3.30    7.70
  -5  -8  -1   -3.40    4.20
   5  -8   1   -0.90    4.70
  -5  -8   1   -9.50    7.10
  -5  -8   1   -0.10    3.90
  -5  -8   1    1.30    4.00
   5  -8  -1    4.30    8.00
   5 -10   1    9.90    5.30
   5 -10   1   10.30    8.50
  -5 -10  -1   18.10   10.30
  -5 -10  -1    4.00    4.60
  -5 -10   1   10.10    9.90
   5 -10  -1   14.10    5.70
  -5 -10   1    3.50    5.00
   5 -10  -1    1.70    7.90
  -5  -1  -2  267.87   34.60
  -5  -1  -2  325.57   31.10
   5   1  -2  310.47   35.00
  -5  -1   2  255.97   31.60
   5  -1  -2  344.17   36.10
  -5  -1   2  287.57   31.20
  -5  -1   2  303.27   35.10
   5  -3   2 2701.53  285.27
   5  -3   2 2961.20  289.37
  -5  -3  -2 2728.33  290.07
  -5   3   2 2856.51  290.37
   5   3  -2 2950.10  289.37
  -5  -3  -2 2632.74  284.87
  -5  -3   2 2909.51  288.97
   5  -3  -2 2807.12  290.87
   5   3   2 2424.06  289.07
   5  -5   2  108.19   13.50
   5  -5   2  128.89   21.40
  -5  -5  -2  158.18   17.50
   5   5  -2  103.49   20.40
   5  -5   2   95.59   17.60
  -5   5   2  101.69   23.40
  -5  -5   2  146.49   14.40
  -5  -5   2  129.79   13.30
   5   5   2   77.09   20.00
  -5   5  -2  112.59   20.30
   5  -5  -2  127.29   23.50
  -5  -5   2  103.59   19.70
  -5  -5   2  111.79   16.90
  -5  -7  -2  172.28   17.70
   5  -7   2  151.78   17.60
   5  -7   2  129.29   22.40
  -5  -7   2  130.79   17.50
  -5  -7   2  165.78   16.30
  -5  -7   2  140.29   17.30
  -5  -7   2  162.18   22.70
  -5  -9  -2   16.90    5.70
   5  -9   2    4.80    5.20
  -5  -9  -2   11.90    5.20
  -5  -9  -2   10.20    8.80
   5  -9   2    6.10    8.70
  -5  -9   2   11.90    5.00
  -5  -9   2   13.80    9.60
   5  -9  -2    8.50    9.70
  -5 -11  -2    2.90    4.10
   5 -11   2    7.90    4.20
  -5 -11   2   12.30    5.10
   5 -11  -2   13.30    5.30
  -5   0   3    0.40    2.10
  -5   0   3    1.00    2.90
  -5   0  -3   -3.10    2.40
   5   0   3    0.70    2.80
  -5   0  -3   -0.10    0.80
   5   0  -3   -1.50    2.80
  -5   0   3   -2.20    2.50
   5   0   3   -3.30    4.70
   5   2  -3  143.39   20.30
   5  -2   3  164.88   20.00
  -5  -2  -3  170.68   22.00
  -5   2   3  145.19   21.60
   5  -2   3  152.98   16.10
  -5   2   3  137.69   16.20
   5  -2   3  169.08   16.90
  -5  -2   3  142.29   24.10
  -5  -2   3  124.59   17.50
   5  -2  -3  163.68   22.90
  -5  -2   3  173.78   16.90
  -5   2  -3  164.58   20.00
  -5  -2   3  139.59   16.00
   5   4  -3  259.77   32.60
   5  -4   3  237.08   29.00
  -5  -4  -3  250.87   27.00
   5  -4   3  271.27   25.80
  -5  -4   3  277.67   29.40
  -5   4  -3  257.57   32.40
   5  -4  -3  197.98   34.10
   5   4   3  200.78   32.70
  -5  -4   3  247.18   26.20
   5  -6   3   65.89    8.50
   5  -6   3   69.49   13.90
  -5  -6  -3   67.09    9.50
  -5  -6  -3   54.29   11.70
  -5   6   3   70.79   20.60
  -5  -6   3   47.20    6.60
  -5  -6   3   55.89    8.30
  -5  -6   3   33.40   10.90
  -5  -6   3   61.69    8.00
   5   6   3   32.30   12.90
   5  -8   3  130.69   14.80
  -5  -8  -3  128.89   15.60
  -5  -8  -3   88.69   14.80
  -5  -8  -3  121.99   20.80
   5  -8   3   78.89   18.90
  -5  -8   3  130.89   14.40
  -5  -8   3  134.19   15.00
  -5  -8   3  129.19   21.30
   5  -8  -3  122.29   20.70
   5 -10   3    4.20    8.30
   5 -10   3    2.80    4.70
  -5 -10  -3   10.40    9.00
  -5 -10  -3   -0.40    4.70
  -5 -10  -3    0.30    4.50
  -5 -10   3    4.20    5.10
   5 -10  -3    1.00    8.50
  -5 -10   3    7.80    9.00
   5 -10  -3    0.10    5.40
  -5   1   4  874.51   85.79
  -5   1   4  727.33   80.19
   5  -1   4  782.32   80.39
  -5  -1  -4  728.73   84.09
  -5  -1   4  742.73   81.39
  -5  -1   4  867.01   84.69
  -5   1  -4  892.81   83.69
   5   1   4  700.03   83.99
  -5  -1   4  758.32   80.09
   5  -1  -4  756.22   85.29
   5   3  -4   49.50   11.00
   5  -3   4   46.80    5.80
   5  -3   4   58.69    6.10
   5  -3   4   36.20    9.50
   5  -3   4   51.69    8.30
  -5  -3  -4   37.80   10.80
  -5   3   4   48.30   12.00
  -5  -3   4   42.80    7.10
  -5  -3   4   68.79   11.50
  -5  -3   4   53.19    9.20
   5  -3  -4   45.50   12.50
  -5   3  -4   62.59   10.10
   5   3   4   43.70   11.20
  -5  -3   4   51.99    6.70
  -5  -3   4   49.00    6.30
   5  -5   4  128.39   13.90
   5  -5   4  129.09   18.10
  -5  -5  -4  152.88   15.50
   5  -5   4  110.79   12.90
  -5   5   4   79.69   20.70
   5   5  -4   71.39   24.50
   5   5   4  173.38   28.20
   5  -5  -4  161.58   27.20
  -5  -5   4  103.29   17.40
  -5   5  -4  124.69   20.40
   5   5   4   89.99   21.20
  -5  -5   4  123.99   13.70
  -5  -5   4  157.98   24.00
  -5  -5   4  130.19   14.50
  -5  -7  -4   27.10    7.60
  -5  -7  -4   29.40   10.90
   5  -7   4   40.80   11.80
   5  -7   4   47.60    7.40
  -5  -7   4   48.70   12.90
  -5  -7   4   43.50    5.80
  -5  -7   4   33.60    6.60
   5  -9   4   32.10    6.00
   5  -9   4    3.90    9.10
  -5  -9  -4   44.90    7.30
  -5  -9  -4   20.20    6.80
  -5  -9  -4   18.90   10.10
   5  -9  -4   28.60   11.40
  -5  -9   4   36.80   12.70
  -5  -9   4   15.00    5.80
   5 -11   4   78.49   10.00
  -5 -11   4   69.49   10.50
   5 -11  -4   71.29   10.70
  -5   0   5   -1.50    1.50
  -5   0   5   -1.30    2.30
  -5   0   5   -0.70    2.60
  -5   0  -5   -3.30    2.50
   5   0  -5   -0.10    3.20
   5   0   5    1.90    2.40
   5   0   5   -2.20    1.90
  -5   0   5    1.60    2.80
   5  -2   5  357.16   38.40
  -5  -2  -5  379.96   44.60
  -5   2   5  394.86   38.30
  -5   2   5  357.76   38.70
   5   2  -5  323.97   42.30
   5  -2   5  390.86   41.60
   5  -2   5  353.56   39.30
  -5  -2   5  336.47   40.40
  -5  -2   5  341.27   38.50
  -5  -2   5  421.36   39.10
  -5  -2   5  379.06   42.70
  -5  -2   5  347.67   38.60
   5   2   5  417.26   45.00
   5  -2  -5  455.55   47.30
  -5   2  -5  364.66   41.20
   5  -4   5    0.90    1.90
  -5  -4  -5    4.40    4.10
   5   4  -5   -5.40    3.50
  -5   4   5   -2.40    5.40
   5  -4   5    2.30    4.70
   5  -4   5    2.00    2.00
  -5  -4   5   -1.90    3.40
   5  -4  -5    0.20    6.90
  -5  -4   5    3.10    2.60
  -5  -4   5    2.70    5.50
  -5   4  -5    0.50    4.00
   5   4   5    6.50    7.00
  -5  -4   5   -3.10    4.20
   5  -6   5   15.80    4.40
   5  -6   5    3.80    7.70
  -5  -6  -5   20.10    6.50
   5  -6   5    9.80    2.60
  -5  -6   5   11.30    4.30
  -5  -6   5    7.70    8.10
  -5  -6   5   11.60    4.60
  -5  -6   5   17.40    3.50
   5  -8   5   50.59    7.90
  -5  -8  -5   46.00   13.50
   5  -8   5   39.00   12.30
  -5  -8   5   50.99   13.90
  -5  -8   5   37.70    7.60
  -5 -10  -5    2.50    4.80
  -5 -10  -5   14.60    5.10
   5 -10   5   -4.00    4.00
  -5 -10   5    8.80    5.70
   5 -10  -5   10.50    9.50
  -5 -10   5    0.20   12.80
  -5   1   6   38.90   10.40
   5  -1   6   31.90    7.30
   5  -1   6   50.79    7.40
   5   1  -6   44.20    9.60
  -5   1   6   42.20    5.70
   5  -1   6   41.90    6.00
  -5   1   6   49.10    6.00
  -5  -1  -6   36.20    9.10
  -5  -1   6   43.10    6.70
  -5  -1   6   54.09    6.00
  -5  -1   6   46.80    9.40
   5   1   6   49.20    6.30
  -5   1  -6   41.60    7.90
   5   1   6   58.69   11.30
  -5  -1   6   41.10    6.10
   5  -1  -6   29.50    9.30
  -5  -1   6   62.99    9.50
   5  -3   6 2073.09  203.18
  -5   3   6 2104.59  212.48
   5  -3   6 2047.40  206.48
   5   3  -6 1866.71  207.68
  -5   3   6 1926.61  202.88
   5   3   6 1877.21  218.88
   5  -3  -6 1930.21  213.38
  -5  -3   6 2189.58  203.98
  -5   3  -6 2055.49  205.78
  -5  -3   6 1809.42  205.38
  -5  -3   6 1928.91  207.58
   5  -5   6  131.09   18.90
   5  -5   6  147.09   15.20
   5  -5   6  124.99   14.70
  -5   5   6   93.99   24.50
   5   5  -6  142.29   31.20
  -5  -5   6  140.19   16.10
  -5  -5   6  136.09   19.90
  -5  -5   6  155.68   15.00
  -5  -5   6  125.19   15.40
  -5   5  -6  128.49   20.40
   5   5   6  147.69   31.60
   5  -7   6  227.58   27.00
  -5  -7  -6  234.18   26.70
  -5  -7  -6  140.99   21.90
   5  -7   6  219.18   21.00
  -5  -7   6  173.28   19.80
  -5  -7   6  170.48   20.30
  -5  -7   6  237.68   28.40
  -5  -7   6  138.29   20.40
   5  -9   6   41.10   12.20
   5  -9   6   34.20    7.20
  -5  -9  -6   43.00    7.70
  -5  -9  -6   79.19   10.80
  -5  -9   6   23.80   11.90
  -5  -9   6   51.59    8.30
   5  -9  -6   43.00   14.00
  -5 -11  -6    4.30    8.00
   5 -11   6    4.00    3.90
  -5 -11  -6    3.80    4.10
  -5 -11   6    9.30    4.50
   5 -11  -6   10.10    5.50
   5   0  -7    1.90    4.70
  -5   0   7   -0.50    2.40
  -5   0   7    0.90    3.80
  -5   0  -7   -2.50    2.50
   5   0   7    0.60    2.70
  -5   0   7   -0.40    2.20
   5   0   7    4.20    1.90
  -5   0   7    0.00    4.60
   5   0   7   -0.20    2.50
  -5   2   7    9.90    2.40
   5  -2   7    9.90    2.10
   5  -2   7    7.40    4.50
   5   2  -7    6.80    4.80
  -5   2   7   11.30    3.70
  -5   2   7    3.30    5.30
   5  -2   7    9.50    3.10
  -5  -2   7    9.10    3.40
  -5  -2   7    6.30    3.80
   5   2   7    5.10    5.00
  -5  -2   7    4.80    5.80
   5  -2  -7   13.10    8.40
  -5  -2   7    7.00    4.40
  -5  -2   7   12.60    2.90
   5   2   7    7.60    9.10
   5   4  -7   54.39   11.60
   5  -4   7   50.39    6.70
   5  -4   7   36.40    9.40
   5  -4   7   47.00    6.50
  -5   4   7   30.50   12.20
  -5  -4   7   49.40    6.80
   5   4   7   68.09   19.10
  -5  -4   7   50.69   11.10
  -5  -4   7   52.19    7.90
  -5  -4   7   58.59    7.20
  -5  -4   7   65.09   11.90
   5  -6   7   17.10    9.00
   5  -6   7   17.90    3.60
  -5  -6  -7   15.50   10.00
   5  -6   7   19.30    4.90
  -5  -6   7    0.30    8.60
  -5  -6   7   19.40    5.20
  -5  -6   7   14.60    4.20
  -5  -6   7   12.70    4.80
   5  -8   7   33.80    6.80
  -5  -8  -7   36.10    9.20
  -5  -8  -7   28.10   10.80
   5  -8   7   38.40   12.70
  -5  -8   7   26.50   12.10
  -5  -8   7   37.70    5.70
  -5  -8   7   27.50    7.00
   5  -8  -7   20.60    6.20
   5 -10   7   -2.10    3.90
  -5 -10  -7    4.80    5.00
  -5 -10  -7    0.70    4.40
  -5 -10   7    2.50    5.80
   5  -1   8  101.59   11.90
  -5   1   8   84.89   16.30
   5  -1   8  100.59   11.40
  -5   1   8  113.49   12.20
   5   1  -8   90.59   15.70
  -5   1   8  115.89   11.70
  -5  -1   8   99.29   15.60
  -5  -1   8  108.69   11.80
   5   1   8   94.99   17.10
  -5  -1   8  101.49   15.40
   5  -1  -8  104.69   19.00
   5   1   8  112.99   12.00
  -5  -1   8  108.69   12.00
   5   1   8   98.39   17.00
   5   1   8   97.59   11.60
   5  -3   8  351.16   36.90
  -5   3   8  349.37   37.50
  -5   3   8  343.27   46.40
  -5   3   8  383.46   36.60
   5  -3   8  366.56   39.10
   5  -3   8  353.16   37.00
   5   3  -8  326.47   40.40
   5   3   8  277.57   45.70
  -5  -3   8  368.86   37.70
   5  -3  -8  385.56   49.00
  -5  -3   8  366.06   37.30
  -5  -3   8  372.26   40.60
  -5  -3   8  360.86   37.10
  -5  -3   8  326.17   40.10
  -5  -5  -8  913.71   87.39
   5  -5   8  793.52   85.69
   5  -5   8  803.32   85.89
  -5  -5   8  792.32   86.29
  -5  -5   8  915.91   86.39
  -5  -5   8  791.62   85.69
   5  -7   8   18.60    5.50
  -5  -7  -8   20.40    8.10
   5  -7   8   26.50   10.90
  -5  -7   8   19.20    7.00
  -5  -7   8   30.10   12.70
  -5  -7   8   20.30    5.40
  -5  -9  -8  116.39   13.80
  -5  -9  -8  109.59   18.90
  -5  -9  -8  115.09   16.20
   5  -9   8   91.99   13.50
  -5  -9   8  128.79   21.50
   5  -9  -8   97.39   13.70
  -5  -9   8  105.59   14.60
   5   0   9    2.90    3.40
  -5   0   9   -0.20    4.80
  -5   0   9    1.90    3.20
   5   0  -9    4.60    6.60
   5   0   9    0.40    2.40
  -5   0   9    0.50    2.80
   5   0   9    0.40    3.10
   5  -2   9    8.50    3.70
  -5   2   9    2.20    3.00
  -5   2   9    6.00    4.30
   5  -2   9   11.40    5.60
   5   2  -9    1.70    5.90
   5  -2   9    7.50    2.40
  -5   2   9   13.40    8.00
  -5  -2   9    3.70    4.10
  -5  -2   9   13.40    7.90
   5  -2  -9    5.60    7.70
   5   2   9    3.00    6.20
   5   2   9    0.40    7.20
  -5  -2   9    5.60    3.50
  -5  -2   9   10.10    3.80
   5  -4   9   15.20    4.60
   5  -4   9   15.60    7.10
   5  -4   9   16.40    3.90
  -5  -4   9    3.20    8.00
  -5  -4   9   14.90    4.50
  -5  -4   9   15.00    4.50
   5  -6   9   -2.30    3.90
  -5  -6  -9    7.90    6.60
   5  -6   9    2.60    3.90
   5  -6   9    3.60    7.40
  -5  -6   9    1.60    4.60
  -5  -6   9    6.10    5.80
  -5  -6   9    4.30    9.20
   5  -8   9   -2.90    7.60
   5  -8   9   -1.80    4.90
  -5  -8  -9    4.70    7.50
  -5  -8  -9    0.30    7.10
  -5  -8   9    6.60   10.40
  -5  -8   9    7.30    6.30
  -5  -8   9   13.20    4.50
  -5 -10  -9    6.80    9.10
  -5 -10  -9   -4.10    5.70
   5 -10   9    1.80    3.50
  -5 -10   9    2.60    4.80
   5   1 -10  124.99   18.40
  -5   1  10  122.89   14.50
   5  -1  10  131.79   14.30
  -5   1  10  113.59   15.20
  -5   1  10  111.49   21.30
   5  -1  10  123.29   14.70
   5   1  10  103.59   19.10
   5   1  10  126.29   14.80
  -5  -1  10  134.19   14.80
  -5  -1  10  139.59   14.90
   5  -1 -10  134.59   30.90
  -5  -1  10  144.89   17.20
   5   1  10  137.79   15.90
  -5   3  10  169.38   17.00
   5  -3  10  154.78   20.60
  -5   3  10  147.79   18.40
   5  -3  10  149.29   17.80
   5  -3  10  164.38   17.40
  -5  -3  10  162.58   18.00
  -5  -3  10  141.39   22.50
  -5  -3  10  154.68   17.90
  -5  -5 -10    6.40    6.40
   5  -5  10   16.00    4.80
   5  -5  10    4.90    7.20
   5  -5  10   15.90    4.70
  -5  -5  10   11.20    5.10
  -5  -5  10   19.80   11.10
  -5  -5  10   11.60    5.20
   5  -7  10  178.28   23.80
  -5  -7 -10  195.58   25.90
   5  -7  10  210.28   23.20
   5  -7  10  204.48   28.70
  -5  -7  10  246.88   25.10
  -5  -7  10  244.18   23.60
  -5  -9 -10   17.10    8.00
   5  -9  10    0.00    4.30
  -5  -9  10   13.40    4.30
   5  -9 -10    6.30    4.70
  -5  -9  10   10.20    7.00
  -5   0  11    5.90    4.70
   5   0  11   -2.10    4.20
  -5   0  11    0.10    4.10
   5   0  11   -3.30    3.10
  -5   2  11   10.00    4.00
   5  -2  11   15.80    4.80
  -5   2  11   21.00    6.10
   5  -2  11   13.60    3.60
  -5  -2  11   12.40    4.80
  -5  -2  11    8.40    8.80
   5   2  11   12.00    8.70
  -5  -2  11   12.20    5.40
   5  -4  11   22.90    8.60
   5  -4  11   12.70    4.20
   5  -4  11    9.30    5.00
  -5  -4  11   10.30   10.20
  -5  -4  11   11.70    5.80
  -5  -4  11   18.50    5.60
   5  -6  11    1.60    5.00
   5  -6  11    6.40    4.50
  -5  -6 -11   11.80    7.80
  -5  -6  11    6.80    6.50
  -5  -6  11   10.30    5.70
  -5  -6  11   10.50   10.70
  -5  -8 -11   16.90    7.90
   5  -8  11    2.50    4.60
  -5  -8  11   21.00    5.00
  -5  -8  11   16.80    7.40
  -5   1  12   82.19   11.10
   5  -1  12   59.69    8.80
  -5   1  12   76.89    9.10
   5  -1  12   58.39    9.50
   5   1  12   67.49    9.70
  -5  -1  12   58.69    9.60
  -5  -1  12   63.49    9.60
   5  -3  12  146.99   23.20
   5  -3  12  173.28   19.90
  -5   3  12  176.38   20.90
   5  -3  12  187.18   19.20
  -5  -3  12  154.68   20.10
  -5  -3  12  169.18   25.40
  -5  -3  12  186.68   20.00
   5  -5  12  196.78   29.10
   5  -5  12  234.98   25.40
   5  -5  12  244.78   25.10
  -5  -5 -12  165.68   26.60
  -5  -5  12  243.38   26.40
  -5  -5  12  237.38   25.10
  -5  -5  12  288.47   33.80
  -5  -7 -12   49.30   10.10
   5  -7  12    8.70    6.00
   5  -7  12   15.90    5.60
  -5  -7  12   45.10    6.80
  -5  -7  12   19.40   13.40
  -5  -7  12   28.60    8.80
  -5   0  13   -4.50    4.90
  -5   0  13    0.50    5.10
   5   0  13    6.70    4.50
   5   0  13   -4.20    5.10
   5  -2  13   14.70    7.20
  -5   2  13   31.80    5.60
   5  -2  13   29.20    7.00
  -5   2  13   30.40    7.60
   5   2  13    0.70   19.60
  -5  -2  13   14.30    6.60
  -5  -2  13   36.30   12.60
  -5  -2  13   30.50    7.10
  -5  -4 -13    7.30    7.30
   5  -4  13    7.80    5.90
   5  -4  13   15.30    9.20
   5  -4  13    7.60    4.10
  -5  -4  13    8.70    6.20
  -5  -4  13   10.00    6.20
  -5  -4  13   10.30    9.80
   5  -6  13    6.70    5.40
  -5  -6 -13   10.40    8.00
   5  -6  13   14.50    4.80
  -5  -6  13   12.80    5.90
  -5  -6  13    9.00    8.20
  -5  -8 -13    7.20    6.80
   5  -8  13    3.00    3.60
   5  -8 -13   14.10    7.50
  -5  -8  13    8.10    5.90
   5  -1  14   49.50    9.30
  -5   1  14   61.49    8.60
   5  -1  14   53.39    8.20
  -5   1  14   47.00    9.60
  -5  -1  14   41.50    8.80
   5   1  14   46.70   10.90
  -5  -1  14   49.80    9.00
   5  -3  14  303.67   33.80
   5  -3  14  296.87   33.20
  -5   3  14  302.37   32.70
  -5  -3  14  335.57   34.10
  -5  -3  14  310.97   33.90
   5  -5  14   19.00    6.70
  -5  -5 -14   16.20    9.00
   5  -5  14   21.30    6.20
  -5  -5  14   20.20   12.40
  -5  -5  14   26.80    7.20
  -5  -5  14   28.50    8.40
   5  -7  14    7.80    4.20
  -5  -7 -14   17.30    7.90
   5  -7  14   -5.80   15.90
  -5  -7  14   11.80    6.80
  -5  -7  14    7.90    4.60
   5   0  15   -0.80    7.70
  -5   0  15    1.30    6.50
  -5   0  15    8.20    6.10
  -5   2  15   -0.90    7.90
  -5   2  15    4.40    4.60
   5  -2  15    8.90    4.90
   5  -2  15   -0.40    6.70
  -5  -2  15   -4.30    7.20
  -5  -2  15    4.60    6.10
   5  -4  15    1.10    4.30
   5  -4  15   -3.00    5.90
  -5  -4 -15   -2.00    7.80
  -5  -4  15   -6.10    6.50
  -5  -4  15    4.40   10.20
  -5  -4  15    8.90    6.90
   5  -6  15   -3.90    7.70
  -5  -6 -15   -1.70    7.10
  -5  -6  15    3.80    5.50
  -5  -6  15   -2.10    6.90
   5  -1  16   45.00    9.60
  -5  -1 -16   39.10    9.10
  -5   1  16   50.99    8.20
   5  -1  16   54.49   10.50
  -5   1  16   49.00   10.20
  -5   1 -16   34.60    7.90
   5   1  16   24.90   35.50
  -5  -1  16   47.90    9.40
  -5  -1  16   51.99    9.20
  -5  -3 -16  155.58   20.10
   5  -3  16  114.99   16.90
  -5   3  16  143.09   16.40
   5  -3  16  158.58   18.70
  -5  -3  16  139.99   18.50
  -5  -3  16  196.98   18.90
  -5  -5 -16   72.89   11.50
   5  -5  16   27.20    9.10
  -5  -5  16   38.80    8.80
   5   0  17  -26.30   31.30
  -5   0  17    9.90    6.00
  -5   0 -17   11.10    5.70
  -5   0  17    2.20    6.10
  -5   2  17   -0.70    4.50
   5  -2  17    9.50   10.60
  -5  -2 -17   -6.00    6.50
  -5  -2  17    2.80    7.70
  -5  -2  17    4.10    7.20
  -5  -4 -17    7.20    7.30
   5  -4  17    4.30   10.70
  -5  -4  17    0.70    6.30
  -5  -4  17    0.70    6.40
   5  -1  18    5.50   35.50
  -5   1  18   28.10    6.20
  -5  -1  18   20.50    7.10
  -5  -1  18   22.80    7.40
  -5  -3 -18   24.70    8.20
  -5  -3  18    3.90   10.00
  -6   0   0  775.02   77.49
   6   0   0  652.43   72.29
  -6   2   0  322.77   41.00
  -6  -2   0  399.46   36.40
  -6  -2   0  357.86   41.50
   6  -2   0  287.67   40.50
   6   4   0 1309.17  136.49
  -6  -4   0 1417.16  136.99
  -6  -4   0 1085.49  128.09
  -6  -6   0  587.94   60.09
  -6  -6   0  573.34   57.09
   6  -6   0  459.25   59.39
  -6  -8   0  245.98   23.00
   6  -8   0  226.68   23.00
  -6  -8   0  199.08   23.30
  -6  -8   0  153.18   27.10
   6  -8   0  168.68   27.50
  -6 -10   0  177.58   19.60
  -6 -10   0  138.99   27.60
  -6 -10   0  200.58   20.40
   6 -10   0  163.38   20.10
   6  -1   1   15.40    6.10
  -6   1   1   15.80    6.70
  -6  -1  -1   19.10    7.00
  -6  -1  -1   19.60    3.60
  -6  -1  -1   21.10    3.20
   6   1  -1   22.00    6.60
   6  -1   1   17.10    2.90
  -6  -1   1   28.60    3.90
  -6  -1   1   19.80    7.30
  -6   1  -1   17.40    6.20
  -6  -1   1   21.10    3.90
   6  -1  -1   31.20    8.90
   6   1   1   22.50    7.20
  -6  -3  -1  168.18   19.60
   6  -3   1  187.98   26.20
  -6  -3  -1  217.28   26.90
  -6  -3  -1  188.48   20.50
  -6   3   1  170.88   26.00
   6   3  -1  198.68   26.40
  -6  -3  -1  193.08   21.50
  -6  -3   1  221.88   20.70
  -6   3  -1  155.18   25.30
  -6  -3   1  171.48   19.60
   6   3   1  166.08   25.80
   6  -3  -1  250.37   28.90
  -6  -3   1  192.98   26.00
  -6  -5  -1    3.70    5.50
   6   5  -1   -1.90    6.00
  -6  -5  -1    8.20    7.30
   6  -5   1    0.00    5.70
   6  -5   1    5.30    5.80
  -6  -5  -1    1.80    3.70
  -6   5  -1    2.10    5.70
  -6  -5   1    3.00    5.50
   6  -5  -1   14.50   10.40
   6   5   1    7.30    7.50
  -6  -5   1    0.20    3.50
  -6  -5   1    0.20    2.40
  -6  -5   1   -4.70    4.80
  -6  -7  -1   -0.30    3.60
   6  -7   1   -1.70    3.90
  -6  -7  -1    3.60    7.20
   6  -7   1   -0.90    7.40
  -6  -7  -1   -1.80    4.40
  -6  -7   1    0.50    3.30
   6  -7  -1   -5.40    6.00
  -6  -7   1   -1.00    7.20
  -6  -7   1   -2.70    4.20
  -6  -7   1   -2.00    2.30
  -6  -9  -1   -1.20    4.60
   6  -9   1   -6.40    6.60
   6  -9   1    0.60    4.80
  -6  -9  -1    2.50    4.50
  -6  -9  -1    8.40    9.50
  -6  -9   1   -1.00    4.10
  -6  -9   1    2.30    4.30
   6  -9  -1   -1.40    5.00
   6  -9  -1   -5.90    7.00
  -6  -9   1   -7.80    7.20
   6 -11   1   -1.20    3.80
  -6 -11  -1    2.80    4.30
  -6 -11   1   -1.40    4.50
   6 -11  -1   -2.50    4.50
  -6   0   2  181.68   18.80
  -6   0   2  160.68   17.90
  -6   0  -2  175.98   22.60
   6   0  -2  176.18   30.40
  -6   0   2  152.68   22.50
   6  -2   2  173.68   26.30
  -6   2   2  243.28   29.00
   6   2  -2  232.78   28.00
  -6  -2  -2  225.88   28.40
  -6  -2  -2  180.48   22.80
  -6  -2  -2  237.18   23.40
   6   2   2  224.68   28.60
  -6  -2   2  210.28   22.80
   6  -4   2   40.60   11.90
  -6  -4  -2   24.20    5.10
   6   4  -2   23.00    9.60
   6  -4   2   10.20    3.20
  -6  -4  -2    3.20    8.10
   6  -4   2   19.50    7.50
  -6  -4  -2   19.00    6.20
  -6   4   2    9.10    6.10
  -6  -4   2   23.10    5.00
   6   4   2   18.80    9.10
  -6   4  -2   29.00    9.40
  -6  -4   2   19.90    6.50
  -6  -4   2   12.20    2.90
  -6  -4   2   13.30    6.40
   6  -4  -2   19.60   10.00
  -6  -6  -2  527.75   47.30
  -6  -6  -2  419.06   49.40
  -6  -6   2  481.05   50.19
  -6  -6   2  432.36   46.80
   6   6   2  370.96   58.89
   6   6   2  361.16   56.19
  -6  -8  -2   13.30    5.70
  -6  -8  -2   10.10    5.00
  -6  -8  -2   15.10    9.30
   6  -8   2   14.80    5.10
   6  -8   2   13.20    8.90
  -6  -8   2   11.90    4.70
  -6  -8   2    6.60    4.70
  -6  -8   2   10.30    9.20
   6  -8  -2   16.90    8.90
  -6 -10  -2   14.60    5.00
  -6 -10  -2   -1.40    8.20
   6 -10   2   15.00    7.90
   6 -10   2   19.90    5.30
  -6 -10  -2    8.40    4.90
  -6 -10   2   26.30   10.90
   6 -10  -2   10.40    8.20
   6 -10  -2   14.80    6.00
  -6 -10   2    7.60    5.00
  -6  -1  -3   33.50    5.00
   6  -1   3   50.09    4.80
  -6  -1  -3   43.60    5.30
  -6   1   3   33.60    5.80
  -6   1   3   51.79    5.40
  -6   1   3   61.49   11.20
   6  -1   3   47.90    9.60
   6   1  -3   41.10    9.60
  -6  -1  -3   38.60   10.10
  -6  -1  -3   36.70    5.80
   6  -1  -3   46.60   10.40
  -6  -1   3   47.70    7.10
  -6  -1   3   30.50    4.90
   6   1   3   64.29   10.90
  -6  -1   3   41.20    9.90
  -6   1  -3   52.29    9.80
  -6  -1   3   42.80    5.80
   6  -3   3    0.20    5.20
  -6   3   3    2.40    4.00
   6   3  -3    7.50    5.70
  -6  -3  -3    0.70    3.40
   6  -3   3   -0.10    3.10
  -6  -3  -3    6.70    5.60
   6  -3   3    2.90    4.10
  -6  -3  -3    1.30    3.40
  -6   3  -3    8.10    5.20
   6   3   3    1.60    4.70
  -6  -3   3    0.50    3.00
  -6  -3   3    2.80    2.00
  -6  -3   3    2.80    5.80
   6  -3  -3   -3.00    5.90
  -6  -3   3    0.90    4.20
  -6  -5  -3   11.50    6.40
  -6   5   3   -2.50    8.10
   6  -5   3    5.90    6.40
  -6  -5  -3   15.30    5.20
   6   5  -3   -2.10    6.10
   6  -5   3   11.00    3.50
  -6  -5   3   13.30    4.80
   6  -5  -3    5.60    9.70
  -6  -5   3    9.80    6.90
  -6  -5   3   13.10    3.30
  -6  -5   3   18.50    3.70
   6   5   3    4.20    6.40
  -6  -7  -3    4.20    4.20
  -6  -7  -3    0.30    5.20
  -6  -7  -3   -6.70    6.70
   6  -7   3    7.20    4.60
   6  -7   3   -1.60    6.60
  -6  -7   3    8.80    8.40
  -6  -7   3    3.30    3.00
  -6  -7   3   -2.60    3.80
  -6  -7   3    3.20    5.40
   6  -9   3    0.00    4.50
  -6  -9  -3   -0.90    4.70
  -6  -9  -3   -1.40    4.80
   6  -9   3   -4.10    6.90
  -6  -9  -3    3.20    8.50
  -6  -9   3   -1.70    2.90
  -6  -9   3   -1.40    4.50
  -6  -9   3    7.00    9.30
   6  -9  -3    0.10    8.00
   6 -11   3    9.50    4.30
  -6 -11  -3   19.70    4.90
  -6 -11   3   21.30    5.70
   6 -11  -3   21.30    5.30
  -6   0   4   26.90    8.60
  -6   0   4   30.10    6.10
   6   0  -4   18.50    6.90
  -6   0  -4   28.40    4.50
  -6   0   4   31.30    4.80
  -6   0  -4   27.60    7.10
  -6   0   4   30.10    3.90
   6  -2   4   47.60    5.70
   6   2  -4   53.59   10.80
   6  -2   4   50.49    9.50
   6  -2   4   48.30    6.30
  -6  -2  -4   34.00    9.50
  -6   2   4   52.99   12.40
  -6   2   4   38.20    5.90
  -6  -2  -4   48.10    6.80
  -6  -2   4   29.70    5.40
  -6  -2   4   69.19    9.10
  -6   2  -4   59.69   10.30
  -6  -2   4   47.50    6.80
   6  -2  -4   42.00   11.00
   6   2   4   30.60    8.90
   6  -4   4   44.90    6.10
  -6  -4  -4   41.70   12.40
  -6   4   4   43.60   12.70
   6  -4   4   56.09    6.30
   6  -4   4   66.49   10.10
  -6  -4  -4   38.00    7.70
   6  -4   4   56.09   13.20
   6   4  -4   59.79   13.80
  -6   4  -4   49.00   11.30
  -6  -4   4   39.90    9.00
   6  -4  -4   51.29   13.80
  -6  -4   4   77.59   15.70
  -6  -4   4   60.29    6.60
   6   4   4   29.80   10.30
  -6  -4   4   37.90    7.30
  -6  -4   4   49.90    6.70
  -6  -6  -4  130.19   17.80
  -6   6   4   89.79   28.30
  -6  -6  -4  147.59   20.60
   6  -6   4  170.48   21.80
  -6  -6   4  138.99   15.70
   6   6   4  173.48   47.50
  -6  -6   4  159.58   16.50
  -6  -8  -4   59.69   13.90
   6  -8   4   33.50   11.00
   6  -8   4   58.09    8.00
  -6  -8  -4   53.19    7.90
  -6  -8  -4   51.69    9.70
  -6  -8   4   61.49   14.60
  -6  -8   4   28.70    7.20
  -6  -8   4   41.30    7.50
  -6 -10  -4   33.90    6.20
   6 -10   4   28.20    5.80
  -6 -10  -4   30.70    6.60
  -6 -10   4   28.30    6.70
   6 -10  -4   18.10    6.40
   6 -10  -4   33.30   12.80
  -6 -10   4   40.30   14.40
  -6  -1  -5   73.69    8.90
  -6   1   5   75.39    8.70
  -6  -1  -5   69.29   14.10
  -6   1   5   70.19    8.20
   6  -1   5   66.49   11.70
  -6   1   5   80.89   14.10
   6   1  -5   64.79   12.70
  -6   1   5   74.19    8.30
   6  -1   5   65.29    8.20
  -6  -1   5   83.39   13.40
  -6  -1   5   57.39    8.00
  -6  -1   5   63.59   10.80
  -6   1  -5   68.39   11.40
   6  -1  -5   71.29   14.40
   6   1   5   98.49   14.10
  -6  -1   5   66.29    8.90
  -6  -1   5   73.49    8.70
   6  -3   5  128.99   13.30
  -6   3   5  111.69   21.00
  -6  -3  -5  145.39   18.30
  -6  -3  -5  113.59   21.00
   6  -3   5  120.99   13.50
   6  -3   5  148.59   15.30
   6   3  -5  140.49   19.70
   6  -3   5  124.59   18.20
   6   3   5   95.69   19.90
  -6  -3   5  149.19   17.20
  -6  -3   5  123.19   13.90
  -6  -3   5  106.29   14.50
  -6  -3   5  101.59   18.30
  -6   3  -5  126.79   17.80
   6  -3  -5  164.58   24.60
  -6  -3   5  118.19   13.60
   6  -5   5   11.40    3.30
  -6  -5  -5   14.30    5.70
   6   5  -5   10.30    8.80
   6  -5   5   14.90    6.70
  -6   5   5    3.00    8.20
   6  -5   5    4.00    2.80
  -6  -5   5   11.70    3.80
  -6   5  -5   11.70    8.90
  -6  -5   5   10.60    8.60
  -6  -5   5    8.30    7.20
  -6  -5   5   10.60    3.60
  -6  -5   5   20.10    5.80
   6  -5  -5   24.80   13.60
   6  -7   5   -7.60    7.50
  -6  -7  -5   -0.90    5.90
   6  -7   5   -4.00    3.70
  -6  -7  -5    2.40    7.20
  -6  -7   5    9.90    5.00
  -6  -7   5    0.10    4.50
  -6  -7   5   -2.00    3.10
  -6  -7   5   -3.80    7.40
   6  -9   5    4.40    4.70
   6  -9   5  -13.70    6.80
  -6  -9  -5  -13.10    6.90
  -6  -9  -5   -5.30    4.80
  -6  -9  -5    0.30    5.80
   6  -9  -5    4.40    8.50
  -6  -9   5   -1.60    5.30
  -6  -9   5    3.60    9.40
   6 -11   5    2.30    3.60
  -6 -11  -5    4.30    5.10
  -6 -11  -5    0.10    4.50
  -6 -11   5    2.80    4.20
   6 -11  -5    1.60    4.30
  -6   0   6  177.98   22.20
   6   0  -6  177.98   24.80
  -6   0   6  201.08   20.00
  -6   0   6  179.98   19.50
  -6   0  -6  185.68   19.90
   6   0   6  168.28   19.70
  -6   0   6  149.79   23.80
  -6   0  -6  164.88   23.20
   6   0   6  215.38   24.10
  -6   0   6  202.48   19.70
  -6   2   6  569.94   60.59
  -6   2   6  498.55   67.39
   6  -2   6  565.24   60.79
  -6   2   6  594.34   61.19
   6   2  -6  643.84   66.59
   6  -2   6  662.13   61.99
  -6   2  -6  626.34   64.29
  -6  -2   6  478.55   62.79
  -6  -2   6  611.64   60.99
   6   2   6  697.33   69.19
   6  -2  -6  584.14   69.59
  -6  -2   6  569.44   60.99
   6  -4   6   47.30    6.60
   6  -4   6   58.79   10.10
   6   4  -6   62.59   14.20
  -6  -4  -6   34.60    8.20
  -6  -4   6   71.69    7.70
  -6  -4   6   59.29   14.00
   6  -4  -6   71.69   19.10
  -6  -4   6   53.89    7.60
  -6  -4   6   48.50   11.00
  -6  -4   6   58.99    8.80
  -6  -6  -6   35.70   10.40
   6  -6   6   22.80   13.80
   6  -6   6   61.69    7.10
   6  -6   6   31.10    6.60
  -6  -6   6   48.50    6.90
  -6  -6   6   26.90   10.70
  -6  -6   6   39.20    7.40
  -6  -6   6   34.60    5.80
  -6  -8  -6   68.69   10.80
   6  -8   6   39.30   15.20
  -6  -8  -6   40.40   12.50
   6  -8   6   42.10    7.30
  -6  -8  -6   34.40    7.00
  -6  -8   6   15.80   11.60
  -6  -8   6   57.79    8.30
  -6  -8   6   36.90    6.20
  -6  -8   6   48.00    6.80
  -6 -10  -6   10.40    5.90
  -6 -10  -6    7.10    4.80
   6 -10   6    8.60    4.30
  -6 -10   6   11.80    5.30
   6   1  -7    6.20    5.40
  -6   1   7   12.80    4.90
   6  -1   7   17.40    4.00
  -6   1   7   11.60    3.10
  -6  -1  -7    5.90    5.70
  -6   1   7    7.10    6.30
  -6  -1   7   17.40    5.30
   6  -1  -7    6.90    6.40
  -6  -1   7   16.60    6.10
  -6   1  -7   16.60    4.90
  -6   1  -7   13.90    3.30
   6   1   7   19.90    7.00
  -6  -1   7   16.00    6.40
  -6  -3  -7   -2.00    3.70
   6  -3   7    2.60    2.90
  -6   3   7   -3.30    1.70
   6  -3   7   -6.80    3.20
   6  -3   7    0.10    1.70
   6   3  -7    7.80    5.50
  -6   3   7   -1.20    3.10
  -6   3   7   -0.10    5.80
  -6  -3   7   -0.20    2.40
  -6  -3   7   -1.60    3.30
  -6  -3   7   -2.80    5.60
   6  -3  -7    8.60    7.30
  -6  -3   7   -1.50    4.20
   6  -5   7    4.00    2.90
   6  -5   7   -1.10    2.80
   6  -5   7   -3.60    5.80
  -6  -5  -7    7.20    5.60
  -6  -5   7    4.50    3.80
  -6  -5   7    7.30    5.00
  -6  -5   7    3.40    7.70
  -6  -5   7    5.80    3.50
   6  -7   7    2.90    8.30
   6  -7   7    0.40    4.20
  -6  -7  -7    3.00    6.40
  -6  -7  -7    2.70    7.00
  -6  -7   7    0.20    3.90
  -6  -7   7    0.20    8.60
  -6  -7   7    3.40    5.30
   6  -9   7  -17.80   11.40
  -6  -9  -7  -10.30    8.00
  -6  -9  -7   -1.70    6.50
  -6  -9  -7    3.00    4.80
   6  -9   7    0.70    4.20
  -6  -9   7   -2.50   10.90
  -6  -9   7   -7.20    5.50
  -6   0   8  734.03   77.99
   6   0   8  670.53   71.89
  -6   0   8  742.53   75.49
  -6   0   8  735.03   71.89
   6   0  -8  622.24   78.09
   6   0   8  688.43   71.79
  -6   0   8  687.13   72.09
  -6   2   8  302.07   31.30
   6  -2   8  298.77   31.20
  -6   2   8  321.47   32.00
   6  -2   8  308.27   31.60
   6  -2   8  325.17   33.40
  -6   2   8  276.87   39.60
   6   2  -8  276.67   35.90
  -6  -2   8  310.87   31.80
  -6  -2   8  319.77   36.70
   6  -2  -8  254.17   40.20
  -6   2  -8  258.97   31.40
  -6  -2   8  290.47   35.10
  -6  -2   8  328.27   31.70
   6   2   8  311.67   41.00
   6  -4   8  339.17   39.30
  -6  -4  -8  339.37   38.50
   6  -4   8  348.87   37.00
   6  -4   8  350.86   37.20
  -6  -4   8  321.77   40.90
  -6  -4   8  368.36   38.20
  -6  -4   8  369.56   37.30
  -6  -4   8  384.96   37.60
  -6  -4   8  354.56   43.30
   6  -6   8  351.76   41.60
   6  -6   8  331.97   45.10
  -6  -6  -8  484.15   44.10
   6  -6   8  385.46   41.40
  -6  -6   8  435.46   42.30
  -6  -6   8  333.97   46.70
  -6  -6   8  419.46   42.30
  -6  -6   8  420.76   41.50
   6  -8   8  163.98   18.30
  -6  -8  -8  152.48   20.90
  -6  -8  -8  115.49   22.80
  -6  -8   8  148.99   26.30
  -6  -8   8  183.38   17.90
  -6 -10  -8   73.49    9.90
  -6 -10  -8   55.39    8.10
  -6 -10   8   40.80    8.50
  -6   1   9    5.20    6.50
  -6   1   9    3.00    3.90
  -6   1   9   -0.50    3.10
   6  -1   9    1.90    3.50
   6   1  -9    7.80    6.20
  -6  -1   9   -0.30    3.50
  -6  -1   9    0.20    6.60
  -6  -1   9   -2.90    3.40
   6   1   9    0.70    4.50
   6   1   9   -8.70    5.90
   6  -1  -9   11.00    7.40
  -6  -1   9   -3.60    4.50
   6  -3   9   -2.10    1.80
   6  -3   9   -1.50    4.60
   6  -3   9   -0.10    3.50
  -6   3   9    1.60    4.10
   6   3  -9    0.20    6.60
  -6  -3   9    0.60    6.00
  -6  -3   9    3.70    3.30
  -6  -3   9    4.30    4.70
  -6  -3   9    2.00    4.10
  -6  -3   9    2.30    7.40
  -6  -5  -9    4.40    6.30
   6  -5   9    1.90    3.20
   6  -5   9    3.60    3.70
   6  -5   9   -0.50    5.40
  -6  -5   9   -1.40    8.70
  -6  -5   9    0.40    4.20
  -6  -5   9    0.10    4.70
  -6  -5   9    8.10    4.50
   6  -7   9    4.00    4.30
  -6  -7  -9    1.00    6.60
  -6  -7  -9    1.80    7.40
   6  -7   9   11.20   13.20
  -6  -7   9   -0.20    4.60
  -6  -7   9    0.50    8.70
  -6  -7   9   -0.80    6.00
  -6  -9  -9    3.80    4.40
  -6  -9  -9    1.90    6.40
   6  -9   9    1.90    4.00
  -6  -9   9    4.30    3.60
  -6  -9   9   -0.90    5.60
  -6   0  10   55.69    8.60
  -6   0  10   66.29    9.50
   6   0  10   76.79    8.40
   6   0  10   61.59    9.00
  -6   0  10   72.49   15.00
  -6   2  10   20.90    5.80
  -6   2  10   22.00    4.10
   6  -2  10   15.00    4.60
  -6  -2  10   12.20    8.70
   6   2  10   -7.20   19.10
  -6   2 -10   10.90    3.70
  -6  -2  10   14.10    4.90
  -6  -2  10   14.80    4.40
   6  -4  10   27.00    5.00
  -6  -4 -10   18.80    7.30
   6  -4  10   36.70    8.60
  -6  -4  10   28.90    6.10
  -6  -4  10   32.20   11.20
  -6  -4  10   31.00    6.50
   6  -6  10  117.19   14.10
   6  -6  10  103.59   17.70
  -6  -6 -10  131.99   16.80
  -6  -6  10  119.59   15.50
  -6  -6  10  128.09   22.00
  -6  -6  10  103.19   14.40
   6  -8  10    4.10    4.30
  -6  -8 -10    9.10    7.90
  -6  -8 -10    5.90    7.20
  -6  -8  10    8.70   11.30
  -6  -8  10    3.10    6.90
  -6  -8  10    8.10    4.70
   6  -1  11   10.60    5.10
   6  -1  11    8.30    3.40
  -6   1  11    7.00    4.40
  -6   1  11    7.80    5.40
  -6  -1  11    5.40    4.20
   6   1  11    3.60    6.00
  -6  -1  11    3.40    8.90
  -6  -1  11    0.00    4.60
  -6   3  11   12.80    3.40
  -6   3  11    6.40    5.80
   6  -3  11    4.40    2.90
   6  -3  11   10.00    5.10
   6  -3  11   -3.30    6.50
  -6  -3  11    9.60    9.70
  -6  -3  11    8.40    5.30
  -6  -3  11    8.30    4.80
   6  -5  11   19.20    8.10
  -6  -5 -11   18.20    7.90
   6  -5  11   11.60    3.90
   6  -5  11   13.00    5.20
  -6  -5  11   15.70    6.00
  -6  -5  11   13.30    6.00
  -6  -7 -11    5.20    7.70
   6  -7  11   -2.50    6.20
  -6  -7 -11    2.00   10.10
  -6  -7  11   -2.40    7.30
  -6  -7  11   11.00   10.50
  -6  -9 -11    0.00    4.10
  -6  -9 -11   -0.50    6.10
   6  -9 -11   -0.70    4.40
  -6  -9  11   -4.00    3.20
  -6  -9  11   -5.50    4.70
   6   0  12  131.59   17.20
  -6   0  12  141.69   17.10
  -6   0  12  162.38   17.90
   6   0  12  143.09   16.40
   6  -2  12  128.09   16.30
  -6   2  12  137.49   17.00
  -6   2  12  138.69   15.70
   6  -2  12  130.89   15.30
  -6  -2  12  129.39   21.90
  -6  -2  12  156.78   16.90
  -6  -2  12  135.39   16.40
  -6   2 -12  114.09   15.80
   6  -4  12  157.68   17.90
   6  -4  12  112.49   20.50
   6  -4  12  164.28   17.20
  -6  -4 -12  114.99   19.60
  -6  -4  12  179.08   18.90
  -6  -4  12  178.58   18.30
   6  -6  12  105.79   12.90
   6  -6  12  102.59   14.20
  -6  -6 -12   85.49   15.90
  -6  -6  12  103.19   13.90
  -6  -6  12  127.09   15.60
  -6  -6  12  130.59   23.30
  -6  -8 -12   57.29   10.20
  -6  -8  12   35.60    8.20
   6  -1  13   10.20    4.20
  -6   1  13    6.90    5.00
  -6   1  13   11.40    7.00
   6  -1  13    5.10    5.90
   6   1  13   13.70   14.20
  -6  -1  13    9.00    6.30
  -6  -1  13   10.50    6.00
  -6  -3 -13    2.30    7.00
  -6   3  13   10.10    3.80
   6  -3  13   14.80    6.10
  -6  -3  13   10.10    6.20
  -6  -3  13   11.40   11.00
  -6  -3  13    9.70    6.60
   6  -5  13    1.20    5.30
  -6  -5 -13   -4.30    7.10
   6  -5  13    5.60    3.60
  -6  -5  13   -2.70    5.70
  -6  -5  13    4.40   11.60
  -6  -5  13    1.30    6.80
  -6  -7 -13    6.00    7.30
  -6  -7  13   -0.60    5.20
  -6  -7  13    9.70    7.00
  -6   0  14   21.70    7.00
  -6   0 -14   23.10    6.80
   6   0  14   22.60    9.60
  -6   0  14   37.10    8.00
  -6   2  14  157.18   18.00
  -6  -2 -14  171.58   21.20
  -6   2  14  169.48   20.00
   6  -2  14  155.08   19.30
  -6  -2  14  144.99   19.70
  -6  -2  14  160.58   19.80
   6  -4  14   86.19   12.30
  -6  -4 -14   87.39   14.40
  -6  -4  14   59.59   17.40
  -6  -4  14   97.79   13.20
  -6  -4  14   91.09   12.40
   6  -6  14   -3.90   12.80
  -6  -6 -14    7.40    8.00
  -6  -6  14    6.90    7.00
  -6  -6  14    7.10    5.70
   6  -1  15    2.80    8.70
  -6   1  15    1.20    5.30
  -6  -1 -15   11.40    6.80
  -6   1  15    1.00    7.20
  -6  -1  15   -1.80    6.80
  -6  -1  15    0.60    7.00
  -6   1 -15    8.00    4.80
   6  -3  15    2.00    7.60
  -6  -3 -15    3.90    7.80
  -6  -3  15    5.50    7.40
  -6  -3  15    0.50    6.40
   6  -5  15   -2.40   10.60
  -6  -5 -15   -2.60    7.50
  -6  -5  15   -1.80    6.40
  -6  -5  15    3.40    6.50
  -6   0  16   52.79   10.50
  -6   0  16   47.70    8.90
   6   0  16   -5.00   33.30
  -6   0 -16   52.39    9.50
  -6  -2 -16  105.89   15.40
  -6   2  16  100.99   12.30
   6  -2  16   72.69   16.00
  -6  -2  16  123.79   15.60
  -6  -2  16   80.29   13.70
   6  -4  16   34.70   15.00
  -6  -4 -16   90.59   13.80
  -6  -4  16  103.09   13.30
  -6  -1 -17   14.00    6.80
  -6   1  17   -1.00    4.50
   6  -1  17  -42.90   37.00
  -6   1  17    5.60    7.80
  -6  -1  17   -0.10    6.50
  -6  -1  17   -6.70    6.00
   6  -3  17    1.60   23.30
  -6  -3 -17   -5.70    7.10
  -6  -3  17   -8.50    6.70
  -6  -3  17    4.30    6.60
  -6   0  18   28.60    7.40
  -6   0  18   28.90    6.60
  -6  -2 -18    3.90    6.90
  -6   2  18    7.10    4.70
  -6  -2  18    7.90    5.70
  -6  -2  18   15.50    6.80
  -7  -1   0 4416.86  495.05
   7  -1   0 5231.78  501.25
   7   1   0 4963.80  500.55
  -7   1   0 5459.35  501.25
  -7  -1   0 4185.98  499.95
   7   3   0 8721.63  919.41
  -7   3   0 9999.00  920.51
   7  -3   0 8657.13  919.71
  -7  -3   0 8362.56  919.01
  -7  -5   0 3734.63  336.87
  -7  -5   0 3104.29  333.77
  -7  -5   0 3251.97  343.97
  -7  -5   0 2932.01  334.47
   7   5   0 3326.17  344.87
  -7  -7   0 1135.29  110.29
  -7  -7   0 1013.20  105.19
  -7  -7   0  951.80  105.69
   7  -9   0  626.34   67.99
  -7  -9   0  715.63   68.19
   7  -9   0  615.54   72.39
  -7  -9   0  647.54   68.39
  -7  -9   0  644.44   72.99
  -7 -11   0 1423.96  136.59
   7 -11   0 1229.28  136.19
  -7   0   1    1.00    1.90
  -7   0   1   -2.60    3.60
   7   0  -1   -1.10    4.20
  -7   0  -1   -0.10    1.70
  -7   0  -1   -3.20    3.40
   7   0   1   -3.00    3.00
   7  -2   1  372.86   43.50
  -7  -2  -1  417.16   38.20
  -7  -2  -1  355.96   44.00
  -7   2   1  279.97   42.70
   7   2  -1  339.67   43.40
  -7  -2   1  354.16   38.60
  -7  -2   1  398.86   38.10
  -7  -2   1  412.36   44.50
   7   2   1  302.37   43.00
   7  -4   1   20.90    7.30
  -7  -4  -1   17.00    3.80
  -7   4   1   47.20   12.20
  -7  -4  -1   18.60    6.30
   7  -4   1   26.90    8.90
   7   4  -1   49.10   12.30
  -7  -4  -1   48.90   13.10
  -7  -4   1   20.90    7.90
  -7  -4   1   31.60    4.20
  -7  -4   1   30.80    7.00
  -7   4  -1   32.20   11.30
  -7  -4   1   39.40    6.20
   7  -4  -1   47.20   13.60
   7   4   1   19.90    8.90
  -7  -6  -1   -1.50    2.90
   7  -6   1    1.30    6.30
  -7  -6  -1    0.20    4.30
  -7  -6  -1    7.10    7.00
  -7  -6   1   -1.80    6.00
  -7  -6   1    0.90    2.70
  -7  -6   1    0.90    4.40
  -7  -8  -1    6.20    8.60
   7  -8   1    6.70    7.00
  -7  -8  -1    3.40    5.50
   7  -8   1   -3.30    4.10
  -7  -8  -1    1.50    4.30
  -7  -8   1   -2.20    7.80
   7  -8  -1    8.00    8.00
  -7  -8   1    0.60    4.70
  -7  -8   1    5.70    4.20
  -7 -10  -1   -0.30    7.20
   7 -10   1   -4.30    3.90
  -7 -10  -1    2.70    4.10
  -7 -10  -1    0.30    4.40
   7 -10   1    4.50    7.50
  -7 -10   1    5.00    4.30
   7 -10  -1    5.20    4.60
  -7 -10   1    0.10    4.40
  -7 -10   1   -4.50    7.00
   7 -10  -1   -0.60    7.30
  -7  -1  -2  361.76   31.40
   7   1  -2  350.66   38.20
  -7   1   2  266.07   31.70
  -7  -1  -2  267.57   37.00
  -7   1   2  310.67   37.50
   7  -1   2  342.47   37.70
  -7  -1   2  341.17   32.70
  -7   1  -2  254.97   36.20
   7  -1  -2  288.37   37.60
  -7  -1   2  263.97   31.90
  -7  -1   2  289.77   37.30
   7  -3   2 3192.58  353.36
  -7  -3  -2 3425.26  353.26
  -7  -3  -2 3464.05  352.56
   7   3  -2 3174.88  358.56
  -7   3   2 3737.93  361.86
  -7  -3   2 3203.28  352.46
  -7  -3   2 3983.70  360.16
   7  -3  -2 3684.03  361.46
  -7  -3   2 3214.88  351.86
  -7   5   2  993.40  111.09
  -7  -5  -2 1015.00  109.39
  -7  -5  -2  996.50   98.39
   7   5  -2  865.91  111.29
   7  -5   2  908.21   98.49
  -7  -5   2  798.32   98.29
  -7  -5   2  945.11   99.29
   7   5   2 1113.29  111.49
   7  -5  -2 1107.69  114.89
  -7  -7  -2  186.98   21.40
   7  -7   2  229.98   25.40
  -7  -7  -2  112.19   22.80
   7  -7   2  175.38   19.70
  -7  -7   2  181.48   20.70
  -7  -7   2  183.48   20.60
  -7  -9  -2  361.76   36.10
   7  -9   2  265.07   34.90
  -7  -9  -2  377.56   35.50
   7  -9   2  323.67   39.70
  -7  -9   2  336.67   35.40
   7  -9  -2  282.17   35.10
  -7  -9   2  315.87   35.20
   7  -9  -2  419.96   42.10
   7 -11   2  421.76   43.20
  -7 -11  -2  480.05   43.30
  -7 -11   2  384.36   43.30
   7 -11  -2  354.06   43.10
   7   0  -3   -0.40    4.60
  -7   0  -3   -3.10    2.80
   7   0   3    2.70    4.60
  -7   0   3    0.50    3.40
  -7   0   3    0.60    1.30
  -7   0   3    1.40    2.50
  -7   0   3    1.60    5.90
  -7   0  -3   -0.20    1.90
  -7   2   3  712.53   77.29
  -7  -2  -3  843.52   84.69
   7  -2   3  847.92   83.09
   7   2  -3  723.13   82.89
   7  -2   3  727.73   77.39
  -7   2   3  745.53   77.29
  -7  -2  -3  698.93   77.79
  -7   2  -3  760.12   82.69
  -7  -2   3  700.53   82.99
  -7  -2   3  850.31   77.19
   7  -2  -3  659.33   84.09
  -7  -4  -3  300.37   40.40
   7  -4   3  245.88   30.70
   7   4  -3  309.77   39.20
  -7  -4  -3  324.67   33.30
  -7   4   3  255.47   39.60
  -7  -4  -3  301.77   31.90
  -7  -4   3  358.36   34.20
  -7   4  -3  250.57   36.80
   7  -4  -3  264.17   41.00
  -7  -4   3  302.57   31.80
  -7  -4   3  378.96   40.20
  -7  -4   3  277.57   30.80
   7   4   3  301.97   40.10
  -7  -6  -3   12.00    4.00
  -7  -6  -3    0.10    6.10
   7  -6   3    9.30    6.70
  -7  -6  -3   14.90    5.90
   7  -6   3    9.20    4.00
  -7  -6   3    8.10    3.40
   7   6   3  -12.00   15.50
  -7  -6   3    5.40    3.70
  -7  -6   3   17.00    5.30
  -7  -6   3    1.70    7.00
   7  -8   3   35.70   11.50
   7  -8   3   69.49    9.60
  -7  -8  -3   51.29   10.00
  -7  -8  -3   52.59   13.90
  -7  -8  -3   76.69    9.90
  -7  -8   3   64.39    9.80
   7  -8  -3   89.09   16.00
  -7  -8   3   77.29   10.00
  -7 -10  -3    4.80    4.40
  -7 -10  -3    2.60    5.10
   7 -10   3    1.70    3.80
   7 -10  -3    2.60    4.80
  -7 -10   3   -1.80    4.80
  -7   1   4  533.05   59.19
  -7  -1  -4  632.04   59.79
  -7  -1  -4  598.64   58.99
   7   1  -4  622.44   65.59
   7  -1   4  640.94   64.69
  -7  -1  -4  524.55   59.09
  -7  -1  -4  681.23   66.09
  -7   1  -4  537.35   63.69
  -7  -1   4  542.05   59.49
  -7  -1   4  518.35   64.49
  -7  -1   4  599.44   62.99
   7   1   4  505.05   64.29
  -7  -3  -4 3641.94  373.46
   7  -3   4 3788.62  378.56
   7   3  -4 4081.19  379.66
  -7  -3  -4 3629.44  380.36
  -7   3   4 3027.50  379.66
  -7  -3   4 3885.21  374.46
  -7  -3   4 3005.60  377.56
  -7   3  -4 4058.79  378.56
   7  -5   4 1548.15  148.49
  -7   5   4 1381.66  158.28
  -7  -5   4 1490.25  148.79
  -7  -5   4 1260.07  153.78
   7   5   4 1349.86  156.68
  -7  -5   4 1434.36  146.29
   7  -7   4  226.18   25.20
  -7  -7  -4  244.68   25.60
  -7  -7  -4  205.98   26.70
  -7  -7   4  252.97   24.70
  -7  -7   4  233.08   30.30
  -7  -7   4  201.68   25.40
  -7  -7   4  246.58   26.20
  -7  -9  -4  459.05   51.09
  -7  -9  -4  431.86   50.19
   7  -9   4  473.75   54.59
   7  -9   4  472.15   50.09
  -7  -9  -4  416.66   54.49
  -7  -9   4  459.75   55.89
  -7  -9   4  561.84   50.69
  -7  -9   4  519.05   50.19
  -7 -11  -4  500.65   52.99
  -7 -11  -4  512.15   53.39
  -7   0   5   -3.20    3.00
  -7   0   5    0.50    4.30
   7   0  -5    4.50    4.40
  -7   0  -5    0.30    3.80
  -7   0   5   -2.10    3.40
  -7   0  -5   -0.50    2.30
  -7   0   5    0.20    1.80
   7   0   5    1.00    3.70
  -7   0   5    3.40    3.00
  -7   2   5  413.26   44.10
  -7  -2  -5  387.56   44.90
  -7   2   5  459.05   52.69
   7  -2   5  416.46   44.60
   7  -2   5  374.26   44.30
  -7   2   5  472.45   44.50
   7   2  -5  392.66   49.80
  -7  -2   5  393.36   49.80
  -7  -2   5  449.86   44.50
   7   2   5  438.26   51.29
  -7  -2   5  511.55   46.90
  -7   2  -5  438.56   49.00
  -7   4   5  270.37   34.60
   7  -4   5  206.18   23.10
   7  -4   5  182.38   20.80
  -7  -4  -5  248.18   32.40
   7  -4   5  204.28   22.20
   7   4  -5  223.18   29.70
  -7  -4  -5  206.18   22.60
  -7  -4   5  230.28   30.00
  -7  -4   5  212.38   21.40
  -7  -4   5  164.78   24.30
   7   4   5  195.68   31.00
   7  -4  -5  141.09   31.50
  -7  -4   5  195.28   21.40
  -7  -4   5  160.88   22.30
  -7  -6  -5   -2.20    6.10
  -7  -6  -5    0.00    5.50
   7  -6   5   -3.90    5.90
   7  -6   5    5.20    3.30
  -7  -6   5    3.30    5.50
  -7  -6   5   -6.00    6.70
  -7  -6   5    0.00    3.30
  -7  -6   5    2.90    3.90
   7  -8   5   16.70    8.90
  -7  -8  -5   11.60   11.50
  -7  -8  -5    9.50    5.40
  -7  -8  -5   17.80    7.30
   7  -8   5   18.10    4.90
  -7  -8   5   15.90    4.10
  -7  -8   5   14.40    9.90
  -7  -8   5   14.90    5.40
  -7  -8   5   11.10    5.10
   7 -10   5   -4.50    3.40
  -7 -10  -5    1.40    5.40
  -7 -10  -5   -0.70    4.00
  -7 -10   5    1.50    4.50
  -7  -1  -6  647.94   65.69
  -7  -1  -6  523.35   69.99
   7  -1   6  665.03   65.19
   7   1  -6  547.35   70.39
  -7   1   6  729.43   65.39
   7  -1   6  745.73   70.29
  -7   1   6  607.64   64.89
  -7   1   6  536.15   70.89
  -7  -1   6  612.54   67.39
  -7  -1   6  660.73   65.19
  -7   1  -6  528.55   65.09
  -7  -1   6  679.63   65.19
  -7  -1   6  619.64   70.89
   7  -1  -6  661.83   73.09
  -7   1  -6  590.14   69.09
   7   1   6  740.73   72.09
   7  -3   6 3017.50  315.07
  -7   3   6 2990.40  324.97
   7   3  -6 2875.21  321.47
  -7   3   6 3257.47  314.77
   7  -3   6 2979.50  316.07
   7  -3   6 3124.69  314.87
  -7  -3   6 2838.72  315.07
  -7  -3   6 3525.05  315.37
   7  -3  -6 3057.89  327.07
  -7  -3   6 3441.56  318.07
  -7  -3   6 3078.59  321.67
   7   3   6 2726.03  325.27
   7  -5   6 1051.09  112.19
   7  -5   6  915.41  112.39
  -7  -5   6 1141.69  112.29
  -7  -5   6 1238.18  112.69
  -7  -5   6 1229.48  116.89
  -7  -5   6 1004.30  113.29
  -7  -7  -6   74.69   12.20
   7  -7   6   73.59    9.30
  -7  -7  -6   64.49   13.10
  -7  -7   6   54.19   14.30
  -7  -7   6   61.49    8.90
  -7  -7   6   59.89    9.90
  -7  -9  -6  665.83   68.69
  -7  -9  -6  647.24   69.79
  -7  -9   6  730.63   69.19
  -7  -9   6  520.65   79.89
  -7   0   7   -0.40    2.40
  -7   0  -7    4.60    4.90
   7   0   7    3.50    6.00
  -7   0   7    0.10    3.30
   7   0  -7    1.10    5.40
  -7   0   7    1.40    4.50
  -7   0  -7    1.50    2.80
   7   0   7   -1.80    3.90
  -7   0   7    5.00    6.10
  -7   0   7    1.10    4.20
   7   2  -7   74.99   13.90
  -7  -2  -7   48.40    8.90
  -7   2   7   63.79   16.30
   7  -2   7   64.99    9.10
  -7   2   7   71.79    8.60
  -7   2   7   77.09    7.70
   7  -2   7   57.69    8.20
   7  -2  -7   47.30   15.20
  -7  -2   7   57.39    9.30
  -7  -2   7   55.19   11.30
  -7  -2   7   66.69    8.80
  -7  -2   7   67.59    8.10
  -7  -2   7   58.99   13.30
   7  -4   7   39.30    5.40
   7  -4   7   37.80    7.80
  -7  -4  -7   54.79    8.60
   7  -4   7   35.50    5.90
  -7  -4   7   28.00   13.40
  -7  -4   7   45.50    6.50
  -7  -4   7   48.40    6.60
   7  -6   7   -2.00    6.80
  -7  -6  -7    9.20    6.40
   7  -6   7    4.20    3.30
  -7  -6  -7   -5.20    5.40
  -7  -6   7    9.60    4.30
  -7  -6   7    5.30    5.70
  -7  -6   7    5.40    4.70
  -7  -6   7    6.60    9.50
   7  -8   7   14.90    9.40
   7  -8   7    4.50    4.30
  -7  -8  -7   10.70    8.10
  -7  -8  -7   26.60    5.60
  -7  -8  -7   20.20    8.40
   7  -8  -7   11.30    4.60
  -7  -8   7   25.80    5.10
  -7  -8   7   29.40    5.10
  -7  -8   7   14.90    6.30
  -7  -8   7   24.70   11.20
  -7 -10  -7   -0.20    3.70
   7 -10   7   -3.70    3.90
  -7 -10  -7    5.30    5.30
  -7 -10   7    1.70    5.00
   7  -1   8 1229.18  109.99
  -7   1   8 1109.99  110.39
   7  -1   8 1031.10  110.09
   7   1  -8  990.50  116.39
  -7  -1  -8 1042.20  110.79
  -7   1   8 1218.78  109.99
  -7  -1   8 1079.69  110.09
   7  -1  -8  930.71  119.09
  -7  -1   8  992.10  110.29
   7   1   8 1057.19  112.09
  -7  -1   8  987.20  112.99
  -7   1  -8 1020.90  110.39
  -7  -1   8 1176.18  116.79
  -7  -3  -8 2889.31  303.87
   7  -3   8 2620.14  304.07
   7  -3   8 3183.58  302.77
   7  -3   8 2970.60  302.77
  -7   3   8 2994.80  303.37
  -7   3   8 2647.54  302.37
   7   3  -8 2929.51  309.47
  -7  -3   8 3189.98  302.87
  -7  -3   8 2948.80  308.57
  -7  -3   8 3107.89  303.17
  -7  -3   8 3077.49  303.67
  -7  -5  -8 1883.61  188.78
   7  -5   8 1594.74  187.18
   7  -5   8 1658.33  187.08
  -7  -5   8 2071.79  192.28
  -7  -5   8 1983.20  188.38
  -7  -7  -8  181.98   27.00
   7  -7   8  191.28   26.10
   7  -7   8  164.58   21.50
  -7  -7   8  208.88   21.70
  -7  -7   8  188.98   28.90
  -7  -7   8  194.08   22.20
  -7  -7   8  247.78   22.90
  -7  -9  -8  723.63   68.49
  -7  -9  -8  593.34   66.79
  -7  -9   8  627.54   66.29
  -7   0   9   -0.60    3.40
  -7   0   9   -4.70    6.40
  -7   0  -9   -1.00    3.30
   7   0   9    3.00    4.60
   7   0  -9   -5.80    5.80
  -7   0   9    0.70    3.60
   7   0   9   -0.80    2.00
   7   2  -9   57.19   15.10
   7  -2   9   62.09    7.50
  -7  -2  -9   77.09   10.10
   7  -2   9   58.09    8.40
  -7   2   9   84.79    9.70
  -7   2   9   77.99    8.20
  -7  -2   9   68.09   13.50
  -7  -2   9   46.30    8.10
  -7  -2   9   84.49    9.20
  -7   2  -9   53.19    7.60
  -7  -2   9   39.20   11.80
   7  -4   9    4.20    3.90
   7  -4   9    0.60    4.50
   7  -4   9    2.80    2.40
  -7  -4   9    3.40    8.50
  -7  -4   9   -1.00    6.00
  -7  -6  -9   -1.80    7.10
   7  -6   9  -18.90   10.30
   7  -6   9   -1.10    5.70
   7  -6   9   -6.70    3.00
  -7  -6   9   -0.20    5.40
  -7  -6   9   -5.40    8.80
  -7  -6   9   -3.70    4.40
  -7  -6   9    3.60    5.10
  -7  -8  -9    3.80    7.60
  -7  -8  -9    5.50    4.40
   7  -8   9    2.80    3.80
  -7  -8   9    6.90    4.70
  -7  -8   9    7.70    6.40
  -7  -1 -10   29.20    6.70
  -7   1  10   20.40    4.90
   7  -1  10   34.00    6.00
   7  -1  10   27.50    4.40
  -7   1  10   33.50    6.50
  -7  -1  10   27.10   10.10
  -7  -1  10   22.50    5.40
  -7   1 -10   29.60    5.60
  -7  -1  10   25.10    5.80
   7   1  10   40.60   18.00
  -7   3  10  693.93   67.59
   7  -3  10  669.53   67.79
  -7   3  10  714.13   70.49
  -7  -3 -10  566.94   72.39
   7  -3  10  654.53   68.09
  -7  -3  10  588.04   68.49
  -7  -3  10  597.84   69.19
  -7  -3  10  763.32   73.69
   7  -5  10  105.99   14.80
   7  -5  10  129.79   17.80
   7  -5  10  121.39   13.90
  -7  -5 -10  145.99   17.80
  -7  -5  10  129.39   15.20
  -7  -5  10  107.09   20.50
  -7  -5  10  113.59   14.70
   7  -7  10   14.90    4.70
  -7  -7 -10   28.80    8.80
  -7  -7 -10   24.60    8.90
  -7  -7  10   23.20   12.30
  -7  -7  10   27.90    7.90
  -7  -7  10   28.50    6.10
  -7  -9 -10  153.58   21.50
  -7  -9  10  197.78   19.20
  -7  -9  10  161.48   20.50
  -7   0  11   -0.10    4.60
  -7   0 -11   -0.90    4.40
   7  -2  11   51.49    6.60
  -7   2  11   54.39    8.70
   7  -2  11   47.60    7.80
  -7   2  11   52.29    7.00
  -7  -2  11   41.10    7.30
  -7  -2  11   32.70   11.60
  -7  -2  11   38.10    7.80
   7  -4  11   60.59    9.20
   7  -4  11   60.79   11.30
   7  -4  11   60.89    7.90
  -7  -4 -11   60.29   11.40
  -7  -4  11   73.69    9.90
  -7  -4  11   44.30    8.80
  -7  -4  11   65.49   15.40
   7  -6  11   -7.10   13.10
   7  -6  11    7.40    2.90
  -7  -6 -11   -3.50    7.20
  -7  -6  11    6.00    6.70
  -7  -6  11    1.90    9.00
  -7  -6  11    0.10    5.30
  -7  -8 -11   18.00    7.90
  -7  -8 -11    2.90    3.70
  -7  -8  11   -4.50    6.10
  -7  -8  11   13.50    4.70
  -7   1  12  301.17   30.20
  -7   1  12  293.37   29.20
   7  -1  12  259.77   30.10
  -7  -1 -12  270.77   30.70
   7   1  12  297.07   39.70
  -7  -1  12  304.47   29.90
  -7   1 -12  244.18   29.60
  -7  -1  12  227.58   29.60
  -7  -3 -12 1098.99  111.99
   7  -3  12  985.60  110.39
  -7  -3  12 1117.99  110.59
  -7  -3  12 1119.49  111.09
  -7  -3  12 1020.60  115.69
  -7  -5 -12  470.95   56.19
   7  -5  12  498.05   54.79
  -7  -5  12  562.94   54.59
  -7  -5  12  540.65   55.29
  -7  -5  12  510.15   60.99
  -7  -7 -12  106.29   14.40
  -7  -7  12   57.29   11.80
  -7  -7  12   97.39   11.80
  -7   0  13    0.20    5.60
  -7   0  13    0.40    5.50
   7   0  13  -14.30   14.90
  -7   0 -13   -5.70    4.90
  -7  -2 -13  108.29   15.30
   7  -2  13  109.39   13.70
  -7   2  13   87.59   12.00
  -7   2  13  114.69   14.40
  -7  -2  13   79.99   12.70
  -7  -2  13   85.59   13.20
  -7  -4 -13   28.50    9.30
   7  -4  13   14.20    7.90
  -7  -4  13   39.80   13.70
  -7  -4  13   42.70    9.00
  -7  -4  13   50.19    8.50
  -7  -6 -13    7.90    7.90
   7  -6  13   27.60   26.20
  -7  -6  13    4.80   11.10
  -7  -6  13   -3.40    5.80
  -7  -6  13    8.00    7.60
  -7   1  14  106.89   13.50
   7  -1  14   76.09   17.40
  -7  -1 -14  121.79   15.60
  -7   1  14  119.19   15.30
  -7  -1  14  109.39   14.80
  -7   1 -14   91.99   13.40
  -7  -1  14   99.09   14.90
  -7  -3 -14  541.15   60.49
   7  -3  14  525.65   59.39
  -7   3  14  533.45   57.99
  -7  -3  14  619.24   59.79
  -7  -3  14  591.84   59.29
  -7  -5 -14   77.29   14.30
   7  -5  14   82.59   21.10
  -7  -5  14   76.39   18.30
  -7  -5  14   95.59   13.50
  -7  -5  14  110.09   13.70
  -7  -7 -14   31.30    8.70
  -7  -7  14   32.70    6.90
  -7  -7  14   13.70    6.80
  -7   0  15    5.00    6.30
  -7   0  15   -7.40    7.20
  -7   0 -15    0.50    5.50
  -7   2  15    0.50    5.30
  -7  -4 -15    0.70    7.90
   7  -4  15    2.80   18.90
  -7  -4  15    9.40    7.60
  -7  -4  15   10.90    7.00
  -7  -6 -15   -2.80    6.60
  -7  -6  15    5.40    5.20
  -7  -6  15    6.00    7.30
  -7   1  16   81.59   12.70
  -7  -1 -16   89.49   14.10
  -7   1  16  102.99   14.70
  -7  -1  16   93.09   14.20
  -7  -1  16  118.89   13.80
   7  -3  16  157.88   41.30
  -7  -3 -16  254.77   32.20
  -7  -3  16  300.07   31.30
  -7  -3  16  308.67   31.70
  -7  -5 -16  180.88   24.20
  -7  -5  16  213.68   23.10
  -7   0  17    4.10    6.20
  -7   0  17    1.60    5.80
  -7   2  17    4.70    5.20
  -7  -2 -17   10.90    6.70
  -7  -2  17   -0.10    6.20
  -7  -2  17   -6.00    6.50
  -7  -4 -17   -1.30    8.90
  -7  -4  17    5.50    6.20
  -7   1  18   12.90    5.00
  -7  -1 -18    8.40    6.40
  -7  -1  18   -1.10    5.60
  -8   0   0  258.67   30.60
  -8   0   0  186.58   23.40
   8   0   0  274.17   31.00
  -8  -2   0 3922.01  398.96
  -8  -2   0 3800.52  391.96
  -8   2   0 3926.31  398.56
   8   2   0 3677.83  398.46
  -8  -4   0  771.12   88.89
  -8  -4   0 1017.80   90.09
   8   4   0  809.42   97.99
  -8  -6   0 3230.18  332.37
  -8  -6   0 3141.49  326.47
   8  -6   0 3206.28  329.87
   8  -8   0  307.27   36.80
   8  -8   0  287.37   31.90
  -8  -8   0  274.67   32.80
  -8  -8   0  318.27   32.00
   8 -10   0  461.15   47.40
  -8 -10   0  387.16   47.30
  -8 -10   0  500.65   47.70
   8   1  -1  433.26   44.20
  -8   1   1  378.76   36.70
   8  -1   1  314.57   42.30
  -8  -1  -1  330.17   36.40
  -8  -1  -1  376.46   36.90
  -8   1  -1  359.06   43.10
  -8  -1   1  283.97   42.20
   8   1   1  357.86   42.90
  -8   1  -1  333.97   36.50
  -8  -1   1  348.87   37.10
  -8  -1   1  363.36   36.90
  -8  -3  -1    5.60    3.50
   8   3  -1   -1.10    6.10
  -8  -3  -1    3.00    1.40
   8  -3   1    4.00    4.00
  -8  -3  -1    0.30    5.20
  -8   3   1    0.10    5.60
  -8  -3  -1    3.00    3.50
   8  -3   1    1.00    7.00
  -8  -3   1    4.20    1.80
  -8  -3   1   -1.60    3.20
   8   3   1    8.60    7.50
  -8  -3   1    2.30    3.90
  -8  -3   1    4.60    6.30
   8  -3  -1    7.40    8.00
  -8   3  -1    5.80    6.10
  -8  -5  -1   24.20   11.90
   8  -5   1   20.20    7.20
  -8  -5  -1   14.60    3.30
  -8  -5  -1    9.50    5.10
   8   5  -1   19.60   11.20
  -8  -5  -1   23.60    6.70
  -8  -5   1   15.20    5.40
  -8  -5   1    9.20    6.40
   8   5   1    2.60    9.30
  -8  -5   1   14.10    3.20
  -8  -5   1   10.90    9.90
  -8  -7  -1   -0.30    5.10
   8  -7   1    3.00    6.30
  -8  -7  -1   -9.30    6.20
   8  -7   1    4.70    4.10
  -8  -7   1    1.60    3.60
   8  -7  -1    0.50    6.30
  -8  -7   1    0.40    3.10
  -8  -7   1    0.90    7.00
  -8  -9  -1    6.00    4.40
   8  -9   1    3.60    4.70
  -8  -9  -1    3.10    8.50
   8  -9   1    6.60    6.40
  -8  -9  -1    2.70    5.20
  -8  -9   1    4.00    4.70
   8  -9  -1    9.20    7.50
   8  -9  -1    6.70    5.10
  -8  -9   1    1.00    4.70
  -8  -9   1    6.40    8.40
  -8 -11  -1    2.60    5.70
   8 -11   1    0.90    3.10
  -8 -11   1    2.80    4.20
   8 -11  -1   -0.50    4.10
  -8   0   2  634.14   78.09
  -8   0  -2  596.44   77.59
   8   0   2  830.02   79.19
   8   0  -2  807.12   80.19
  -8   0   2  671.43   72.29
  -8  -2  -2 2466.25  253.87
   8   2  -2 2467.45  260.17
   8  -2   2 2398.76  259.57
  -8  -2  -2 2787.92  261.87
  -8  -2  -2 2149.69  253.67
  -8   2   2 2780.62  261.77
  -8   2   2 2334.77  253.37
  -8   2  -2 2708.83  260.57
  -8  -2   2 2313.97  253.77
  -8  -2   2 2452.85  254.47
   8  -2  -2 2327.77  260.97
  -8  -2   2 2639.94  261.17
   8  -4   2   99.59   11.80
  -8  -4  -2  120.59   11.80
  -8  -4  -2   81.29   20.00
  -8  -4  -2  108.09   14.30
   8   4  -2  127.79   21.60
   8  -4   2  102.99   21.60
  -8   4   2  135.29   23.00
  -8  -4  -2  116.09   13.30
   8  -4  -2  100.59   22.60
  -8  -4   2  104.39   19.70
  -8   4  -2  103.79   23.40
   8   4   2  102.69   21.40
  -8  -4   2   82.79   11.80
  -8  -4   2  130.19   13.60
  -8  -6  -2  282.67   32.70
   8  -6   2  255.67   32.80
   8  -6   2  265.67   29.20
  -8  -6  -2  326.47   30.70
  -8  -6   2  277.47   30.40
  -8  -6   2  232.28   32.60
  -8  -8  -2   15.70    5.00
   8  -8   2   24.40    9.50
   8  -8   2   14.70    5.00
  -8  -8  -2   11.20    6.10
  -8  -8  -2   18.70    9.00
  -8  -8   2   23.80   10.40
  -8  -8   2   25.90    4.10
  -8  -8   2   15.30    5.30
  -8  -8   2   19.10    6.40
   8  -8  -2    5.10    8.30
  -8 -10  -2  172.88   19.00
   8 -10   2  164.28   18.60
  -8 -10  -2  153.38   19.30
  -8 -10   2  160.88   19.10
   8 -10  -2  180.38   19.30
   8   1  -3   94.69   19.80
  -8  -1  -3  110.09   17.50
  -8  -1  -3  107.89   11.50
  -8   1   3   99.09   17.30
  -8   1   3   87.19   10.60
   8  -1   3  103.59   17.00
  -8   1  -3  111.89   17.00
  -8  -1   3  114.49   11.50
   8   1   3  102.49   16.70
   8  -1  -3   88.79   17.10
  -8   1  -3   90.19   10.70
  -8  -1   3  100.39   20.10
  -8  -1   3   77.19   10.40
  -8  -1   3  106.99   12.60
  -8  -3  -3  221.38   30.70
  -8   3   3  219.88   40.50
  -8  -3  -3  216.58   21.10
   8  -3   3  152.58   26.40
  -8  -3  -3  228.68   22.60
   8   3  -3  202.98   28.50
   8  -3   3  174.08   22.00
  -8  -3  -3  195.88   22.70
  -8  -3   3  163.78   23.40
  -8  -3   3  239.38   30.00
   8   3   3  167.08   29.40
  -8  -3   3  244.48   21.50
   8  -5   3   35.20    8.90
  -8   5   3   41.70   16.30
  -8  -5  -3   56.59    8.70
  -8  -5  -3   42.50   20.20
  -8  -5  -3   39.30    6.20
   8  -5   3   41.30    6.20
  -8  -5  -3   43.30    9.30
  -8  -5   3   56.09    6.80
   8   5   3   44.70   17.10
  -8  -5   3   40.70   10.20
   8  -5  -3   66.09   19.20
  -8  -5   3   52.39    8.60
   8  -7   3   83.69   14.40
  -8  -7  -3   76.19    9.50
   8  -7   3   68.09    9.40
  -8  -7  -3   74.39   11.20
  -8  -7  -3   37.60   11.90
  -8  -7   3   87.89    9.80
  -8  -7   3   56.29   10.00
  -8  -7   3   49.70   12.80
  -8  -7   3   64.89    8.80
   8  -9   3   27.00    9.70
  -8  -9  -3   36.90    7.80
  -8  -9  -3   29.10    9.90
  -8  -9  -3   20.80    5.20
   8  -9   3   22.20    4.90
   8  -9  -3   23.70    9.80
  -8  -9   3    6.10    8.50
  -8  -9   3   26.10    5.80
  -8  -9   3   19.50    5.80
  -8 -11  -3    4.50    3.70
   8 -11   3    1.70    3.20
   8 -11  -3    4.70    4.30
  -8 -11   3    3.50    4.40
  -8   0   4  348.27   34.90
   8   0  -4  308.67   39.70
  -8   0   4  339.97   32.80
  -8   0  -4  249.97   37.40
  -8   0  -4  309.47   33.10
   8  -2   4  472.65   48.80
  -8  -2  -4  449.76   49.80
  -8  -2  -4  511.65   49.60
  -8  -2  -4  516.25   57.29
  -8   2   4  427.36   56.39
   8  -2   4  568.24   63.19
  -8   2   4  431.86   49.10
   8   2  -4  443.66   55.89
  -8  -2   4  490.55   51.09
  -8  -2   4  450.65   49.00
  -8   2  -4  481.35   55.19
  -8  -2   4  468.95   56.09
   8   2   4  512.15   57.39
   8  -2  -4  478.45   58.39
  -8  -4  -4 1635.74  187.88
   8  -4   4 1865.41  177.48
  -8  -4  -4 2020.40  178.88
  -8   4   4 1786.32  189.68
  -8  -4  -4 1685.83  179.48
   8  -4   4 1547.25  179.78
  -8  -4   4 1558.24  178.48
  -8  -4   4 1757.22  180.48
   8  -4  -4 1738.43  191.18
  -8  -6  -4  576.34   60.19
  -8  -6  -4  570.14   58.79
   8  -6   4  489.15   58.69
  -8  -6  -4  657.53   64.39
   8  -6   4  599.44   62.49
  -8  -6   4  611.14   59.09
  -8  -6   4  514.95   62.69
  -8  -6   4  546.65   58.59
   8  -8   4  163.38   20.80
   8  -8   4  211.88   25.90
  -8  -8  -4  204.48   30.80
  -8  -8  -4  180.18   22.60
  -8  -8   4  215.08   20.50
  -8  -8   4  151.38   21.70
  -8  -8   4  229.78   28.50
  -8 -10  -4  330.17   30.20
   8 -10   4  245.88   29.70
   8 -10  -4  266.47   30.30
  -8  -1  -5  635.74   66.89
  -8   1   5  717.63   66.49
  -8   1   5  555.24   76.29
   8   1  -5  609.74   72.99
  -8   1   5  541.25   66.49
   8  -1  -5  677.73   74.99
  -8  -1   5  719.03   66.39
  -8  -1   5  617.94   68.29
  -8   1  -5  626.84   71.69
  -8   1  -5  660.43   66.49
   8   1   5  594.94   72.99
  -8  -1   5  713.83   66.89
   8   3  -5   94.39   17.90
  -8  -3  -5   93.09   12.10
  -8  -3  -5   98.59   20.00
   8  -3   5   81.89   11.20
  -8   3   5   92.29   10.20
  -8  -3  -5   93.69   12.40
  -8   3   5   97.79   20.10
   8  -3  -5   82.99   20.40
  -8  -3   5   89.79   18.80
  -8  -3   5  121.29   11.10
  -8  -3   5  105.39   11.70
  -8  -3   5   88.79   12.20
  -8  -3   5  112.69   15.00
   8   3   5   62.29   16.30
   8  -5   5   37.70    5.20
   8  -5   5   28.90    7.40
  -8  -5  -5   35.80    7.70
  -8  -5  -5   31.30    7.80
  -8  -5   5   33.70    5.70
  -8  -5   5   23.40    9.10
  -8  -5   5   33.80    7.50
  -8  -5   5   42.10    5.90
  -8  -7  -5   15.50    4.80
  -8  -7  -5   22.20    9.00
   8  -7   5    6.90    6.70
  -8  -7  -5   21.30    7.90
   8  -7   5   29.10    7.10
  -8  -7   5   18.10    6.50
  -8  -7   5   31.80    6.10
  -8  -7   5   21.00    4.70
  -8  -7   5   35.40   11.10
   8  -9   5    8.10    9.60
   8  -9   5    7.80    4.10
  -8  -9  -5   17.50    4.90
  -8  -9  -5    8.40    6.70
  -8  -9   5    2.00    6.60
  -8  -9   5   15.40    5.10
   8  -9  -5    5.30    9.50
  -8   0   6  272.57   24.20
  -8   0   6  180.28   24.30
  -8   0  -6  230.88   24.50
  -8   0  -6  219.38   29.50
  -8   0   6  196.28   24.40
   8   0  -6  265.37   32.10
   8   0   6  243.88   29.70
   8   2  -6  863.71  106.49
  -8   2   6 1113.49  109.49
  -8   2   6  936.51   98.89
   8  -2   6  902.21   99.99
  -8   2   6  986.30   99.39
  -8  -2  -6 1017.70  100.09
  -8  -2   6  880.91  105.59
   8  -2  -6 1007.70  110.39
  -8  -2   6  936.21  101.59
  -8  -2   6 1009.50   99.79
  -8  -2   6  857.21   99.09
  -8  -2   6 1085.19   99.39
  -8  -4  -6 3028.70  304.07
   8  -4   6 2539.65  302.57
   8  -4   6 3289.97  304.47
  -8  -4   6 2735.23  302.87
  -8  -4   6 3167.98  306.37
  -8  -4   6 3037.60  303.17
  -8  -6  -6  116.59   16.50
   8  -6   6   92.09   16.50
   8  -6   6   72.99   11.50
  -8  -6   6  126.69   12.90
  -8  -6   6  101.29   18.20
  -8  -6   6  113.29   14.70
  -8  -6   6  101.79   12.50
  -8  -8  -6  147.49   21.50
  -8  -8  -6  126.89   16.80
  -8  -8  -6  164.08   19.70
   8  -8   6  150.28   22.40
   8  -8   6  128.79   16.30
  -8  -8   6  155.58   23.80
  -8  -8   6  140.09   16.30
  -8  -8   6  170.28   17.80
  -8 -10  -6  266.97   27.90
  -8 -10  -6  262.47   29.10
  -8 -10   6  247.28   28.20
   8  -1   7    8.40   12.10
  -8   1   7   26.20    4.30
   8   1  -7   14.50    7.00
  -8  -1  -7   15.90    4.90
  -8   1   7   15.10    4.30
  -8  -1   7   12.40    3.80
  -8  -1   7   21.40    7.60
  -8  -1   7   32.50    5.50
   8  -1  -7   22.70    8.70
  -8  -1   7   31.60    5.40
  -8   1  -7   27.30    4.30
  -8  -1   7    6.30    6.20
  -8   3   7   61.49    7.20
   8  -3   7   68.99   10.10
   8  -3   7   46.60    8.50
  -8   3   7   87.29   22.30
  -8  -3  -7   62.09    9.70
  -8  -3   7   50.99    9.10
  -8  -3   7   47.00    8.20
  -8  -3   7   64.79    8.00
  -8  -3   7   87.59   18.20
  -8  -3   7   67.99   12.50
   8  -5   7    3.70    2.20
   8  -5   7    3.20    4.60
  -8  -5  -7    0.10    5.70
  -8  -5  -7   -0.50    5.10
  -8  -5   7    2.30    4.10
  -8  -5   7    1.20    3.90
  -8  -5   7    8.50    8.20
  -8  -5   7    1.80    6.20
  -8  -7  -7    6.30    7.40
  -8  -7  -7   15.90    4.60
   8  -7   7   11.00    4.00
  -8  -7  -7    7.40    7.50
   8  -7   7   26.90    8.70
  -8  -7   7   15.50    4.80
  -8  -7   7    7.30    5.50
  -8  -7   7   15.80   10.80
  -8  -7   7   17.50    6.70
  -8  -9  -7    4.80    4.00
   8  -9   7   -2.20    3.20
  -8  -9  -7    0.10    5.90
  -8  -9   7    0.60    5.70
  -8  -9   7   -1.80    3.60
  -8   0  -8  116.29   15.70
  -8   0   8  136.49   15.10
  -8   0   8  134.79   15.00
  -8   0   8  132.69   22.50
   8   0   8  162.08   22.40
  -8   2   8  797.62   81.89
   8  -2   8  754.02   82.49
  -8   2   8  764.42   82.49
  -8  -2  -8  782.02   83.19
  -8  -2   8  791.02   82.39
  -8  -2   8  887.01   82.49
  -8  -2   8  835.22   86.09
  -8  -2   8  654.53   87.89
  -8  -2   8  893.11   83.09
   8  -4   8 3749.02  390.46
   8  -4   8 3491.85  391.96
   8  -4   8 3639.64  390.66
  -8  -4  -8 4064.89  392.06
  -8  -4   8 3986.10  394.66
  -8  -4   8 3935.71  391.76
  -8  -4   8 3887.21  390.56
  -8  -6  -8   25.90    8.70
  -8  -6  -8   50.39    9.90
   8  -6   8   40.80    5.60
  -8  -6   8   53.09   13.20
  -8  -6   8   40.40    8.30
  -8  -6   8   35.40    6.30
  -8  -6   8   16.90    6.70
  -8  -8  -8  343.67   33.90
  -8  -8  -8  376.86   37.60
  -8  -8   8  336.07   39.00
  -8  -8   8  247.88   34.00
  -8  -8   8  229.18   32.70
  -8 -10  -8  472.05   49.30
  -8  -1  -9   -0.60    4.40
   8  -1   9    4.90    7.90
  -8   1   9    1.00    4.10
  -8   1   9    1.10    3.40
  -8  -1   9    1.50    3.50
  -8  -1   9    3.90    7.40
  -8  -1   9    1.70    4.20
  -8   1  -9    4.30    3.20
  -8   3   9   17.90    5.50
  -8   3   9   16.60    3.40
   8  -3   9   27.40    5.90
   8  -3   9    9.60    5.90
  -8  -3  -9   14.00    6.40
  -8  -3   9    8.00    6.60
  -8  -3   9   12.60    8.10
  -8  -3   9   15.10    5.10
  -8  -3   9   11.90    5.20
  -8  -5  -9    7.40    7.00
   8  -5   9  -15.60   15.70
   8  -5   9    0.70    1.90
  -8  -5   9   18.50    9.40
  -8  -5   9   10.70    7.50
  -8  -5   9   10.30    5.40
  -8  -5   9    9.50    4.90
  -8  -7  -9   10.80    7.70
  -8  -7  -9   15.80    7.50
  -8  -7   9   16.90   11.10
  -8  -7   9   21.70    6.30
  -8  -7   9   11.60    5.40
  -8  -9  -9   -1.70    3.30
  -8  -9  -9    1.60    6.60
  -8  -9   9    4.20    4.30
  -8  -9   9   -6.90    5.10
  -8   0  10   55.69    8.20
  -8   0  10   58.49    8.60
  -8   0 -10   62.29    9.40
   8   0  10   74.49   20.80
  -8   2  10   86.69   11.80
  -8  -2 -10   79.69   12.60
   8  -2  10   94.69   12.60
  -8   2  10   83.49   10.40
  -8  -2  10  100.19   11.40
  -8  -2  10   55.99   14.20
   8  -4  10  666.63   72.19
  -8  -4  10  686.83   76.89
  -8  -4  10  711.13   71.69
  -8  -4  10  690.73   72.09
  -8  -6 -10  181.38   27.00
  -8  -6  10  242.88   25.00
  -8  -6  10  255.67   25.80
  -8  -6  10  208.78   31.40
  -8  -8 -10    8.40    7.80
  -8  -8 -10   10.60    4.10
  -8  -8  10   27.60    5.60
  -8  -8  10   14.80    6.10
   8  -1  11  123.79   17.80
  -8  -1 -11  112.99   15.70
  -8   1  11  134.09   14.40
  -8   1  11  117.29   15.00
  -8  -1  11  111.49   14.90
  -8   1 -11  122.59   14.60
  -8  -1  11  113.59   15.10
  -8  -3 -11   47.00    9.30
   8  -3  11   35.50    8.70
  -8   3  11   26.80    4.80
  -8  -3  11   11.60   10.40
  -8  -3  11   43.00    7.30
  -8  -3  11   36.50    7.50
  -8  -5 -11   35.20   10.10
   8  -5  11    9.90   19.20
  -8  -5  11   44.50    8.30
  -8  -5  11   24.60   12.90
  -8  -5  11   40.30    7.50
  -8  -7 -11   18.40    8.80
  -8  -7  11   16.00    5.70
  -8  -7  11    9.70    7.10
  -8  -7  11   -6.50   10.10
   8   0  12   84.89   30.60
  -8   0  12  150.48   16.60
  -8   0  12  116.19   16.10
   8  -2  12  361.36   43.30
  -8  -2 -12  375.56   42.70
  -8   2  12  425.66   40.70
  -8   2  12  382.76   42.00
  -8  -2  12  324.37   46.10
  -8  -2  12  408.36   41.80
  -8  -2  12  403.96   41.90
   8  -4  12  641.94   67.09
  -8  -4 -12  602.54   66.29
  -8  -4  12  692.23   65.39
  -8  -4  12  521.35   69.89
  -8  -6 -12  134.09   19.80
  -8  -6  12  141.39   18.70
  -8  -6  12  194.78   31.90
  -8  -6  12  147.99   17.80
  -8  -8 -12   65.19   11.40
  -8  -8  12   58.99   11.70
  -8   1  13   31.30    6.90
  -8   1  13   43.90    9.00
  -8  -1 -13   34.90    8.30
   8  -1  13   48.80   24.30
  -8  -1  13   36.20    8.20
  -8   1 -13   32.00    6.80
  -8  -1  13   32.30    8.10
   8  -3  13   19.30   15.60
  -8   3  13   32.10    4.90
  -8  -3 -13   11.90    8.30
  -8  -3  13   30.10    8.20
  -8  -3  13   16.30   11.70
  -8  -3  13   30.80    8.00
  -8  -5 -13   22.40    9.40
  -8  -5  13   24.80    7.70
  -8  -5  13  -10.40   17.30
  -8  -5  13   20.60    7.20
  -8  -7 -13   25.70    8.80
  -8  -7  13   14.90    5.50
  -8  -7  13   10.20    7.60
  -8   0  14   56.69    9.80
  -8   0 -14   33.50    8.20
  -8   0  14   40.40    8.20
  -8   2  14  273.37   29.20
  -8   2  14  266.97   30.90
   8  -2  14  221.58   41.00
  -8  -2 -14  301.97   31.90
  -8  -2  14  261.57   30.70
  -8  -2  14  269.47   30.70
  -8  -4 -14   61.79   12.50
   8  -4  14   42.50   32.60
  -8  -4  14   77.29   11.40
  -8  -4  14   47.70   17.70
  -8  -4  14   79.39   11.20
  -8  -6  14   91.49   13.90
  -8  -6  14  106.09   13.80
  -8   1  15    2.90    7.60
  -8  -1  15   -1.40    7.00
  -8  -1  15    1.20    8.40
  -8  -3 -15    9.90    8.00
  -8  -3  15   -4.50    6.70
  -8  -3  15    4.90    7.60
  -8  -5 -15   -1.10    7.20
  -8  -5  15    2.90    6.60
  -8  -5  15    2.40    6.40
  -8   0  16   96.49   11.50
  -8   0 -16   60.79   10.70
  -8   0  16   93.99   13.00
  -8   2  16  201.98   23.20
  -8  -2 -16  217.38   25.90
  -8  -2  16  239.48   25.80
  -8  -4 -16   71.39   12.40
  -8  -4  16   75.09   11.70
  -8   1  17    7.60    7.30
  -8   1  17    9.90    5.00
  -8  -1  17   17.40    7.10
  -8  -1  17    1.80    6.30
  -8  -3 -17    0.70   10.30
  -8  -3  17    2.10    7.20
  -8  -3  17    6.20    6.50
  -9  -1   0 1363.46  144.19
  -9   1   0 1432.46  144.09
   9   1   0 1365.36  150.98
  -9  -1   0 1451.95  144.39
  -9  -3   0  144.89   16.40
  -9  -3   0  159.98   18.30
   9  -3   0  151.78   25.10
   9   3   0  210.18   27.00
  -9  -3   0  166.28   17.80
  -9  -3   0  151.38   25.80
  -9   3   0  118.09   23.70
  -9  -5   0  344.87   39.60
  -9  -5   0  419.26   41.10
   9   5   0  412.86   60.89
   9  -7   0   53.99    9.50
  -9  -7   0   66.09   13.00
   9  -7   0   81.69   14.00
  -9  -7   0   69.69   10.50
  -9  -7   0   53.59    8.40
   9  -9   0   71.09    9.40
   9  -9   0   65.39   13.20
  -9  -9   0   60.59    9.90
  -9  -9   0   48.30    8.10
   9   0   1    3.10    5.90
  -9   0  -1   -4.30    4.30
   9   0  -1   -0.30    5.70
  -9   0  -1    0.10    2.10
  -9   0   1   12.40    6.20
  -9   0   1    1.60    2.40
  -9  -2  -1  251.57   29.80
  -9  -2  -1  206.58   20.60
   9   2  -1  144.59   25.90
   9  -2   1  181.38   20.10
   9  -2   1  185.28   27.10
  -9   2   1  229.88   28.50
  -9  -2  -1  182.58   20.20
  -9   2   1  149.19   19.70
  -9  -2   1  212.38   20.60
  -9  -2   1  206.28   28.50
   9   2   1  170.68   27.10
  -9  -2   1  183.78   20.90
  -9  -4  -1   36.60    4.70
  -9   4   1   39.70   14.10
   9   4  -1   18.10    9.80
  -9  -4  -1   57.79   16.10
  -9  -4  -1   21.70    6.10
   9  -4   1   38.00    7.90
  -9  -4  -1   22.90    6.60
  -9  -4   1   21.30    9.40
  -9  -4   1   44.00    5.10
   9   4   1   25.10   10.60
   9  -4  -1   58.19   16.70
  -9  -4   1   28.00    6.40
  -9  -4   1   55.59    8.70
  -9  -6  -1    2.60    6.40
   9  -6   1   10.30    7.10
  -9  -6  -1    7.80    3.00
   9  -6   1    5.40    3.30
  -9  -6  -1    9.70    5.50
  -9  -6   1    5.50    3.10
  -9  -6   1    0.00    6.00
   9  -6  -1    2.60    6.10
  -9  -6   1    4.70    5.20
  -9  -8  -1    2.10    5.80
  -9  -8  -1   -1.80    3.60
  -9  -8  -1   -0.10    1.60
   9  -8   1    3.80    6.40
   9  -8   1   -0.70    4.00
  -9  -8   1    3.60    3.10
  -9  -8   1    2.80    5.40
   9  -8  -1    4.30    4.50
  -9  -8   1   14.50   10.40
   9  -8  -1    6.60    7.00
  -9  -8   1    3.50    4.30
  -9 -10  -1   -1.90    4.40
  -9 -10  -1    5.00    4.30
   9 -10   1    1.80    3.40
   9 -10  -1   -3.60    4.00
  -9 -10   1    5.10    4.30
  -9 -10   1   -0.60    3.90
  -9   1   2  505.85   60.89
   9   1  -2  583.24   62.19
   9  -1   2  557.44   61.29
  -9  -1   2  456.65   60.59
  -9  -1   2  527.55   54.59
   9  -1  -2  595.74   62.69
  -9  -1   2  503.45   53.29
  -9   1  -2  524.75   60.79
  -9   1  -2  467.35   53.49
  -9  -3  -2  412.36   41.20
  -9  -3  -2  420.76   39.60
  -9  -3  -2  304.57   47.30
  -9   3   2  335.57   48.40
   9  -3   2  405.36   40.80
  -9   3  -2  335.37   47.00
   9  -3  -2  388.26   50.49
   9   3   2  404.36   49.80
  -9  -3   2  376.16   48.70
   9  -5   2  177.88   21.80
  -9  -5  -2  257.37   23.90
  -9  -5  -2  211.28   21.80
  -9  -5  -2  187.58   24.50
   9  -5   2  233.58   25.50
  -9  -5  -2  290.97   39.20
  -9  -5   2  162.68   21.90
  -9  -5   2  225.78   25.60
  -9  -5   2  199.98   23.50
  -9  -7  -2  110.69   17.00
   9  -7   2  126.29   17.10
   9  -7   2   90.19   12.20
  -9  -7  -2   94.59   14.40
  -9  -7  -2  108.89   12.10
  -9  -7   2   75.89   12.20
  -9  -7   2  130.49   18.40
  -9  -7   2   86.89   13.90
  -9  -9  -2    7.10    7.60
  -9  -9  -2   25.90    7.70
   9  -9   2   23.50    8.70
  -9  -9  -2   17.70    4.90
   9  -9   2   19.10    4.60
  -9  -9   2    9.80    5.30
   9  -9  -2    9.80    8.40
   9  -9  -2   11.00    5.20
  -9  -9   2   12.90    7.70
  -9  -9   2   14.90    9.40
  -9   0  -3   -1.20    2.20
  -9   0  -3   -0.60    4.40
  -9   0   3   -0.10    1.50
  -9   0   3   -1.80    2.70
   9   0   3   -5.10    4.00
   9   0  -3    0.70    4.70
  -9   0   3   -4.80    4.60
  -9   2   3   36.40    5.30
   9   2  -3   29.20    9.70
   9  -2   3   32.80    9.50
  -9   2   3   45.40   12.20
  -9  -2  -3   32.40    6.10
  -9  -2  -3   41.30    5.00
  -9  -2  -3   50.49   13.90
  -9  -2   3   27.50   11.10
  -9  -2   3   46.90    6.60
  -9   2  -3   20.40    8.40
  -9  -2   3   33.60    4.60
   9  -2  -3   25.70    9.90
   9   2   3   32.60    9.70
  -9  -2   3   37.30    7.20
   9  -4   3   28.50    6.70
  -9  -4  -3   27.40    6.80
  -9  -4  -3   45.30    5.20
  -9  -4  -3   58.79   28.20
   9   4  -3   21.70   10.50
  -9  -4  -3   36.70    7.40
  -9   4   3   44.50   16.30
  -9  -4   3   36.00    7.20
  -9  -4   3   59.09   10.00
   9   4   3   38.00   16.50
   9  -4  -3   56.19   15.90
  -9  -4   3   34.70   14.10
  -9  -4   3   46.50    6.00
  -9  -6  -3    5.70    5.90
  -9  -6  -3   -0.30    2.90
   9  -6   3    2.80    5.70
   9  -6   3    1.60    3.10
  -9  -6   3    0.60    6.70
  -9  -6   3    2.30    3.80
  -9  -6   3    7.10    3.80
  -9  -6   3   -5.40    5.10
  -9  -8  -3    3.90    7.30
  -9  -8  -3   -1.80    3.30
   9  -8   3   -3.30    5.80
  -9  -8  -3    4.10    6.40
   9  -8   3    2.10    3.40
  -9  -8   3    1.10    3.50
   9  -8  -3    4.60    7.30
  -9  -8   3    2.70    5.20
  -9  -8   3    4.20    4.40
  -9  -8   3    9.40    8.20
   9 -10   3   -1.10    3.20
  -9 -10  -3    3.40    3.60
  -9 -10  -3   -5.40    4.70
   9 -10  -3   -3.30    4.30
  -9 -10   3    0.60    4.10
   9   1  -4  161.18   25.60
  -9  -1  -4  165.48   25.40
  -9   1   4  172.38   25.70
  -9   1   4  180.68   18.60
   9  -1   4  153.28   23.80
  -9  -1  -4  151.18   18.70
  -9   1   4  187.38   18.20
   9   1   4  183.38   25.40
   9  -1  -4  166.98   26.20
  -9  -1   4  178.68   20.40
  -9   1  -4  144.39   18.30
  -9  -1   4  160.28   18.00
  -9   1  -4  209.28   25.60
  -9  -1   4  184.58   26.20
  -9   3   4   19.60    3.30
  -9  -3  -4   15.20    9.10
  -9  -3  -4   24.20    3.90
  -9  -3  -4   23.00    5.80
  -9   3   4   34.70   12.30
   9   3  -4   21.20    9.30
   9  -3  -4   27.50   15.10
   9   3   4   23.80    8.60
  -9  -3   4   42.00    6.60
  -9  -3   4   35.80   12.20
   9  -5   4   29.30    4.20
  -9   5   4   32.20   20.40
  -9  -5  -4   21.40    4.20
  -9  -5  -4   23.70    7.00
  -9  -5  -4   31.30    7.20
   9  -5   4   24.00    6.50
  -9  -5   4   31.60    5.20
  -9  -5   4   24.30    5.30
  -9  -5   4   35.70    9.90
  -9  -5   4   34.20    7.80
  -9  -7  -4   18.80    7.70
   9  -7   4   15.50    6.10
   9  -7   4   16.60    7.80
  -9  -7  -4   21.70    7.40
  -9  -7  -4   29.10    5.00
  -9  -7   4   20.70    4.90
  -9  -7   4   16.60    6.60
  -9  -7   4   19.20    5.60
  -9  -7   4   10.40    8.50
  -9  -9  -4    5.40    3.80
   9  -9   4    5.40    3.70
  -9  -9  -4   12.20    6.90
  -9  -9   4   10.70    5.30
  -9  -9   4    7.40    4.90
  -9   0   5   -0.20    2.20
   9   0   5    1.90    5.30
  -9   0   5    2.80    3.50
  -9   0   5   -0.20    5.00
  -9   0  -5    1.20    5.60
   9   0  -5    4.80    5.30
  -9   0  -5    0.50    2.60
  -9  -2  -5  223.68   24.40
   9   2  -5  173.98   30.30
  -9   2   5  197.38   23.10
  -9  -2  -5  204.68   30.80
  -9   2   5  190.88   23.40
  -9  -2   5  267.97   26.60
  -9  -2   5  244.98   23.40
   9  -2  -5  209.08   33.70
  -9  -2   5  260.97   24.40
  -9  -4  -5   70.39   12.40
  -9   4   5  159.38   30.00
  -9  -4  -5   97.19   13.20
  -9  -4  -5  100.89   10.30
   9  -4   5   90.39   11.90
  -9  -4   5   93.19   11.80
  -9  -4   5  122.59   15.90
  -9  -4   5   98.19   13.40
  -9  -4   5   74.39   10.80
   9  -6   5    2.40    2.70
  -9  -6  -5    4.70    6.30
   9  -6   5    6.20    5.40
  -9  -6  -5   -4.40    5.10
  -9  -6  -5    2.00    3.20
  -9  -6   5    0.70    7.30
  -9  -6   5    5.20    4.40
  -9  -6   5    1.10    4.30
  -9  -6   5    6.20    6.80
   9  -8   5    1.50    7.80
   9  -8   5    2.50    3.20
  -9  -8  -5    7.00    6.70
  -9  -8  -5   -5.90    6.40
  -9  -8  -5    5.10    3.80
  -9  -8   5    1.00    3.60
  -9  -8   5    4.80    5.10
  -9  -8   5    4.50    5.60
  -9  -8   5    6.60    8.40
  -9 -10  -5    1.10    3.40
  -9 -10  -5    5.80    5.30
  -9 -10   5    1.40    4.70
   9 -10  -5   -1.60    4.10
  -9   1   6   39.20    5.00
  -9   1   6   17.90    8.40
  -9   1   6   31.90    5.50
  -9   1   6   31.90    5.50
  -9  -1  -6   30.00    5.80
   9   1  -6   15.10    7.10
  -9  -1   6   15.90    6.90
  -9   1  -6   26.20    4.40
  -9  -1   6   22.00    5.70
  -9  -1   6   31.10    4.50
   9  -1  -6   17.10    8.80
  -9  -1   6   16.70    7.70
  -9  -1   6   49.20    6.30
  -9  -3  -6   18.90    4.60
  -9   3   6   18.50   12.40
   9  -3   6   17.60    3.60
  -9   3   6   23.90    3.40
  -9  -3  -6   21.70    6.40
  -9  -3   6   24.40    6.20
  -9  -3   6   22.00    5.60
  -9  -3   6   27.60    4.40
  -9  -3   6    1.40   13.60
  -9  -3   6   32.90    8.50
   9  -3  -6   16.10   10.00
  -9  -5  -6  147.39   16.20
   9  -5   6  159.18   18.70
   9  -5   6  143.79   15.90
  -9  -5  -6  148.19   19.40
  -9  -5   6  160.68   17.10
  -9  -5   6  143.49   17.00
  -9  -5   6  134.39   18.70
  -9  -5   6  152.88   21.90
  -9  -7  -6   17.80    4.50
   9  -7   6   15.40    7.80
  -9  -7  -6   12.80    7.90
  -9  -7  -6   14.60    7.00
   9  -7   6   11.10    3.50
  -9  -7   6   15.30    5.60
  -9  -7   6   10.50    9.70
  -9  -7   6   15.80    4.90
  -9  -7   6   13.80    6.90
  -9  -9  -6    4.60    6.20
  -9  -9  -6    3.00    3.50
   9  -9   6    1.30    3.20
  -9  -9   6    2.80    3.60
  -9  -9   6    6.50    5.20
  -9  -9   6    7.80    4.80
  -9   0   7    0.20    7.30
  -9   0   7    4.30    4.00
  -9   0  -7   -0.80    2.90
  -9   0   7    0.70    3.90
  -9   0   7    0.70    2.80
  -9   2   7    3.50    8.10
  -9   2   7    2.80    2.70
  -9   2   7    3.30    3.80
  -9  -2  -7    0.20    4.50
  -9  -2  -7    4.10    2.20
  -9  -2   7    2.80    4.90
  -9  -2   7   10.60    8.00
  -9  -2   7    3.30    4.90
  -9  -2   7   -1.00    2.70
  -9  -2   7    5.10    6.80
  -9  -4  -7    9.70    6.00
  -9  -4  -7   13.20    5.20
  -9  -4   7   15.00    6.60
  -9  -4   7    9.40    4.00
  -9  -4   7    8.20    5.00
  -9  -4   7   17.30    8.40
  -9  -6  -7    9.00    6.30
  -9  -6  -7    6.50    6.90
  -9  -6  -7    9.00    4.30
   9  -6   7   -2.20    4.60
   9  -6   7    2.40    1.60
  -9  -6   7    0.60    8.60
  -9  -6   7   12.60    7.10
  -9  -6   7    8.30    4.90
  -9  -6   7   -0.40    4.30
  -9  -8  -7   -1.20    4.60
  -9  -8  -7    5.30    6.60
  -9  -8   7    7.60    5.70
  -9  -8   7   -1.10    5.10
  -9  -8   7  -12.10    7.60
  -9 -10  -7   -7.30    3.00
  -9 -10  -7   -0.50    5.60
  -9 -10   7    1.40    6.70
  -9   1   8  473.55   51.29
  -9   1   8  546.25   50.99
  -9  -1  -8  464.15   51.89
  -9  -1   8  513.05   51.29
  -9  -1   8  450.35   51.59
  -9  -1   8  477.15   54.79
  -9   1  -8  482.45   51.29
  -9  -1   8  506.95   51.29
  -9   3   8  245.18   28.40
  -9  -3  -8  332.07   31.10
  -9  -3   8  260.37   29.20
  -9  -3   8  297.37   30.70
  -9  -3   8  285.07   29.60
  -9  -3   8  236.28   32.80
  -9  -5  -8  135.49   17.20
  -9  -5  -8  135.19   18.60
  -9  -5   8  124.59   14.60
  -9  -5   8  113.99   16.90
  -9  -5   8   79.59   18.30
  -9  -5   8  120.09   14.60
  -9  -7  -8  189.78   26.60
  -9  -7  -8  204.18   23.20
  -9  -7  -8  186.98   25.80
  -9  -7   8  258.17   30.40
  -9  -7   8  221.28   24.60
  -9  -7   8  185.78   24.00
  -9  -7   8  258.87   23.70
  -9  -9  -8   61.69    9.90
  -9  -9  -8   35.50    5.40
  -9  -9   8   37.90    5.70
  -9  -9   8   18.20    6.40
  -9   0  -9   -5.40    3.60
  -9   0   9   -0.50    4.00
  -9   0   9   -1.00    3.90
  -9   2   9    0.00    3.10
  -9   2   9    2.60    4.80
   9  -2   9   17.30   20.60
  -9  -2  -9   -0.80    5.30
  -9  -2   9    1.10    5.10
  -9  -2   9    1.60    4.00
  -9  -2   9   -0.70    7.20
  -9  -2   9    4.20    5.40
  -9  -4  -9   -1.50    4.40
  -9  -4  -9    1.40    6.70
  -9  -4   9    1.90    8.60
  -9  -4   9    6.60    4.40
  -9  -4   9    7.20    7.30
  -9  -4   9    2.80    5.00
  -9  -6  -9    1.60    7.00
  -9  -6   9   -8.10    8.40
  -9  -6   9   -0.20    4.90
  -9  -6   9    4.00    6.70
  -9  -6   9   -1.70    5.20
  -9  -8  -9  -10.90    6.50
  -9  -8  -9    3.20    3.20
  -9  -8   9    2.80    5.50
  -9  -8   9    0.80    4.40
  -9   1  10  139.59   14.80
  -9  -1 -10  128.89   16.40
  -9   1 -10  113.39   14.70
   9  -3  10  127.99   24.80
  -9  -3 -10   86.09   12.70
  -9   3  10   68.89    9.10
  -9  -3  10   71.99   10.80
  -9  -3  10   77.29   11.00
  -9  -3  10   80.49   15.80
  -9  -5 -10  243.48   31.70
  -9  -5  10  313.47   30.30
  -9  -5  10  276.87   30.40
  -9  -5  10  255.37   36.00
  -9  -7 -10   16.60    8.30
  -9  -7  10   23.20    5.80
  -9  -7  10    3.00    5.90
  -9  -7  10   14.50   12.80
  -9  -9  10   -1.00    8.20
  -9  -9  10    5.70    3.50
  -9   0 -11   -1.50    4.90
  -9   0  11    2.90    5.10
  -9   0  11    0.10    4.90
  -9  -2 -11   15.30    7.40
   9  -2  11    9.00   25.70
  -9   2  11   25.90    6.90
  -9   2  11   20.80    5.20
  -9  -2  11   20.30   10.80
  -9  -2  11   22.50    6.00
  -9  -2  11   23.10    6.90
  -9  -4 -11   16.60    8.30
  -9  -4  11   13.60    6.60
  -9  -4  11    6.90    6.40
  -9  -4  11   33.30   11.70
  -9  -6  11   -2.70    8.80
  -9  -8 -11    3.90    7.30
  -9  -8  11   -2.00    4.90
  -9  -8  11    1.80    4.30
  -9   1  12  153.48   18.80
  -9  -1 -12  140.39   19.40
  -9   1  12  179.28   18.00
  -9  -1  12  178.68   19.10
  -9   1 -12  127.59   17.60
  -9  -1  12  154.88   18.90
  -9   3  12  111.59   13.20
  -9  -3 -12  110.19   17.00
  -9  -3  12  130.69   15.30
  -9  -3  12  125.09   16.00
  -9  -3  12  106.89   20.90
  -9  -5 -12   76.69   14.80
  -9  -5  12  104.69   14.50
  -9  -5  12  105.69   14.20
  -9  -5  12  129.69   22.00
  -9  -7 -12   73.59   13.50
  -9  -7  12   80.69   10.60
  -9   0 -13    2.30    5.00
  -9   0  13    0.30    6.40
  -9   0  13    3.40    6.20
  -9   2  13   10.70    4.60
  -9  -2 -13    6.90    7.20
  -9   2  13    9.80    7.00
  -9  -2  13    5.60    7.80
  -9  -2  13    9.20    6.30
  -9  -4 -13    9.20    8.90
  -9  -4  13   11.20    6.70
  -9  -4  13   22.10   11.10
  -9  -4  13    0.80    9.70
  -9  -6 -13    3.80    7.50
  -9  -6  13   -1.20    6.10
  -9  -6  13    2.40    7.10
  -9  -1 -14   26.90    8.30
  -9   1  14   27.80    6.40
  -9   1  14   16.40    7.80
  -9  -1  14   16.40    8.00
  -9  -1  14   31.30    8.20
  -9  -3 -14   26.40    9.40
  -9  -3  14   20.70    8.80
  -9  -3  14   20.50    7.60
  -9  -5 -14   17.10    8.20
  -9  -5  14   10.10    6.80
  -9  -5  14    8.30    6.90
  -9   0  15    1.50    6.10
  -9   0  15    4.10    6.90
  -9   0 -15    2.70    4.70
  -9   2  15   -3.80    3.90
  -9  -2 -15    5.10    6.70
  -9  -2  15    2.60    6.20
  -9  -2  15    4.80    7.90
  -9  -4 -15   -4.40    6.80
  -9  -4  15    1.60    7.80
  -9  -4  15   -3.00    6.00
  -9   1  16   70.99   13.00
  -9  -1 -16   94.89   13.60
  -9   1  16   96.19   12.20
  -9  -1  16  112.79   14.60
  -9  -1  16   94.59   13.40
  -9  -3 -16   47.60    9.70
  -9  -3  16   45.20    9.00
  -9  -3  16   54.39   10.10
  -9   0  17   -5.90    6.30
  -9   0  17   -6.00    5.10
  -9  -2 -17   -0.10    6.20
  -9  -2  17   -1.20    6.50
  -9  -2  17    2.90    5.50
 -10   0   0 3555.74  330.17
 -10   0   0 3200.88  320.57
  10   0   0 2651.73  327.47
 -10   2   0 1847.22  213.68
  10   2   0 2147.69  223.18
  10  -2   0 1995.20  222.48
 -10  -2   0 1890.11  214.28
 -10  -2   0 2235.18  214.48
 -10   2   0 2489.35  224.68
 -10  -4   0 1401.86  141.29
 -10  -4   0 1350.96  152.78
 -10  -4   0 1325.57  142.29
 -10  -4   0 1396.36  143.39
  10   4   0 1417.76  153.68
  10  -6   0 1859.71  188.08
 -10  -6   0 1851.11  186.48
 -10  -6   0 1696.63  187.78
 -10  -8   0  201.18   22.10
 -10  -8   0  147.99   23.30
  10  -8   0  203.88   22.00
 -10  -8   0  228.88   21.60
 -10 -10   0  215.38   24.10
 -10 -10   0  243.68   24.80
  10 -10   0  207.48   23.80
 -10  -1  -1    4.30    3.10
  10  -1   1   -0.30    4.90
 -10   1   1    6.50    2.70
 -10  -1  -1    0.90    6.50
  10   1  -1    7.70    7.30
 -10   1   1   17.30    8.60
 -10   1  -1    7.90    6.70
 -10  -1   1    2.10    6.60
  10   1   1   13.70    8.10
 -10  -1   1    3.60    2.80
 -10  -1   1    3.90    3.10
 -10   1  -1    2.30    2.10
  10  -1  -1   -2.30    4.90
 -10   3   1    1.80    7.70
 -10  -3  -1   -1.30    1.40
 -10  -3  -1   -1.10    3.70
  10  -3   1   -0.70    2.70
 -10  -3  -1    2.90    7.10
 -10  -3  -1   -1.00    2.80
  10  -3   1    0.30    6.60
  10   3  -1   -8.60    5.50
 -10  -3   1    0.80    3.90
 -10  -3   1    4.10    6.90
 -10  -3   1   -1.30    1.70
  10   3   1   -9.80    6.00
  10  -3  -1    6.00    8.40
 -10   3  -1    5.50    6.00
 -10  -3   1    1.10    3.60
 -10  -5  -1    1.80    2.20
  10  -5   1   -1.00    2.40
  10  -5   1   -8.10    4.40
 -10  -5  -1   -1.30    4.70
 -10  -5  -1    0.60    4.60
 -10  -5   1   -3.30    4.80
 -10  -5   1   -3.60    2.50
 -10  -5   1   -0.50    4.90
 -10  -7  -1   18.30    6.90
  10  -7   1   18.20    6.40
 -10  -7  -1   11.10    7.80
  10  -7   1    2.10    6.10
 -10  -7  -1    9.50    3.70
 -10  -7   1   15.80    4.50
 -10  -7   1   10.80    6.60
 -10  -7   1   13.60    7.90
  10  -7  -1    8.90    6.70
 -10  -7   1    9.60    4.10
  10  -9   1  -19.80    9.10
  10  -9   1    1.70    3.50
 -10  -9  -1    7.30    4.30
 -10  -9  -1    1.30    5.50
  10  -9  -1    3.90    4.30
  10  -9  -1   -6.00    8.50
 -10  -9   1    6.00    4.50
 -10  -9   1   -0.90    5.20
  10   0   2  190.48   30.60
  10   0  -2  284.67   34.10
 -10   0   2  251.37   24.40
 -10   0  -2  233.58   32.20
 -10   0  -2  198.18   24.10
 -10  -2  -2  109.49   22.70
 -10   2   2  133.09   23.00
 -10   2   2  104.19   13.80
  10   2  -2  130.59   21.80
  10  -2   2   93.59   19.80
  10  -2  -2  105.09   22.30
 -10   2  -2  147.69   13.60
  10   2   2  139.59   23.00
 -10  -2   2  142.99   14.80
 -10  -2   2  130.89   22.90
 -10  -2   2   85.09   16.80
 -10   2  -2  130.89   22.20
 -10  -2   2  137.79   13.40
  10   4  -2   11.00    9.40
  10  -4   2   19.50    5.00
 -10   4   2   35.90   14.90
 -10  -4  -2   22.10    5.70
 -10  -4  -2   11.80   13.10
 -10  -4  -2   10.40    5.00
 -10  -4   2   40.40    7.90
 -10  -4   2    8.80   10.30
 -10  -4   2   12.70    5.40
 -10  -4   2   18.50    3.50
  10   4   2    7.80   11.90
  10  -4  -2   29.00   13.50
 -10  -6  -2   20.70    6.60
 -10  -6  -2   10.30    3.30
 -10  -6  -2   18.00    6.80
  10  -6   2   27.40    7.30
  10  -6   2   12.50    3.70
 -10  -6   2   10.40    6.00
 -10  -6   2   14.90    4.20
 -10  -6   2   20.60    8.60
 -10  -8  -2   14.50    4.00
 -10  -8  -2    0.50    6.80
 -10  -8  -2    6.00    6.30
  10  -8   2   13.70    4.10
 -10  -8   2   11.40    4.90
 -10  -8   2   11.00    5.90
 -10  -8   2    9.50    3.90
  10  -8  -2    9.60    7.60
 -10  -8   2   11.60    8.50
 -10 -10  -2   20.90    4.50
  10 -10   2   11.20    3.80
 -10 -10  -2   34.20    6.90
 -10 -10   2    9.80    4.80
 -10 -10   2   11.00    4.80
  10 -10  -2   31.20    5.20
 -10  -1  -3    3.90    7.10
  10   1  -3    2.70    6.20
 -10   1   3   -1.00    2.80
  10  -1   3   -3.20    4.30
 -10   1   3   -0.10    1.90
 -10  -1  -3   -1.00    2.90
 -10   1   3   -5.60    5.80
 -10  -1   3    0.10    3.30
 -10  -1   3   -0.30    6.30
  10   1   3   10.80    6.40
 -10   1  -3    2.30    2.00
  10  -1  -3   10.70    7.00
 -10  -1   3   -0.90    3.50
 -10  -1   3   -0.20    1.60
 -10   1  -3    7.90    6.50
  10  -3   3   -2.50    1.10
 -10  -3  -3    0.60    3.80
 -10  -3  -3   -1.40    7.40
 -10   3   3   -6.40    7.90
  10   3  -3  -11.90    7.90
 -10  -3  -3    0.40    2.50
 -10  -3   3    3.30    4.10
  10   3   3    8.30    7.30
  10  -3  -3   -0.50    8.10
 -10  -3   3   -3.50    7.50
 -10  -3   3   -0.30    4.20
 -10  -3   3    4.30    2.30
  10  -5   3   -6.10    3.20
 -10  -5  -3   -2.60    2.00
  10  -5   3    0.00    1.90
 -10  -5  -3    0.40    4.20
 -10  -5  -3   -2.00    4.90
 -10  -5   3    0.40    3.00
 -10  -5   3    3.90    5.50
 -10  -7  -3    5.40    3.30
 -10  -7  -3   -5.10    5.70
  10  -7   3   -3.10    5.60
 -10  -7  -3   -5.30    5.70
 -10  -7   3   -2.50    3.90
 -10  -7   3    5.70    6.10
 -10  -7   3    8.10    7.50
 -10  -7   3   -1.40    3.90
 -10  -9  -3    6.40    6.50
  10  -9   3    3.40    3.10
 -10  -9  -3    0.30    3.50
 -10  -9  -3    7.60    8.10
 -10  -9   3   -2.30    4.20
  10  -9  -3   -1.20    4.10
 -10  -9   3    6.10    8.00
  10  -9  -3   -4.40    8.10
 -10  -9   3    2.90    4.90
 -10   0  -4  521.55   53.09
 -10   0  -4  520.35   60.99
 -10   0   4  504.35   52.59
 -10   0   4  501.25   53.09
  10   0  -4  535.15   61.99
 -10   0   4  471.95   60.99
 -10  -2  -4  459.45   48.20
 -10   2   4  527.45   58.29
 -10  -2  -4  416.46   56.49
 -10  -2   4  483.35   49.70
 -10  -2   4  470.65   64.79
 -10   2  -4  413.46   47.10
  10  -2  -4  489.05   59.49
  10   2   4  436.96   56.39
 -10  -4  -4  792.92   84.49
 -10   4   4  700.23   95.49
 -10  -4  -4  872.31   82.89
 -10  -4  -4  791.42   84.29
 -10  -4   4  823.22   83.19
  10  -6   4  309.87   36.80
 -10  -6  -4  350.76   37.10
 -10  -6  -4  376.36   40.50
 -10  -6  -4  350.56   39.00
 -10  -6   4  374.06   37.40
 -10  -6   4  362.66   41.80
 -10  -6   4  378.26   39.10
 -10  -8  -4   67.89    8.70
 -10  -8  -4   53.79   11.50
 -10  -8  -4   86.79   11.90
  10  -8   4   59.49    8.00
  10  -8  -4   38.60   12.00
 -10  -8   4   73.39    9.20
 -10  -8   4   48.50   12.70
 -10  -8   4   48.70    7.70
 -10  -8   4   69.99   10.20
 -10 -10  -4  135.39   15.70
  10 -10  -4  119.89   14.40
 -10 -10   4  105.49   14.30
 -10   1   5   19.80    4.90
 -10   1   5   29.30    4.40
  10   1  -5   22.90   10.30
 -10   1   5   14.30    8.40
 -10  -1  -5   29.00    5.50
 -10  -1   5   24.40    7.10
 -10  -1   5   29.70    5.50
 -10  -1   5    9.70    7.80
 -10  -1   5   21.50    3.90
 -10   1  -5   19.70    3.90
  10  -1  -5   22.70   11.40
 -10  -3  -5   -0.80    2.30
 -10   3   5   10.70    9.60
 -10  -3  -5    0.40    4.70
 -10   3   5    1.10    2.20
 -10  -3   5   -4.40    2.40
 -10  -3   5    3.50    5.70
 -10  -3   5    8.50    5.20
  10  -3  -5   -2.10   11.70
 -10  -5  -5    1.30    2.20
 -10  -5  -5    3.40    4.40
  10  -5   5   -1.90    2.60
 -10  -5  -5    0.60    5.50
 -10  -5   5    1.40    4.40
 -10  -5   5   -4.10    6.60
 -10  -5   5   -3.90    5.80
 -10  -5   5   -4.20    3.10
 -10  -7  -5    5.70    3.40
 -10  -7  -5    6.20    6.50
  10  -7   5    0.30    1.90
 -10  -7  -5    8.00    6.80
 -10  -7   5   16.10    4.70
 -10  -7   5   18.00    5.40
 -10  -7   5    6.30    9.20
 -10  -7   5    9.10    6.50
 -10  -9  -5    1.60    3.10
 -10  -9  -5   -0.80    6.10
 -10  -9   5    1.60    4.80
 -10  -9   5   -0.60    4.60
 -10  -9   5    1.50    4.70
  10   0  -6   39.10   14.70
 -10   0   6   30.00    6.70
 -10   0   6   60.69    7.70
 -10   0   6   47.10    6.50
 -10   0  -6   39.10    6.80
 -10  -2  -6   97.99   13.20
 -10   2   6  114.09   11.90
 -10   2   6  114.79   23.50
 -10   2   6  103.29   12.30
 -10  -2   6   89.49   12.00
 -10  -2   6  106.09   29.70
 -10  -2   6  109.19   13.30
 -10  -2   6  107.39   13.60
 -10  -2   6  100.29   15.80
 -10  -4  -6  233.98   29.40
 -10  -4  -6  285.37   29.50
 -10  -4   6  306.47   32.80
 -10  -4   6  228.28   29.50
 -10  -6  -6   22.90    4.40
 -10  -6  -6   19.90    7.70
 -10  -6  -6   16.10    7.00
 -10  -6   6   22.40    9.70
 -10  -6   6   33.50    8.60
 -10  -6   6   28.10    5.70
 -10  -6   6   19.40    5.60
 -10  -8  -6   38.70    7.20
 -10  -8   6   29.30    8.30
 -10  -8   6   32.10    6.70
 -10  -8   6   40.80   11.20
 -10 -10  -6   54.39    8.80
  10 -10  -6   36.20    6.70
 -10   1   7    1.70    3.90
 -10  -1  -7    4.50    4.10
 -10   1   7    4.40    3.70
 -10   1  -7    0.00    2.50
 -10  -1   7    5.80    6.50
 -10  -1   7    8.30    5.20
 -10  -1   7   20.70    3.90
 -10  -1   7    6.00    4.90
 -10  -3  -7   -0.20    5.10
 -10   3   7   -0.70    2.30
 -10  -3   7    2.60    5.60
 -10  -3   7    3.00    5.30
 -10  -3   7   -0.60    3.10
 -10  -3   7    0.50    7.20
 -10  -5  -7    9.90    6.90
 -10  -5  -7   -1.70    4.30
 -10  -5   7    0.20    4.20
 -10  -5   7    0.00    5.00
 -10  -5   7    3.50    8.10
 -10  -5   7   -0.40    6.40
 -10  -7  -7    7.60    7.20
 -10  -7  -7   -3.00    2.80
 -10  -7   7    0.20    6.30
 -10  -7   7    0.40    4.50
 -10  -7   7    6.50    8.50
 -10  -7   7   -3.40    4.20
 -10  -9  -7    0.10    3.50
 -10  -9  -7    4.10    6.00
 -10  -9   7   -6.40    3.40
 -10  -9   7   -2.40    4.60
 -10   0  -8  846.52   95.49
 -10   0   8  988.90   95.19
 -10   0   8  929.61   95.29
 -10   2   8  704.23   77.39
 -10  -2  -8  809.82   78.39
 -10   2   8  668.23   76.69
 -10  -2   8  764.72   81.09
 -10  -2   8  671.83   77.89
 -10  -2   8  775.72   77.59
 -10  -2   8  844.52   77.49
 -10  -4  -8 1312.17  152.08
 -10  -4   8 1617.84  151.18
 -10  -4   8 1563.84  151.28
 -10  -4   8 1613.04  155.68
 -10  -4   8 1245.38  152.08
 -10  -6  -8  134.99   22.50
 -10  -6   8  167.18   22.70
 -10  -6   8  206.88   21.40
 -10  -6   8  214.98   27.30
 -10  -6   8  192.58   20.80
 -10  -8  -8  180.78   19.40
 -10  -8   8  133.09   15.90
 -10  -8   8  117.79   16.60
 -10  -8   8  202.78   31.40
 -10  -8   8  120.89   16.40
 -10   1   9    3.80    4.30
 -10  -1  -9    3.30    4.90
 -10   1   9    5.60    3.90
 -10  -1   9    0.40    5.10
 -10   1  -9   -2.30    3.00
 -10  -1   9    4.00    4.40
 -10  -3  -9   -0.50    5.90
 -10   3   9    4.60    3.00
 -10  -3   9    2.30    5.90
 -10  -3   9    2.30    6.50
 -10  -3   9    7.80    4.50
 -10  -3   9    1.20    7.60
 -10  -5  -9    4.20    6.90
 -10  -5   9    2.80    7.40
 -10  -5   9    1.50    5.30
 -10  -5   9   -1.60    5.00
 -10  -7  -9    1.10    7.90
 -10  -7   9    7.00    5.00
 -10  -7   9   -0.20    5.50
 -10  -7   9    8.90   10.50
 -10  -7   9   -2.00    6.20
 -10  -9  -9    4.90    5.90
 -10  -9   9   -3.40    4.60
 -10  -9   9    8.50    3.80
 -10   0  10  131.99   15.60
 -10   0  10  132.99   15.20
 -10   0 -10  113.39   15.50
 -10   2  10    9.90    4.50
 -10   2  10   29.70    6.40
 -10  -2 -10   26.70    7.60
 -10  -2  10   25.00    5.80
 -10  -2  10   12.60    9.40
 -10  -2  10   23.40    6.70
 -10  -4 -10   58.29   10.90
 -10  -4  10   38.50   10.00
 -10  -4  10   41.40    8.60
 -10  -4  10   51.79   13.70
 -10  -4  10   45.60    8.30
 -10  -6 -10   63.49   12.20
 -10  -6  10   53.09   13.90
 -10  -6  10   67.39    9.70
 -10  -6  10   46.20    8.60
 -10  -8 -10   11.40    6.90
 -10  -8  10    4.40    4.80
 -10  -8  10    2.30    5.50
 -10  -1 -11    4.80    5.60
 -10   1  11    2.20    4.60
 -10   1  11    7.10    5.90
 -10   1 -11    1.50    3.60
 -10  -1  11    6.80    5.70
 -10  -1  11    6.50    6.00
 -10  -3 -11   -1.30    6.40
 -10   3  11    2.40    2.80
 -10  -3  11   -0.50    6.70
 -10  -3  11   -0.10    5.40
 -10  -5 -11    2.80    7.10
 -10  -5  11   -0.80    5.80
 -10  -5  11   -2.50   10.00
 -10  -5  11    4.80    6.20
 -10  -7 -11    2.40    7.30
 -10  -7  11    2.20    5.70
 -10  -7  11   -3.50    4.80
 -10   0 -12  312.27   36.00
 -10   0  12  348.37   35.70
 -10   0  12  329.07   36.00
 -10  -2 -12  318.77   35.20
 -10   2  12  297.27   34.20
 -10   2  12  332.87   32.80
 -10  -2  12  270.17   33.90
 -10  -2  12  323.67   34.50
 -10  -4 -12  307.37   38.30
 -10  -4  12  415.66   37.50
 -10  -4  12  289.57   41.90
 -10  -4  12  332.97   37.10
 -10  -6 -12  136.19   20.20
 -10  -6  12  168.18   18.20
 -10  -6  12  137.69   17.90
 -10   1  13    5.30    6.30
 -10   1  13   -4.60    5.10
 -10  -1 -13    6.90    6.10
 -10  -1  13    4.30    6.20
 -10  -1  13    6.20    7.30
 -10  -3 -13    8.20    7.40
 -10   3  13    2.20    4.90
 -10  -3  13    1.80    7.90
 -10  -3  13    2.70    6.60
 -10  -5 -13   -1.20    7.00
 -10  -5  13   -4.20    6.50
 -10  -5  13   -1.10    6.40
 -10  -7 -13    3.50    6.50
 -10  -7  13    2.00    6.90
 -10   0  14   10.70    7.30
 -10   0  14   19.60    6.80
 -10   0 -14   15.20    5.50
 -10   2  14   70.29    8.70
 -10  -2 -14   50.09   10.60
 -10  -2  14   56.89   10.20
 -10  -2  14   55.69   11.00
 -10  -4 -14   26.30    8.40
 -10  -4  14   13.30    7.20
 -10  -4  14   20.80    8.80
 -10  -6 -14   22.00    8.10
 -10  -6  14   22.80    6.90
 -10  -6  14   31.50    6.90
 -10   1  15   -3.00    4.90
 -10   1  15    9.70    7.70
 -10  -1 -15    6.00    5.50
 -10  -1  15    2.00    6.40
 -10  -1  15   -8.30    6.50
 -10  -3 -15   -6.80    6.50
 -10  -3  15    0.20    6.50
 -10  -3  15    3.60    8.20
 -10  -5 -15   -2.90    6.80
 -10  -5  15   -0.10    5.50
 -10  -5  15    0.70    6.20
 -10   0  16  115.79   16.60
 -10   0  16  132.49   15.60
 -10   2  16  116.99   16.60
 -10  -2 -16  138.99   17.60
 -10  -2  16  119.79   16.50
 -10  -2  16  162.28   18.10
 -10   1  17    3.90    4.60
 -10  -1  17  -11.60    9.10
 -10  -1  17    4.70    5.30
 -11   1   0 4168.08  386.16
 -11  -1   0 3458.95  386.26
  11  -1   0 3294.77  394.56
 -11  -1   0 3507.55  395.46
  11   1   0 4457.65  397.66
  11   3   0 3550.64  358.36
 -11  -3   0 3282.47  357.66
 -11   3   0 3312.47  359.96
  11  -5   0 2638.44  254.37
 -11  -5   0 2699.93  253.17
 -11  -5   0 2317.27  254.17
 -11  -5   0 2204.38  251.77
  11  -7   0 1227.58  120.49
 -11  -7   0 1265.27  121.99
 -11  -7   0 1199.08  124.19
  11  -7   0  994.50  123.09
 -11  -7   0 1162.08  120.49
 -11  -9   0  452.85   61.69
 -11  -9   0  598.34   56.69
  11  -9   0  546.15   56.39
 -11   0   1   -2.10    3.00
 -11   0  -1    1.30    2.70
 -11   0  -1    7.40    8.00
  11   0  -1    0.50    6.70
  11   0   1   -7.80    5.20
 -11   2   1  149.69   20.10
 -11   2   1  163.28   29.20
 -11  -2  -1  188.58   20.10
  11  -2   1  161.28   28.70
  11   2  -1  215.78   31.60
 -11  -2  -1  182.68   31.00
  11  -2  -1  229.78   31.50
 -11   2  -1  216.68   30.90
  11   2   1  167.08   28.80
 -11   2  -1  180.78   20.10
 -11  -2   1  205.28   19.80
 -11  -2   1  188.38   21.10
 -11  -2   1  224.88   21.60
 -11  -4  -1    5.60   10.90
 -11  -4  -1    2.50    4.70
  11  -4   1    3.80    3.70
 -11  -4  -1   -1.00    1.80
 -11  -4  -1   -3.20    3.50
 -11  -4   1    3.80    4.20
  11   4   1    9.90    9.80
 -11  -4   1    2.20    4.60
 -11  -4   1   -0.30    4.50
 -11  -6  -1   -2.80    5.40
  11  -6   1   -4.00    5.00
  11  -6   1    8.40    3.00
 -11  -6  -1   -3.40    5.10
 -11  -6  -1    0.10    2.80
  11  -6  -1   -2.10    5.00
 -11  -6   1   -1.70    3.00
 -11  -6   1    5.80    6.10
 -11  -6   1   -3.10    5.50
 -11  -8  -1  -12.70    5.80
  11  -8   1    0.50    3.40
 -11  -8  -1    3.90    3.50
 -11  -8  -1   -0.80    3.50
 -11  -8  -1   -2.10    6.20
 -11  -8   1    7.70    3.90
 -11  -8   1    2.80    6.80
  11  -8  -1    3.40    3.80
 -11  -8   1    5.50    4.00
  11  -8  -1   16.80    7.10
 -11  -8   1   -1.20    6.10
 -11 -10  -1    0.40    4.50
 -11 -10  -1    3.30    4.50
 -11 -10   1    3.40    3.60
  11 -10  -1    1.60    3.80
 -11  -1  -2  499.75   49.70
 -11   1   2  532.05   49.50
  11  -1   2  404.16   57.09
  11   1  -2  459.65   58.39
 -11  -1  -2  439.56   58.39
 -11  -1   2  451.75   48.80
 -11  -1   2  454.45   58.49
 -11   1  -2  572.14   60.19
  11   1   2  494.95   58.39
 -11   1  -2  435.46   49.10
 -11  -3  -2 1168.18  117.09
 -11  -3  -2  972.50  103.29
  11   3  -2 1030.40  114.29
 -11  -3   2 1012.20  114.39
  11  -3  -2 1223.88  139.29
 -11  -3   2 1046.00  103.39
 -11  -3   2  810.62  102.19
 -11  -3   2 1041.20  104.29
  11   3   2  875.91  116.09
  11  -5   2  411.16   45.50
 -11  -5   2  451.55   44.00
 -11  -5   2  390.86   45.30
 -11  -7  -2  431.26   49.50
 -11  -7  -2  511.15   51.79
  11  -7   2  416.06   47.50
 -11  -7   2  486.55   47.90
 -11  -7   2  457.45   49.40
  11  -9   2  164.98   21.70
 -11  -9  -2  243.38   24.00
 -11  -9  -2  233.88   22.10
  11  -9  -2  183.88   22.00
 -11  -9   2  210.28   23.20
 -11  -9   2  183.38   22.00
  11   0  -3    1.60    8.90
 -11   0  -3    6.90    8.10
 -11   0   3    2.70    1.90
  11   0   3   -6.70    5.00
 -11   0  -3    1.30    2.70
 -11   0   3    1.60    3.30
 -11   0   3   -2.40    6.20
 -11  -2  -3  271.77   38.60
 -11  -2  -3  284.87   28.30
  11   2  -3  245.78   37.30
 -11   2  -3  232.58   26.90
  11  -2  -3  285.67   39.50
 -11  -2   3  269.47   27.00
 -11  -2   3  226.58   27.90
 -11  -2   3  315.87   39.90
 -11  -2   3  245.38   29.10
 -11  -4  -3  216.78   24.10
 -11  -4  -3  193.78   23.60
 -11  -4   3  224.98   24.20
 -11  -6  -3    3.00    5.90
 -11  -6  -3    0.00    2.50
  11  -6   3   -0.10    4.50
 -11  -6  -3    2.90    5.40
 -11  -6   3    2.90    3.70
 -11  -6   3    3.00    6.70
 -11  -6   3   -2.80    4.30
 -11  -6   3   -1.80    5.90
 -11  -8  -3    9.40    7.00
 -11  -8  -3   13.30    4.00
 -11  -8  -3   19.10    8.50
 -11  -8   3   12.20    8.40
 -11  -8   3   13.20    4.40
  11  -8  -3    8.20    8.40
 -11  -8   3    9.60    6.20
 -11  -8   3    4.00    4.70
 -11 -10  -3   10.80    5.90
 -11 -10  -3    7.30    3.50
 -11 -10   3    1.10    5.00
 -11 -10   3    7.40    4.80
  11 -10  -3    5.40    3.80
  11   1  -4 2169.48  228.28
 -11   1   4 1949.20  217.18
 -11   1   4 2433.86  229.58
 -11  -1  -4 2306.87  217.98
 -11   1   4 1952.20  217.48
 -11  -1   4 2259.47  217.88
 -11   1  -4 1917.01  217.28
  11  -1  -4 1959.20  227.68
 -11  -1   4 2165.28  219.28
 -11  -1   4 2162.38  217.18
 -11   3   4 1345.77  151.08
 -11  -3   4 1347.97  138.29
 -11  -5  -4 1369.86  134.09
 -11  -5  -4 1165.88  132.29
 -11  -5  -4 1442.26  134.89
 -11  -5   4 1423.86  134.29
 -11  -5   4 1268.07  136.09
 -11  -5   4 1115.19  132.69
 -11  -7  -4  571.34   66.09
 -11  -7  -4  595.24   64.29
 -11  -7  -4  548.55   67.19
 -11  -7   4  589.64   65.89
 -11  -7   4  714.73   64.89
 -11  -7   4  688.73   64.59
 -11  -9  -4  310.67   33.90
 -11  -9   4  363.86   35.20
  11  -9  -4  296.77   34.30
 -11   0   5    3.40    7.80
 -11   0  -5    3.10    3.20
 -11   0   5    8.00    4.30
 -11   0   5    0.20    2.60
  11   0  -5   14.80    9.50
 -11  -2  -5  442.16   47.10
 -11  -2   5  402.46   46.10
  11  -2  -5  528.45   99.99
 -11  -2   5  455.25   49.10
 -11  -2   5  472.15   47.10
 -11  -4  -5  109.49   13.90
 -11  -4   5  103.19   15.70
 -11  -4   5   85.19   11.30
 -11  -4   5   92.49   12.50
 -11  -4   5   85.39   13.30
 -11  -6  -5    2.70    6.30
 -11  -6  -5    6.70    2.50
 -11  -6  -5    2.80    5.40
 -11  -6   5    7.40    7.00
 -11  -6   5    4.80    4.10
 -11  -6   5    4.20    4.90
 -11  -6   5    2.20    7.50
 -11  -8  -5   10.80    4.80
 -11  -8  -5   13.90    7.90
  11  -8  -5   16.30    8.60
 -11  -8   5   10.10    8.40
 -11  -8   5   12.80    5.50
 -11   1   6  831.42   77.79
 -11   1   6  728.23   77.49
 -11  -1  -6  799.62   78.39
 -11  -1   6  759.62   78.19
 -11  -1   6  762.12   77.59
 -11  -1   6  623.24   77.79
 -11  -1   6  747.43   80.49
 -11  -3  -6  591.94   61.29
 -11   3   6  498.05   59.59
 -11  -3   6  561.64   60.19
 -11  -3   6  604.24   61.29
 -11  -3   6  696.43   68.09
 -11  -3   6  593.54   60.69
 -11  -5  -6  567.44   57.99
 -11  -5   6  578.64   56.49
 -11  -5   6  489.05   60.09
 -11  -5   6  513.85   56.39
 -11  -7  -6  318.47   42.20
 -11  -7   6  386.96   40.90
 -11  -7   6  346.97   42.00
 -11  -7   6  406.16   46.00
 -11  -7   6  448.66   40.60
 -11  -9  -6  216.18   21.40
 -11  -9   6  135.79   19.20
 -11  -9   6  172.48   18.40
 -11   0   7   -3.40    4.50
 -11   0   7   -2.30    4.90
 -11   0  -7   -1.40    3.40
 -11   0   7   -1.40    3.20
 -11  -2  -7   16.30    5.50
 -11   2   7   15.40    4.10
 -11   2   7   15.10    4.60
 -11  -2   7   12.20    6.30
 -11  -2   7    9.80    4.20
 -11  -2   7   13.00    6.20
 -11  -2   7    5.50    7.10
 -11  -4  -7   82.89   12.50
 -11  -4   7   75.89   10.70
 -11  -4   7   56.29   14.00
 -11  -4   7   75.39   12.60
 -11  -4   7   77.89   10.10
 -11  -6  -7   -5.70    6.70
 -11  -6   7   -3.70    7.70
 -11  -6   7   -2.30    7.40
 -11  -6   7   -6.20    4.70
 -11  -6   7    1.50    4.40
 -11  -8  -7    6.20    7.00
 -11  -8   7   -1.10    4.10
 -11  -8   7    4.40    4.90
 -11  -8   7    6.30    5.80
 -11  -1  -8 2011.50  206.98
 -11   1   8 2015.40  206.48
 -11   1   8 2101.59  205.98
 -11  -1   8 1876.21  206.38
 -11  -1   8 2043.50  206.38
 -11  -3  -8 1221.08  129.49
 -11  -3   8 1164.08  128.59
 -11  -3   8 1237.58  129.49
 -11  -3   8 1274.17  132.59
 -11  -3   8 1341.97  128.69
 -11  -5  -8 1324.47  128.49
 -11  -5   8 1214.88  127.19
 -11  -5   8 1287.47  126.99
 -11  -5   8 1087.19  131.09
 -11  -7  -8  600.94   66.29
 -11  -7   8  723.63   70.59
 -11  -7   8  583.34   65.69
 -11  -7   8  595.14   64.99
 -11  -9  -8  277.77   31.80
 -11  -9   8  288.17   30.00
 -11   0  -9    1.60    4.10
 -11   0   9   -2.10    4.80
 -11   2   9    7.60    3.60
 -11  -2  -9    2.90    5.70
 -11   2   9   -3.60    4.40
 -11  -2   9    0.90    6.00
 -11  -2   9    4.00    6.60
 -11  -2   9    1.70    4.20
 -11  -2   9   -6.40    7.20
 -11  -4  -9   28.50    8.10
 -11  -4   9    9.00    6.00
 -11  -4   9   28.10   10.80
 -11  -4   9    3.10    7.90
 -11  -4   9   19.90    6.60
 -11  -6  -9    0.80    7.20
 -11  -6   9   -6.30    7.10
 -11  -6   9   -0.80    5.20
 -11  -6   9   -3.40    5.20
 -11  -6   9    3.60    7.50
 -11  -8  -9   -1.10    6.00
 -11  -8   9    5.50    4.70
 -11  -8   9   -1.80    4.80
 -11  -1 -10   98.59   14.10
 -11   1  10  101.19   12.40
 -11   1  10  100.39   13.40
 -11  -1  10  107.09   13.70
 -11  -1  10  100.09   12.90
 -11   1 -10   87.19   11.80
 -11  -3 -10   39.80    9.00
 -11   3  10   35.40    5.40
 -11  -3  10   46.10    7.30
 -11  -3  10   24.90    7.90
 -11  -3  10   27.20   11.00
 -11  -5 -10   90.39   14.00
 -11  -5  10   54.39   10.60
 -11  -5  10   96.99   18.20
 -11  -5  10   69.89   13.00
 -11  -5  10   89.19   11.80
 -11  -7 -10   98.59   14.80
 -11  -7  10   84.49   12.30
 -11   0 -11   -5.30    4.20
 -11   0  11   -0.90    5.50
 -11   0  11   -0.50    5.00
 -11   2  11   97.59   13.10
 -11  -2 -11  103.29   14.50
 -11   2  11   81.09   11.60
 -11  -2  11   89.79   12.90
 -11  -2  11   88.39   12.50
 -11  -4 -11   32.10    9.40
 -11  -4  11   61.69    8.90
 -11  -4  11   35.30    8.50
 -11  -4  11   20.20   12.00
 -11  -6 -11   -2.80    7.30
 -11  -6  11   -1.80   15.90
 -11  -6  11    2.70    6.10
 -11  -6  11    1.40    5.50
 -11   1  12  565.64   64.49
 -11  -1 -12  618.24   64.99
 -11   1  12  615.24   63.69
 -11  -1  12  667.93   64.39
 -11  -1  12  590.24   64.49
 -11  -3 -12  365.26   41.90
 -11   3  12  351.86   39.20
 -11  -3  12  374.56   41.20
 -11  -3  12  429.96   41.10
 -11  -5 -12  498.15   49.60
 -11  -5  12  408.86   47.70
 -11  -7 -12  229.08   28.10
 -11  -7  12  263.87   26.70
 -11  -7  12  233.08   27.10
 -11   0  13   -0.50    6.50
 -11   0 -13    2.70    4.40
 -11   0  13    4.30    6.30
 -11  -2 -13   37.60    8.90
 -11   2  13   42.20    6.20
 -11  -2  13   30.40    8.00
 -11  -2  13   14.20    8.70
 -11  -4 -13   26.40    9.20
 -11  -4  13   29.70    9.30
 -11  -4  13   38.30    8.20
 -11  -6 -13   -2.00    6.90
 -11  -6  13   -0.80    6.10
 -11  -6  13   -4.80    5.30
 -11   1  14  112.79   14.00
 -11  -1 -14  114.49   15.40
 -11   1  14  109.69   15.90
 -11  -1  14   98.69   15.40
 -11  -1  14  124.19   15.30
 -11  -3 -14   96.39   13.00
 -11  -3  14   62.29   11.80
 -11  -3  14   58.99   10.90
 -11  -5 -14   72.89   13.00
 -11  -5  14   90.09   12.00
 -11   0  15    0.70    6.10
 -11   0  15   -1.30    5.70
 -11   2  15    0.50    3.50
 -11  -2 -15    6.90    6.10
 -11  -2  15    5.30    7.40
 -11  -2  15    5.20    6.60
 -11  -4 -15    4.50    6.90
 -11  -4  15   -4.10    5.20
 -11  -4  15   -7.30    7.00
 -11  -1  16  182.58   19.00
 -11  -1  16  129.89   18.30
 -11  -3 -16  168.38   22.90
 -11  -3  16  228.28   25.00
 -12   0   0 2710.53  290.67
 -12   0   0 3042.60  280.07
  12   0   0 2398.56  289.27
  12  -2   0  466.15   67.79
 -12  -2   0  621.54   59.69
 -12  -2   0  527.15   58.99
  12   2   0  578.94   70.09
 -12  -2   0  692.03   73.69
 -12   2   0  565.74   58.79
 -12  -4   0 1746.63  161.48
 -12  -4   0 1364.46  160.38
 -12  -4   0 1476.45  159.28
  12  -4   0 1641.64  161.78
  12  -6   0  173.38   18.70
  12  -6   0  126.29   14.70
 -12  -6   0  154.78   18.10
 -12  -6   0   97.89   18.10
 -12  -8   0  807.32   79.39
  12  -8   0  657.53   77.49
 -12  -8   0  747.83   77.89
 -12  -8   0  809.52   77.69
 -12 -10   0   19.50    4.70
 -12 -10   0   27.50    5.80
 -12  -1  -1   -4.00    3.00
 -12   1   1    0.20    2.90
 -12   1   1    2.00    8.00
 -12  -1  -1    3.90   10.80
  12  -1   1   -4.60    6.90
 -12   1  -1   -0.20    2.50
 -12  -1   1    3.90    9.20
 -12  -1   1   -2.50    3.30
  12  -1  -1  -12.10    7.50
 -12   1  -1    3.70    8.30
  12   1   1   -3.50    7.70
 -12  -3  -1   27.20    5.00
 -12  -3  -1   28.60    6.70
 -12  -3  -1   20.50   15.60
 -12  -3   1   27.80    3.90
 -12  -3   1   22.60    6.30
  12   3   1   29.90   13.80
 -12  -3   1   14.20   14.80
 -12  -3   1   30.70    6.30
 -12  -5  -1    3.40    5.60
 -12  -5  -1    2.10    4.40
  12  -5   1   -0.90    3.20
 -12  -5  -1    2.30    2.40
  12  -5  -1   -4.40    4.10
 -12  -5   1   -0.50    2.80
 -12  -5   1   -1.10    5.60
 -12  -5   1    4.10    5.70
 -12  -7  -1    2.70    6.50
 -12  -7  -1    0.80    3.10
 -12  -7  -1   -3.20    5.40
  12  -7  -1    2.40    6.50
 -12  -7   1    1.60    6.20
  12  -7  -1   -0.80    3.10
 -12  -7   1    0.40    3.50
 -12  -7   1    6.10    6.20
 -12  -7   1   -0.60    4.20
 -12  -9  -1    5.00    6.10
 -12  -9  -1    0.80    3.10
 -12  -9   1   -1.00    5.30
  12  -9  -1    6.70    3.60
 -12  -9   1    0.40    3.80
  12   0   2  546.85   64.49
 -12   0  -2  481.45   63.69
 -12   0   2  548.15   54.29
 -12   0   2  488.65   64.39
 -12   0  -2  513.35   54.19
 -12   2   2  293.57   38.60
  12   2  -2  230.98   35.80
 -12  -2  -2  229.58   36.60
 -12  -2  -2  201.78   24.60
  12   2   2  213.18   35.00
 -12   2  -2  190.68   23.40
  12  -2  -2  190.58   35.60
 -12  -2   2  246.18   25.50
 -12  -2   2  298.97   39.80
 -12  -2   2  202.08   23.30
 -12  -2   2  262.37   24.90
 -12  -4  -2   18.50    5.10
 -12  -4  -2    8.40    5.80
 -12  -4   2   27.50    6.60
 -12  -4   2   15.20    6.40
 -12  -4   2   25.40    3.80
 -12  -6  -2   45.70    5.90
 -12  -6  -2   37.70    8.70
 -12  -6  -2   30.00    7.80
 -12  -6   2   38.60    6.00
 -12  -6   2   30.80    8.30
 -12  -6   2   32.00    9.60
 -12  -8  -2  172.38   24.20
 -12  -8  -2  126.49   15.60
 -12  -8  -2  148.99   15.60
  12  -8  -2  119.69   15.80
 -12  -8   2  132.49   18.70
 -12  -8   2  165.38   21.00
 -12  -8   2  144.79   16.40
 -12  -8   2  135.49   15.80
 -12 -10  -2   20.00    5.30
 -12 -10   2    8.30    4.60
 -12 -10   2    8.40    4.10
 -12  -1  -3   65.19    8.30
 -12   1   3   48.80    7.60
 -12   1   3   49.00   16.00
  12   1  -3   68.49   17.60
  12  -1  -3   35.80   14.50
 -12  -1   3   50.79    6.30
 -12   1  -3   43.90    6.60
 -12  -1   3   48.50   14.60
 -12  -3  -3   53.49    9.50
 -12  -3   3   51.59    7.30
 -12  -3   3   80.29   10.60
  12  -3  -3   61.99   19.10
 -12  -3   3   69.59   11.10
 -12  -5  -3   54.99   11.20
 -12  -5  -3   80.39   11.30
 -12  -5   3   73.19    9.50
 -12  -5   3   94.79   14.60
 -12  -5   3   70.59   11.70
 -12  -7  -3   11.40    7.10
 -12  -7  -3    5.10    3.20
 -12  -7   3   18.00    4.60
 -12  -7   3   18.80    5.40
 -12  -7   3    9.50    7.10
 -12  -7   3    8.40    6.80
 -12  -9  -3    2.10    3.00
 -12  -9  -3   -5.00    6.00
 -12  -9   3    1.20    5.30
  12  -9  -3    2.80    3.90
 -12  -9   3   -0.10    4.00
 -12   0  -4 1593.74  172.48
  12   0  -4 1781.62  184.88
 -12   0   4 1616.64  171.98
 -12   0   4 1779.12  184.48
 -12  -2  -4  246.48   29.40
 -12   2   4  309.87   43.90
 -12  -2   4  266.67   29.60
 -12  -2   4  278.27   31.10
 -12   2  -4  245.18   28.10
 -12  -2   4  298.57   28.50
 -12  -4  -4   34.90    8.10
 -12  -4   4   26.30    5.00
 -12  -4   4   37.70    9.40
 -12  -6  -4  359.56   37.60
 -12  -6   4  329.17   39.60
 -12  -6   4  306.37   35.60
 -12  -6   4  401.26   37.90
 -12  -6   4  305.97   35.80
 -12  -8  -4  252.17   26.50
 -12  -8   4  235.48   23.80
 -12  -8   4  182.38   23.80
 -12  -1  -5   24.20    5.70
 -12   1   5   26.80    4.80
 -12   1   5   36.70    6.00
 -12  -1   5   29.30    6.20
 -12  -1   5   21.60    4.30
 -12   1  -5   19.50    4.20
 -12  -3  -5   80.29   11.10
 -12   3   5   67.39    8.40
 -12  -3   5   53.99   10.20
 -12  -3   5   71.49   12.90
 -12  -5  -5   24.40    7.30
 -12  -5   5   16.30    7.90
 -12  -5   5   14.30    5.70
 -12  -5   5    7.70    4.40
 -12  -5   5   18.40    8.80
 -12  -7  -5   19.70    7.70
 -12  -7   5   16.50    5.20
 -12  -7   5   16.50    5.40
 -12  -7   5   14.30    7.30
 -12  -7   5    3.30    7.10
 -12  -9  -5   -2.40    6.20
 -12  -9   5    3.10    4.40
 -12  -9   5    5.10    5.10
  12  -9  -5    3.80    3.70
 -12   0   6  534.15   52.89
 -12   0   6  524.45   52.29
 -12   0   6  447.06   52.49
 -12   0  -6  497.45   52.69
 -12  -2  -6   34.60    7.00
 -12   2   6   41.60    5.50
 -12  -2   6   24.40    7.00
 -12  -2   6   25.50    8.10
 -12  -2   6   19.70    4.90
 -12  -2   6   17.80    6.60
 -12  -4  -6  565.34   60.89
 -12  -4   6  559.44   59.89
 -12  -4   6  541.25   63.29
 -12  -4   6  620.84   61.39
 -12  -6  -6  341.17   44.30
 -12  -6   6  473.65   45.10
 -12  -6   6  448.96   43.00
 -12  -6   6  471.45   47.80
 -12  -6   6  328.37   42.80
 -12  -8  -6   31.20    8.80
 -12  -8   6   35.70    5.60
 -12  -8   6   16.10    5.60
 -12  -8   6   33.10    7.40
 -12  -1  -7    6.30    4.70
 -12   1   7   10.40    4.50
 -12   1   7    6.80    4.80
 -12  -1   7    7.80    4.10
 -12  -1   7   14.20    6.10
 -12   1  -7    7.60    3.20
 -12  -1   7    8.70    6.10
 -12  -3  -7   15.80    6.50
 -12   3   7   13.10    3.40
 -12  -3   7    9.10    8.00
 -12  -3   7   17.10    4.50
 -12  -3   7   16.10    6.90
 -12  -3   7    4.00    6.50
 -12  -5  -7   16.90    7.50
 -12  -5   7   13.20    9.20
 -12  -5   7    5.40    5.10
 -12  -5   7    9.00    6.00
 -12  -5   7   17.60    7.90
 -12  -7  -7   -3.80    6.60
 -12  -7   7    2.40    8.30
 -12  -7   7    4.40    4.80
 -12  -7   7    3.80    8.70
 -12  -7   7   -0.40    4.80
 -12  -9  -7    3.70    6.30
 -12  -9   7    4.10    3.60
 -12  -9   7    3.40    4.00
 -12  -9   7    0.00    4.70
 -12   0   8 1628.94  159.98
 -12   0  -8 1480.45  160.08
 -12   2   8  795.72   86.39
 -12  -2  -8  877.31   87.99
 -12  -2   8  802.42   88.29
 -12  -2   8  807.42   90.89
 -12  -2   8  847.92   87.39
 -12  -2   8  903.21   87.89
 -12  -4  -8   52.89   10.10
 -12  -4   8   57.49   13.20
 -12  -4   8   33.10    7.70
 -12  -4   8   39.20    9.70
 -12  -4   8   51.49    9.10
 -12  -6  -8 1270.67  132.89
 -12  -6   8 1261.47  131.29
 -12  -6   8 1362.56  136.69
 -12  -6   8 1314.07  131.69
 -12  -6   8 1177.48  132.59
 -12  -8  -8  141.69   16.50
 -12  -8   8   88.29   13.50
 -12  -8   8  113.99   14.20
 -12  -1  -9    0.20    5.10
 -12   1   9    1.60    4.20
 -12   1   9    4.30    5.30
 -12  -1   9    1.30    5.70
 -12  -1   9    3.70    4.50
 -12   1  -9   -0.10    2.80
 -12  -3  -9    2.50    6.00
 -12  -3   9   -2.30    8.30
 -12  -3   9   -2.30    4.40
 -12  -3   9    4.50    6.60
 -12  -3   9    9.20    7.40
 -12  -5  -9    5.70    7.30
 -12  -5   9    6.80    5.80
 -12  -5   9    4.30    5.70
 -12  -5   9    8.40    8.90
 -12  -5   9    2.00    7.80
 -12  -7  -9   -5.70    6.10
 -12  -7   9   -0.30    4.80
 -12  -7   9   -2.10    4.70
 -12  -7   9   -4.30    6.30
 -12   0 -10   33.10    6.80
 -12   0  10   28.90    6.80
 -12   0  10   39.60    7.20
 -12   2  10   20.10    4.80
 -12   2  10   19.60    6.70
 -12  -2 -10   22.30    7.70
 -12  -2  10   24.30    6.50
 -12  -2  10   26.00    7.60
 -12  -4 -10  505.75   50.99
 -12  -4  10  371.86   53.79
 -12  -4  10  548.85   49.90
 -12  -4  10  451.45   49.60
 -12  -4  10  441.26   50.99
 -12  -6 -10  158.18   20.30
 -12  -6  10  168.78   18.10
 -12  -6  10  154.78   24.10
 -12  -6  10  119.59   17.70
 -12  -8 -10    5.70    6.20
 -12  -8  10    2.90    4.90
 -12  -1 -11    9.80    6.20
 -12   1  11    1.30    5.00
 -12   1  11    9.90    6.30
 -12  -1  11    7.60    6.20
 -12  -1  11    7.10    6.40
 -12   3  11    5.50    3.10
 -12  -3 -11   -1.60    6.50
 -12  -3  11   24.50    6.50
 -12  -3  11   11.10    7.40
 -12  -5 -11   22.30    8.90
 -12  -5  11   27.10    7.30
 -12  -5  11   32.70    6.70
 -12  -5  11    0.00    9.30
 -12  -7 -11    5.90    6.80
 -12  -7  11   -3.40    4.80
 -12  -7  11   -0.40    5.20
 -12   0 -12  758.42   78.69
 -12   0  12  747.23   78.99
 -12  -2 -12  188.98   22.10
 -12   2  12  173.38   19.60
 -12  -2  12  180.78   21.40
 -12  -2  12  161.58   21.90
 -12  -4 -12   39.90    9.40
 -12  -4  12   24.70    8.70
 -12  -4  12   41.40    8.20
 -12  -6 -12  227.58   25.20
 -12  -6  12  187.18   23.60
 -12  -6  12  213.58   23.60
 -12   1  13    3.00    8.70
 -12  -1  13    3.10    7.00
 -12  -1  13   11.20   12.30
 -12  -3 -13   12.20    7.10
 -12  -3  13   21.00    8.80
 -12  -3  13   11.00    6.70
 -12  -5 -13   15.40    7.80
 -12  -5  13   25.60    6.90
 -12  -5  13   19.90    7.80
 -12   0  14  104.09   16.20
 -12   0  14  133.49   15.60
 -12   2  14   11.30    3.90
 -12  -2 -14    8.60    6.50
 -12  -2  14   14.20    8.00
 -12  -2  14    0.70    6.20
 -12  -4 -14   24.50    7.90
 -12  -4  14    3.60    6.00
 -12  -4  14   17.30    7.90
 -12   1  15    2.40    4.50
 -12  -1  15    2.20    5.20
 -12  -1  15    8.10    6.70
 -12  -3 -15    4.20    8.10
 -12  -3  15   -4.00    5.30
 -12  -3  15    4.20    7.70
 -12   0  16  211.98   24.20
 -12   0  16  208.98   23.50
  13   1   0  671.93   88.49
 -13   1   0  720.03   77.69
 -13  -1   0  837.02   78.29
 -13  -3   0  208.68   23.30
 -13  -3   0  210.08   24.00
 -13  -5   0  101.99   13.40
 -13  -5   0  160.88   16.70
 -13  -5   0  134.49   17.00
 -13  -7   0   77.79   10.20
 -13  -7   0   99.79   13.80
 -13  -9   0    4.60    3.50
 -13  -9   0   13.70    5.90
 -13   0   1    7.80   11.60
 -13   0  -1    2.40    3.30
 -13   0   1   -1.30    3.70
  13   0  -1   11.60   11.90
 -13  -2  -1    7.90    4.80
 -13   2   1    5.20    3.30
 -13  -2  -1   10.50   14.30
 -13  -2   1   -2.30    4.20
 -13   2  -1    6.30    2.80
 -13  -2   1   23.20   14.00
  13   2   1   -3.70   12.50
 -13  -4  -1    9.80    5.90
 -13  -4   1   11.40    5.90
 -13  -4   1   10.30    5.50
 -13  -4   1    5.10    2.80
 -13  -6  -1    0.40    2.70
 -13  -6  -1    1.00    6.50
 -13  -6   1    2.90    3.20
 -13  -6   1    7.90    6.40
 -13  -6   1    1.30    5.60
 -13  -8  -1   -0.50    3.00
 -13  -8  -1   -0.70    3.80
 -13  -8  -1    5.40    6.40
 -13  -8   1   -1.30    6.00
 -13  -8   1   -3.30    3.20
 -13  -8   1    2.50    4.10
 -13  -1  -2  321.27   31.80
 -13   1   2  337.87   46.80
 -13   1   2  321.37   31.40
  13   1  -2  305.57   43.90
 -13   1  -2  263.97   31.00
  13  -1  -2  245.68   44.20
 -13  -1   2  240.88   43.20
 -13  -3  -2  429.46   44.10
 -13  -3   2  394.46   42.50
 -13  -5  -2  123.79   15.90
 -13  -5   2   95.59   13.00
  13  -5  -2  103.09   15.60
 -13  -5   2  130.99   16.10
 -13  -5   2  140.49   17.10
 -13  -7  -2   28.50    8.90
 -13  -7   2   33.40    8.80
 -13  -7   2   27.80    6.20
 -13  -7   2   32.10    8.30
  13  -7  -2   45.40    5.80
 -13  -7   2   20.00    5.30
 -13  -9  -2   66.99   10.90
 -13  -9   2   53.89    9.40
 -13   0   3   -1.00    3.80
 -13   0   3    1.30    2.10
 -13   0   3    4.00   11.80
 -13   0  -3   -1.90    3.00
 -13   2   3   91.19   10.20
 -13  -2  -3   55.99   10.50
 -13   2  -3   65.59    8.90
 -13  -2   3   91.29   12.30
 -13  -2   3   82.49   11.60
 -13  -2   3   85.29    9.20
 -13  -4  -3   18.20    7.00
 -13  -4   3   42.80    9.30
 -13  -4   3   50.09    8.90
 -13  -4   3   26.10    5.10
 -13  -6  -3    5.90    6.50
 -13  -6   3    8.10    6.70
  13  -6  -3   -3.20    6.00
 -13  -6   3    3.60    4.10
 -13  -6   3    7.40    7.10
 -13  -6   3    3.40    5.00
 -13  -8  -3    2.40    6.90
 -13  -8   3   -2.30    3.80
 -13  -8   3   -6.30    6.80
  13  -8  -3   -2.10    3.60
 -13  -8   3   -2.60    6.30
 -13  -8   3    5.80    4.40
 -13  -1  -4  210.48   21.30
 -13   1   4  216.88   20.90
 -13  -1   4  156.98   19.90
 -13  -1   4  171.18   21.00
 -13   1  -4  179.88   20.00
 -13  -3  -4   34.20    7.40
 -13  -3   4   19.80    7.50
 -13  -3   4   15.40    4.40
 -13  -3   4   35.50   11.30
 -13  -5  -4   30.50    7.90
 -13  -5   4   17.20    6.20
 -13  -5   4   23.10    8.80
 -13  -5   4   36.20    8.90
 -13  -5   4   24.30    5.40
 -13  -7  -4   10.00    7.50
  13  -7  -4    7.50    8.50
 -13  -7   4   12.40    4.80
 -13  -7   4   14.20    7.90
 -13  -7   4   20.90    7.60
 -13  -7   4   21.10    5.80
 -13  -9  -4   10.00    6.40
 -13  -9   4    6.20    4.20
 -13  -9   4   13.50    6.00
 -13  -9   4    0.30    5.00
  13  -9  -4    9.60    3.90
 -13   0  -5   -1.20    3.30
 -13   0   5    3.30    3.00
 -13   0   5    3.90    4.70
 -13  -2  -5   15.00    5.60
 -13   2   5    4.90    3.80
 -13  -2   5    7.40    6.00
 -13  -2   5    0.00    5.60
 -13  -2   5    1.90    3.80
 -13  -4  -5   32.50    7.50
 -13  -4   5   12.30    7.00
 -13  -4   5   20.20    8.40
 -13  -4   5   14.40    4.90
 -13  -4   5   27.20    6.80
 -13  -6  -5    5.80    6.80
 -13  -6   5    4.20    4.50
 -13  -6   5    5.40    7.50
 -13  -6   5    6.90    5.70
 -13  -6   5    6.90    7.20
 -13  -8  -5    1.80    6.50
 -13  -8   5    2.40    4.40
 -13  -8   5   -1.50    4.00
 -13  -8   5    0.70    6.70
 -13  -1  -6   53.79    9.30
 -13   1   6   75.79    8.90
 -13   1   6   59.09    9.10
 -13   1   6   72.19    9.90
 -13  -1   6   69.79    8.80
 -13  -1   6   41.80    9.70
 -13   1  -6   66.09    8.30
 -13  -3  -6  116.99   17.00
 -13   3   6  123.19   14.40
 -13  -3   6  128.09   16.70
 -13  -3   6  128.89   19.30
 -13  -3   6  135.49   15.40
 -13  -3   6  151.18   17.60
 -13  -5  -6   21.70    7.40
 -13  -5   6   30.80    9.20
 -13  -5   6   19.80    8.50
 -13  -5   6    8.90    5.00
 -13  -5   6   13.10    6.40
 -13  -7  -6   12.30    7.60
 -13  -7   6    2.60    4.70
 -13  -7   6    4.50    7.00
 -13  -7   6   10.20    5.30
 -13  -9  -6   56.59    9.50
 -13  -9   6   13.50    5.30
 -13  -9   6   41.80    6.70
  13  -9  -6   30.50    5.30
 -13  -9   6   28.50    5.00
 -13   0   7   -1.60    3.50
 -13   0   7    3.20    5.20
 -13   0  -7   -0.60    3.60
 -13  -2  -7   18.70    6.80
 -13   2   7   13.20    4.60
 -13  -2   7    4.50    6.80
 -13  -2   7   14.70    4.80
 -13  -2   7    5.70    6.20
 -13  -4  -7    9.80    6.70
 -13  -4   7   21.70    9.60
 -13  -4   7    9.40    7.30
 -13  -4   7    5.50    6.60
 -13  -4   7   10.70    5.20
 -13  -6  -7    6.30    7.30
 -13  -6   7   11.50    8.30
 -13  -6   7    7.90    8.10
 -13  -6   7    4.80    5.40
 -13  -6   7    5.90    5.10
 -13  -8  -7    2.90    6.90
 -13  -8   7    0.80    4.20
 -13  -8   7   -4.40    5.40
 -13  -8   7   -2.60    4.20
 -13   1   8  404.46   43.20
 -13   1   8  409.06   42.90
 -13  -1  -8  412.06   43.80
 -13  -1   8  436.96   43.20
 -13  -1   8  415.06   43.90
 -13  -1   8  354.46   43.50
 -13  -3  -8   95.29   15.20
 -13  -3   8  108.89   13.70
 -13  -3   8  115.59   15.20
 -13  -3   8  116.79   16.00
 -13  -3   8  103.59   18.20
 -13  -5  -8  125.19   19.50
 -13  -5   8  136.19   17.60
 -13  -5   8  179.18   23.50
 -13  -5   8  158.98   17.90
 -13  -7  -8   91.09   13.30
 -13  -7   8   84.89   11.20
 -13  -7   8   62.79   11.70
 -13   0   9    0.20    5.60
 -13   0   9    5.50    5.00
 -13   2   9    3.30    3.70
 -13  -2  -9   -2.40    5.80
 -13  -2   9    4.20    7.00
 -13  -2   9   -0.20    6.70
 -13  -2   9    7.80    5.50
 -13  -4  -9    0.80    6.70
 -13  -4   9   -2.30    5.30
 -13  -4   9    2.20    8.40
 -13  -4   9    0.60    6.70
 -13  -4   9   12.00    9.40
 -13  -6  -9   -3.90    6.70
 -13  -6   9   -2.40    7.40
 -13  -6   9    7.50    5.20
 -13  -6   9   20.50    9.70
 -13  -6   9   -5.70    5.20
 -13  -8  -9   -3.40    5.80
 -13  -8   9    1.40    4.90
 -13  -8   9   -6.60    4.00
 -13   1  10   96.09   11.80
 -13  -1 -10   80.59   13.00
 -13   1  10   84.09   12.70
 -13  -1  10   86.99   12.10
 -13  -1  10   87.89   12.40
 -13  -3 -10  191.08   23.00
 -13   3  10  177.88   19.90
 -13  -3  10  205.28   21.70
 -13  -3  10  166.48   22.10
 -13  -5 -10   44.20    9.40
 -13  -5  10   24.80   11.90
 -13  -5  10   27.20    6.80
 -13  -5  10   41.20    7.90
 -13  -7 -10    4.90    7.00
 -13  -7  10   13.70    5.30
 -13  -7  10   13.80    5.20
 -13   0  11    1.70    5.90
 -13   0  11    0.30    6.00
 -13   0 -11    1.80    4.00
 -13  -2 -11    7.40    6.40
 -13   2  11    6.50    4.60
 -13  -2  11   -0.90    5.90
 -13  -2  11    5.20    6.80
 -13  -4 -11   17.90    8.20
 -13  -4  11    2.60    7.20
 -13  -4  11    8.90    5.90
 -13  -6 -11    1.30    6.50
 -13  -6  11    0.40    4.90
 -13  -6  11    2.40    5.50
 -13   1  12  191.68   21.60
 -13  -1 -12  179.58   22.30
 -13   1  12  219.68   22.80
 -13  -1  12  174.68   22.40
 -13  -3 -12   28.80    8.50
 -13  -3  12    7.40    6.80
 -13  -3  12   19.50    7.90
 -13  -5 -12   63.39   10.90
 -13  -5  12   52.79    8.90
 -13  -5  12   34.00    7.80
 -13   0  13    5.00    6.70
 -13   0  13   -5.40    6.70
 -13   2  13    6.50    3.80
 -13  -2 -13   11.00    6.50
 -13  -2  13   -4.40    7.00
 -13  -2  13    3.00    5.80
 -13  -4 -13   11.20    6.90
 -13  -4  13    3.00    6.10
 -13  -4  13   14.40    8.40
 -13   1  14   11.80    5.10
 -13  -1 -14    4.30    6.90
 -13  -1  14   19.70    6.90
 -13  -1  14    6.50    7.20
 -13  -3 -14   12.60    6.40
 -13  -3  14   13.20    7.90
 -13  -3  14   -5.10    4.70
 -13   0  15   -3.10    6.20
 -13   0  15    1.90    5.00
 -13  -2 -15   -5.00    5.30
 -13  -2  15   -0.80    6.90
 -13  -2  15    3.30    5.20
 -14   0   0 2851.71  292.37
 -14   2   0 1388.66  133.99
 -14  -2   0 1211.88  134.69
 -14  -4   0 1514.45  156.68
 -14  -6   0  629.04   66.99
 -14  -8   0  382.86   41.00
 -14  -8   0  402.06   42.90
 -14  -1  -1    6.70    4.60
 -14   1   1    3.50    3.80
 -14  -1   1    3.40    4.70
 -14   1  -1    1.90    3.30
 -14  -3  -1   30.30    7.60
 -14  -3   1   34.70    7.60
 -14  -5  -1   -0.70    6.00
 -14  -5   1    0.50    6.10
 -14  -7  -1   -2.80    6.40
 -14  -7   1   -4.60    6.10
 -14  -7   1    0.90    4.90
 -14  -7   1    6.30    3.30
 -14  -9  -1    6.80    5.60
 -14  -9   1   -2.10    5.30
 -14   0   2  211.88   22.30
 -14   0  -2  186.18   21.90
 -14   2   2  199.68   22.80
 -14  -2  -2  236.68   24.00
 -14  -2   2  198.08   23.90
 -14  -4   2  281.17   30.50
 -14  -4   2  239.58   29.50
 -14  -6  -2  206.78   22.60
 -14  -6   2  226.68   25.70
 -14  -6   2  195.38   22.40
 -14  -6   2  141.59   19.60
 -14  -8  -2  157.38   17.80
 -14  -8  -2  101.49   14.30
 -14  -8   2  129.69   16.80
 -14  -8   2  132.99   14.80
 -14   1   3    0.60    4.10
 -14  -1  -3    1.40    4.10
 -14  -1   3    5.00    4.90
 -14   1  -3    4.50    3.00
 -14  -3  -3    6.60    5.60
 -14  -3   3   -0.70    2.90
 -14  -3   3    1.30    5.80
 -14  -3   3    2.30    4.80
 -14  -5  -3   56.59   10.80
 -14  -5   3   67.29   11.90
 -14  -5   3   58.99   11.20
 -14  -7  -3   37.80   13.60
 -14  -9  -3   10.00    6.30
 -14  -9   3    3.10    3.80
 -14   0  -4 1414.96  147.69
 -14   0   4 1617.84  147.99
 -14   0   4 1279.67  146.99
 -14   2   4  513.45   54.89
 -14  -2  -4  538.55   56.09
 -14  -4  -4  277.97   26.20
 -14  -4   4  224.58   27.10
 -14  -4   4  186.48   23.70
 -14  -4   4  215.18   26.00
 -14  -6   4  356.06   44.10
 -14  -6   4  494.85   48.80
 -14  -6   4  445.06   44.60
 -14  -6   4  414.46   46.20
 -14  -8  -4  255.87   27.10
 -14  -8   4  216.88   26.40
 -14  -8   4  216.78   24.60
 -14  -1  -5   21.30    5.40
 -14   1   5   16.40    5.50
 -14  -1   5    4.40    3.90
 -14   1  -5    9.20    3.30
 -14  -1   5   14.40    5.90
 -14  -3  -5   53.49    9.70
 -14   3   5   51.89    6.80
 -14  -3   5   66.99   10.50
 -14  -3   5   33.00   10.00
 -14  -5  -5   11.30    7.30
 -14  -5   5   18.20    8.20
 -14  -5   5   35.50    9.00
 -14  -5   5   13.30    4.90
 -14  -5   5   25.30    6.80
 -14  -7  -5   13.60    7.70
 -14  -7   5   20.50    7.90
 -14  -7   5   -6.90    7.30
 -14  -7   5   -2.50    4.10
 -14  -7   5   10.80    5.10
 -14   0   6  467.95   51.39
 -14   0   6  503.25   50.89
 -14   0  -6  463.85   51.19
 -14   0   6  509.25   51.69
 -14   2   6  159.18   19.70
 -14  -2   6  204.38   21.70
 -14  -2   6  175.88   19.70
 -14  -4  -6   72.39   12.60
 -14  -4   6   87.79   12.30
 -14  -4   6   82.79   13.50
 -14  -4   6  102.49   16.40
 -14  -6  -6  497.05   48.10
 -14  -6   6  476.25   47.80
 -14  -6   6  369.26   45.80
 -14  -6   6  416.26   49.99
 -14  -8   6   30.40    6.30
 -14  -8   6   54.49    8.70
 -14   1   7   -9.90    4.90
 -14   1   7    2.50    4.00
 -14  -1  -7   -3.50    4.40
 -14  -1   7    1.40    5.60
 -14  -1   7   -4.90    6.40
 -14  -1   7   -2.50    6.00
 -14   1  -7    1.10    2.80
 -14  -3  -7   -0.90    6.00
 -14   3   7    1.10    3.10
 -14  -3   7    1.00    4.40
 -14  -3   7   14.10    9.00
 -14  -3   7    2.60    7.40
 -14  -3   7    6.10    7.00
 -14  -5  -7   15.00    7.90
 -14  -5   7   34.20    9.60
 -14  -5   7    5.20    8.20
 -14  -5   7    9.70    5.20
 -14  -5   7   20.40    6.80
 -14  -7  -7   -2.50    6.60
 -14  -7   7    1.80    4.40
 -14  -7   7    6.90    4.90
 -14  -7   7    7.50    7.20
 -14   0   8 1401.66  148.29
 -14   0   8 1469.75  148.39
 -14   0  -8 1448.66  148.59
 -14  -2  -8  613.94   59.59
 -14   2   8  561.04   57.79
 -14  -2   8  544.35   59.49
 -14  -2   8  508.45   58.89
 -14  -4  -8  191.88   21.60
 -14  -4   8  165.28   19.50
 -14  -4   8  166.08   21.00
 -14  -4   8  148.69   24.10
 -14  -6  -8  586.14   64.39
 -14  -6   8  572.54   67.69
 -14  -6   8  679.33   63.09
 -14  -6   8  562.94   63.09
 -14  -8  -8  165.18   19.20
 -14  -8   8  143.09   17.80
 -14  -1  -9   -2.60    4.90
 -14   1   9    2.20    4.80
 -14   1   9    0.90    4.90
 -14  -1   9    6.80    5.30
 -14  -1   9   -3.10    6.10
 -14  -3  -9   -3.90    6.00
 -14   3   9    0.10    3.20
 -14  -3   9   -0.30    5.30
 -14  -3   9    1.50    6.90
 -14  -3   9   -6.70    7.70
 -14  -5  -9   -0.40    6.70
 -14  -5   9    3.00    6.10
 -14  -5   9   -7.50    7.50
 -14  -5   9    3.70    8.50
 -14  -5   9    2.10    4.90
 -14  -7  -9    5.00    6.20
 -14  -7   9    2.30    5.70
 -14  -7   9   -1.80    4.50
 -14  -7   9    7.50    4.70
 -14   0  10   84.29   10.70
 -14   0 -10   54.69    9.60
 -14   0  10   89.99   11.30
 -14  -2 -10   28.50    8.00
 -14   2  10   19.60    5.00
 -14  -2  10   15.80    7.30
 -14  -2  10   17.80    6.40
 -14  -4 -10    2.80    7.00
 -14  -4  10   14.90    7.10
 -14  -4  10    9.50    5.80
 -14  -6 -10   99.69   14.80
 -14  -6  10   89.89   12.60
 -14   1  11    6.10    6.50
 -14   1  11   -3.40    4.80
 -14  -1 -11    4.90    5.10
 -14  -1  11    1.30    6.70
 -14  -1  11    5.20    5.40
 -14  -3 -11    8.10    6.90
 -14  -3  11   -4.10    5.80
 -14  -3  11    7.60    7.40
 -14  -5 -11   11.80    7.10
 -14  -5  11   13.50    5.40
 -14  -5  11   13.40    6.50
 -14   0  12  415.46   44.80
 -14  -2 -12  166.18   19.50
 -14   2  12  147.39   17.30
 -14  -2  12  158.98   20.00
 -14  -2  12  150.68   18.90
 -14  -4 -12  124.39   17.20
 -14  -1 -13    5.90    4.40
 -14   1  13   -4.30    4.60
 -14  -1  13   -3.80    5.20
 -14  -1  13   -6.50    6.60
 -14  -3 -13    1.00    5.80
 -14  -3  13   -0.60    5.10
 -14  -3  13   -0.30    7.50
 -14   0  14   51.99    9.90
 -14   0  14   67.69    9.10
 -14  -2 -14   32.40    7.50
 -14  -2  14   33.50    8.50
 -14  -1  15    4.30    5.90
 -15   1   0 3129.99  283.87
 -15  -1   0 2405.66  283.97
 -15  -3   0  186.78   22.30
 -15  -5   0  740.63   78.19
 -15  -7   0  823.02   86.59
 -15  -9   0  452.25   49.30
 -15   0   1    2.30    4.40
 -15   0  -1   -2.10    4.10
 -15   2   1   30.10    5.10
 -15  -2  -1   25.80    6.60
 -15   2  -1   17.60    4.20
 -15  -2   1   19.90    6.60
 -15  -4  -1    7.30    6.20
 -15  -4   1    4.70    6.20
 -15  -6  -1    6.20    6.90
 -15  -6   1    5.00    6.90
 -15  -8  -1    1.20    3.80
 -15  -8  -1    4.70    6.20
 -15  -8   1   11.00    6.40
 -15  -8   1    2.20    4.20
 -15  -1  -2  806.62   88.69
 -15   1   2  973.00   88.49
 -15   1  -2  780.62   88.09
 -15  -3  -2   44.50    9.10
 -15  -3   2   48.30    9.20
 -15  -5  -2  220.58   26.00
 -15  -7   2  439.26   41.70
 -15  -7   2  339.17   42.80
 -15   0  -3   -1.90    3.50
 -15  -2  -3  118.59   14.90
 -15  -2   3  100.09   15.10
 -15  -4  -3   50.29    9.90
 -15  -4   3   50.69   10.20
 -15  -6  -3   16.90    7.90
 -15  -6   3   17.80    6.20
 -15  -6   3   13.80    7.80
 -15  -8  -3   40.40    8.60
 -15  -8   3   25.50    5.40
 -15  -8   3   23.10    7.30
 -15   1   4 1194.58  122.89
 -15  -1   4 1180.58  123.29
 -15   1  -4 1194.18  122.59
 -15  -3  -4  110.29   13.00
 -15   3   4   71.29   10.20
 -15  -3   4   74.09   12.30
 -15  -5  -4  407.96   38.10
 -15  -5   4  341.67   36.60
 -15  -5   4  291.97   35.80
 -15  -7  -4  754.62   80.99
 -15  -7   4  777.42   79.49
 -15   0   5   -1.70    2.40
 -15   0  -5    0.60    3.90
 -15   0   5   -1.20    5.10
 -15   2   5   89.49   13.10
 -15  -2  -5  108.19   14.80
 -15  -2   5  133.59   15.30
 -15  -4  -5   16.60    7.50
 -15  -4   5   24.40    7.50
 -15  -4   5   20.50    7.80
 -15  -4   5   26.80    8.30
 -15  -6  -5    9.70    7.30
 -15  -6   5    9.60    7.00
 -15  -6   5    4.90    8.60
 -15  -6   5    8.90    6.30
 -15  -8  -5   39.50    8.70
 -15  -8   5   35.90    8.10
 -15  -8   5   43.30    6.50
 -15  -1  -6  719.53   65.59
 -15   1   6  592.74   64.49
 -15  -1   6  581.04   65.09
 -15   1  -6  616.44   64.29
 -15  -1   6  534.65   65.19
 -15  -1   6  670.13   64.49
 -15   3   6  184.28   19.00
 -15  -3  -6  164.38   21.40
 -15  -3   6  153.78   21.10
 -15  -3   6  166.78   19.80
 -15  -3   6  200.58   22.30
 -15  -5  -6  139.89   18.30
 -15  -5   6  116.49   15.30
 -15  -5   6  124.19   20.20
 -15  -5   6  145.59   17.30
 -15  -5   6  127.49   18.40
 -15  -7  -6  580.64   55.69
 -15  -7   6  486.05   53.79
 -15  -7   6  487.85   55.09
 -15   0   7    2.60    4.00
 -15   0   7    2.60    5.80
 -15   0  -7   -2.60    3.50
 -15   0   7   -2.40    6.30
 -15   2   7    9.00    4.50
 -15  -2  -7   10.10    5.90
 -15  -2   7    0.80    4.80
 -15  -2   7   14.70    7.30
 -15  -2   7    4.40    7.20
 -15  -4  -7    9.80    6.90
 -15  -4   7    5.80    7.00
 -15  -4   7   11.50    8.00
 -15  -4   7   11.10    8.50
 -15  -4   7    0.10    4.60
 -15  -6  -7    3.40    7.00
 -15  -6   7    1.40    4.40
 -15  -6   7    0.70    7.40
 -15  -6   7   -0.40    5.30
 -15   1   8  897.51   93.39
 -15  -1  -8  870.41   94.19
 -15  -1   8  865.01   93.99
 -15  -1   8  982.80   94.59
 -15  -3  -8  262.77   36.00
 -15   3   8  338.57   34.10
 -15  -3   8  351.36   36.30
 -15  -3   8  349.96   37.00
 -15  -5  -8  229.88   27.50
 -15  -5   8  203.88   27.50
 -15  -5   8  272.67   26.30
 -15  -5   8  216.88   25.60
 -15  -7   8  391.96   38.80
 -15  -7   8  322.57   37.70
 -15   0   9   -2.90    5.00
 -15   0   9   -2.50    5.50
 -15   0  -9    0.60    3.50
 -15  -2  -9    4.10    6.30
 -15   2   9   -1.00    4.00
 -15  -2   9   13.50    7.80
 -15  -2   9    5.50    6.80
 -15  -2   9   -3.00    4.70
 -15  -4  -9    3.70    6.70
 -15  -4   9    4.40    6.80
 -15  -4   9    5.70    8.60
 -15  -4   9   -4.00    4.70
 -15  -6  -9   -3.20    6.00
 -15  -6   9    8.10    4.70
 -15  -6   9   -6.90    5.40
 -15  -6   9    1.20    6.80
 -15  -1 -10  122.39   16.60
 -15   1  10  141.39   15.60
 -15  -1  10  126.79   16.70
 -15  -1  10  120.49   16.00
 -15  -3 -10   28.10    7.90
 -15  -3  10    5.70    5.90
 -15  -3  10   18.10    7.40
 -15  -5 -10   16.20    7.60
 -15  -5  10    7.90    5.40
 -15  -5  10   12.90    6.50
 -15   0  11   -2.90    5.30
 -15   0  11    3.10    5.70
 -15   2  11   17.80    4.90
 -15  -2 -11   48.70    8.30
 -15  -2  11   32.30    8.10
 -15  -2  11    6.70    6.10
 -15  -4 -11    5.50    6.90
 -15  -4  11   22.70    7.40
 -15  -4  11   -1.20    5.00
 -15   1  12  381.36   40.20
 -15  -1 -12  390.66   40.90
 -15  -1  12  366.26   41.10
 -15  -3 -12   69.99    9.50
 -15  -3  12   19.20    6.80
 -15  -3  12   42.30    8.60
 -15  -5 -12   99.99   15.40
 -15   0  13    2.30    5.70
 -15   0  13    1.00    5.50
 -15  -2 -13   16.00   10.50
 -15  -2  13   14.50    7.70
 -15  -2  13   13.70    5.80
 -15   1  14  119.89   14.70
 -15  -1  14  143.49   17.70
 -16   0   0  736.93   77.19
 -16   2   0   32.50    5.60
 -16  -2   0   33.50    7.80
 -16  -4   0   21.40    7.60
 -16  -8   0   29.50    7.70
 -16  -8   0   13.20    5.80
 -16  -1  -1   30.10    6.90
 -16  -1   1   27.00    7.30
 -16   1  -1   28.70    5.80
 -16  -3  -1    3.80    5.80
 -16  -3   1   12.50    6.80
 -16  -5  -1   14.10    7.30
 -16  -5   1   17.70    7.60
 -16  -7  -1    5.00    7.00
 -16  -7   1    1.50    5.00
 -16  -7   1   -0.70    6.60
 -16   0   2    9.40    5.30
 -16  -2  -2   86.49   12.10
 -16   2   2   64.39   10.60
 -16   2  -2   72.19    9.10
 -16  -2   2   78.29   11.70
 -16  -4  -2   45.20    9.70
 -16  -4   2   48.10   10.00
 -16  -6  -2   -0.50    6.70
 -16  -6   2    8.90    7.70
 -16  -8  -2   20.60    7.00
 -16  -8  -2   23.90    5.30
 -16  -8   2   18.50    7.00
 -16  -1  -3   52.29    8.20
 -16   1   3   43.10    7.50
 -16   1  -3   26.40    5.90
 -16  -1   3   47.40    8.30
 -16  -3  -3  110.29   16.30
 -16  -3   3  132.69   16.80
 -16  -5  -3   44.00   10.00
 -16  -5   3   46.80   10.40
 -16  -7  -3   21.10    8.00
 -16  -7   3   18.20    5.80
 -16  -7   3    9.50    7.20
 -16   0  -4   39.20    7.00
 -16   0   4   37.40    7.50
 -16  -2  -4   17.00    6.50
 -16  -2   4   10.80    6.90
 -16  -4  -4   12.20    7.60
 -16  -4   4   28.50    8.50
 -16  -6  -4   16.30    7.90
 -16  -6   4    4.30    7.30
 -16  -6   4   18.60    6.60
 -16  -8  -4    4.00    6.10
 -16  -8   4    9.20    4.30
 -16  -8   4    9.80    8.30
 -16   1   5  135.49   16.10
 -16  -1  -5  125.29   16.30
 -16  -1   5  125.89   17.00
 -16  -3  -5   69.59   11.30
 -16   3   5   61.69    8.70
 -16  -3   5   64.59   11.60
 -16  -5  -5   90.49   16.80
 -16  -5   5   72.09   13.10
 -16  -5   5   60.09   11.40
 -16  -7  -5    9.50    7.00
 -16  -7   5   12.10    5.30
 -16  -7   5   18.20    7.50
 -16   0  -6   92.19   11.70
 -16   0   6   66.69   12.10
 -16   0   6   98.09   13.30
 -16  -2  -6   11.30    6.30
 -16   2   6    5.30    4.90
 -16  -2   6   13.20    7.50
 -16  -2   6    7.30    7.10
 -16  -4  -6   13.10    7.00
 -16  -4   6   22.40    8.10
 -16  -4   6   25.70    8.30
 -16  -4   6    0.90    4.10
 -16  -6  -6   17.20    8.10
 -16  -6   6   14.50    6.20
 -16  -6   6   23.10    6.40
 -16  -6   6    6.50    7.80
 -16   1   7   13.30    5.80
 -16  -1  -7   16.00    5.80
 -16  -1   7   11.50    4.20
 -16  -1   7    7.40    6.60
 -16  -1   7   12.20    7.80
 -16  -3  -7    6.60    6.30
 -16   3   7   10.30    3.40
 -16  -3   7    6.40    7.50
 -16  -3   7    5.30    4.50
 -16  -3   7    5.60    7.50
 -16  -5  -7    3.80    6.80
 -16  -5   7    4.90    4.50
 -16  -5   7    1.30    6.30
 -16  -5   7    0.50    8.10
 -16  -7  -7   -1.40    6.00
 -16  -7   7    1.50    4.40
 -16  -7   7    4.00    6.90
 -16   0  -8   -1.20    3.70
 -16   0   8   10.40    6.80
 -16   0   8    9.50    4.60
 -16   2   8  129.29   15.10
 -16  -2  -8  158.48   17.70
 -16  -2   8  104.89   15.20
 -16  -2   8  159.48   17.90
 -16  -4  -8  136.09   19.00
 -16  -4   8  148.79   18.60
 -16  -4   8  139.39   19.40
 -16  -6  -8   11.70    7.00
 -16  -6   8   17.70    6.00
 -16  -6   8    9.00    7.40
 -16   1   9    3.00    4.60
 -16  -1  -9   -2.80    4.80
 -16  -1   9   -1.00    6.00
 -16  -1   9    2.00    4.70
 -16  -3  -9    8.60    6.50
 -16  -3   9   11.80    7.50
 -16  -3   9    4.00    7.90
 -16  -3   9    1.70    4.90
 -16  -5  -9    3.70    6.90
 -16  -5   9   15.60    7.80
 -16  -5   9   15.90    6.20
 -16  -5   9    2.60    4.80
 -16   0  10  100.09   13.70
 -16   0  10   94.69   13.30
 -16   2  10    1.80    3.80
 -16  -2 -10   -2.20    5.30
 -16  -2  10    6.60    6.50
 -16  -2  10    0.60    5.50
 -16  -4 -10    0.70    6.60
 -16  -4  10    7.20    6.60
 -16  -4  10   -3.10    5.00
 -16   1  11   11.20    5.30
 -16  -1 -11   23.90    5.50
 -16  -1  11   19.80    7.00
 -16  -1  11    8.00    5.90
 -16  -3 -11   50.39    8.80
 -16  -3  11   31.10    8.50
 -16  -5 -11   22.00   10.90
 -16  -5  11   16.70    5.90
 -16  -5  11    5.40    5.40
 -16   0  12   43.10    8.00
 -16  -2  12   19.30    6.00
 -16  -2  12   27.10    7.30
 -16  -4 -12   24.80    7.30
 -16  -4  12    2.60    5.90
 -16  -4  12   11.50    6.60
 -16   1  13   15.10    4.60
 -16  -1  13    3.20    5.40
 -16  -1  13    8.30    6.40
 -17  -1   0   53.09    8.80
 -17   1   0   39.70    7.20
 -17  -3   0  135.79   18.00
 -17  -5   0   89.39   13.90
 -17  -7   0   48.90    7.70
 -17  -7   0   52.39    9.70
 -17   0   1   -0.60    4.90
 -17   0  -1   -0.50    4.70
 -17   2   1    1.50    3.60
 -17  -2  -1    4.30    5.90
 -17  -2   1   -5.50    5.90
 -17   2  -1   -1.30    4.30
 -17  -4  -1    1.20    6.40
 -17  -4   1   -2.40    6.70
 -17  -6  -1   -1.50    6.70
 -17  -6   1    0.50    7.20
 -17   1   2    8.60    5.20
 -17  -1  -2    9.90    5.90
 -17  -1   2   13.30    6.30
 -17   1  -2    0.10    3.80
 -17  -3  -2   12.40    7.00
 -17  -3   2    6.80    7.00
 -17  -7  -2    8.60    6.70
 -17  -7   2   11.40    5.50
 -17  -7   2   23.20    7.90
 -17   0  -3   -3.70    4.30
 -17   0   3   -3.40    5.40
 -17  -2  -3    2.20    5.60
 -17  -2   3    4.00    6.30
 -17  -4  -3    9.70    6.90
 -17  -4   3   -0.10    7.20
 -17  -6  -3    0.60    6.40
 -17  -6   3    9.20    6.10
 -17  -6   3    2.30    7.20
 -17   1   4    5.20    5.50
 -17  -1  -4    6.90    5.70
 -17   1  -4   11.40    4.00
 -17  -1   4    4.60    6.20
 -17  -3  -4   38.10    8.70
 -17   3   4   22.10    5.50
 -17  -3   4   54.69    9.70
 -17  -5  -4   16.20    7.60
 -17  -5   4   16.30    8.30
 -17  -5   4   35.10    7.80
 -17  -7  -4   19.90    7.20
 -17  -7   4    4.30    6.60
 -17  -7   4   16.50    5.50
 -17   0   5    1.30    5.80
 -17   0  -5   -0.70    4.00
 -17   2   5    3.20    4.80
 -17  -2  -5   -1.40    5.60
 -17  -2   5    0.40    6.60
 -17  -4  -5    6.40   10.10
 -17  -4   5    3.00    9.20
 -17  -4   5    8.20    7.60
 -17  -6  -5   -1.30    6.60
 -17  -6   5   -3.20    5.60
 -17  -6   5   -3.80    7.20
 -17   1   6   15.50    6.10
 -17  -1  -6    6.50    5.70
 -17  -1   6   14.50    7.50
 -17  -1   6   15.50    7.20
 -17   3   6   28.40    4.70
 -17  -3  -6   34.30    8.60
 -17  -3   6    9.70    7.90
 -17  -3   6   26.20    8.20
 -17  -5  -6   11.10    7.00
 -17  -5   6    5.90    7.80
 -17  -5   6   11.00    7.10
 -17  -7  -6   20.60    7.20
 -17  -7   6   19.80    6.80
 -17   0  -7    2.40    3.70
 -17   0   7    3.50    6.30
 -17   2   7    4.50    4.40
 -17  -2  -7    0.20    5.90
 -17  -2   7    5.90    7.20
 -17  -2   7   -1.30    6.80
 -17  -4  -7    0.10    6.50
 -17  -4   7    9.50    8.00
 -17  -4   7    7.20    7.30
 -17  -6  -7   10.90    7.10
 -17  -6   7   -1.20    6.60
 -17  -6   7   -1.20    5.10
 -17  -1  -8   52.69    8.70
 -17   1   8   49.30    8.20
 -17  -1   8   40.00   10.50
 -17  -3  -8   92.39   13.80
 -17  -3   8   77.39   13.50
 -17  -3   8   96.59   13.20
 -17  -5  -8   73.19   11.60
 -17  -5   8   56.59   11.40
 -17  -5   8   64.19    9.90
 -17   0   9    1.90    5.60
 -17  -2  -9   -4.60    5.00
 -17   2   9    5.40    3.80
 -17  -2   9   -5.80    4.00
 -17  -2   9    2.60    6.80
 -17  -4  -9   -2.40    6.00
 -17  -4   9    9.60    8.20
 -17  -4   9    0.50    6.30
 -17  -1 -10    9.40    4.60
 -17   1  10    6.80    4.70
 -17  -1  10    7.80    6.30
 -17  -1  10    2.80    4.70
 -17  -3 -10    9.30    6.20
 -17  -3  10    5.10    5.20
 -17  -3  10    3.30    6.50
 -17  -5 -10    5.90    6.50
 -17   0  11   -2.50    5.30
 -17  -2 -11   11.40    5.50
 -17  -2  11   -2.10    6.20
 -17  -2  11    1.40    6.20
 -17  -4 -11    6.10    6.00
 -17  -4  11   -9.00    5.40
 -17  -4  11    0.00    5.30
 -17   1  12   21.70    5.70
 -17  -1  12    8.70    6.00
 -18   0   0 1771.82  182.48
 -18   2   0  403.26   48.00
 -18  -2   0  547.85   50.09
 -18  -4   0  482.85   53.09
 -18  -6   0  602.24   64.19
 -18  -1  -1    2.00    6.00
 -18   1   1    4.50    4.80
 -18   1  -1   -1.90    4.10
 -18  -1   1    4.20    5.90
 -18  -3  -1    2.00    7.00
 -18  -3   1    2.10    6.90
 -18  -5  -1   15.50    7.50
 -18  -5   1    3.30    7.10
 -18  -7  -1    1.70    5.10
 -18  -7  -1   10.40    6.70
 -18  -7   1    5.80    4.70
 -18  -7   1    7.30    6.30
 -18   0  -2  843.02   95.79
 -18   0   2 1008.20   96.19
 -18  -2  -2  239.08   25.60
 -18  -2   2  194.38   25.50
 -18  -6  -2  287.57   28.40
 -18  -6   2  196.48   26.70
 -18  -6   2  249.38   28.30
 -18   1   3    4.90    5.40
 -18  -1  -3   -1.10    5.50
 -18   1  -3   -1.80    3.50
 -18  -1   3   -1.80    5.80
 -18  -3  -3    4.50    6.90
 -18   3   3    5.30    3.80
 -18  -3   3   13.10    7.40
 -18  -5  -3   17.20    7.50
 -18  -5   3    3.60    6.20
 -18  -5   3    5.10    7.40
 -18  -7  -3    7.30    5.90
 -18  -7   3    4.70    6.70
 -18  -7   3    8.90    7.00
 -18   0  -4  516.75   52.39
 -18   0   4  472.55   52.59
 -18   2   4  295.37   31.60
 -18  -2  -4  295.27   33.00
 -18  -2   4  291.77   33.30
 -18  -4  -4  309.47   30.20
 -18  -4   4  241.28   28.90
 -18  -4   4  227.78   30.00
 -18  -6  -4  405.06   37.50
 -18  -6   4  329.17   37.30
 -18  -6   4  281.87   35.80
 -18  -1  -5   -1.70    5.20
 -18   1   5    8.00    5.50
 -18  -1   5   -3.70    6.60
 -18  -1   5    4.70    6.80
 -18  -3  -5    2.30    6.60
 -18  -3   5    8.90    9.20
 -18  -3   5    2.70    7.20
 -18  -5  -5   20.40    7.30
 -18  -5   5   13.00    6.90
 -18  -5   5    2.30    7.10
 -18   0   6  197.28   24.40
 -18   0  -6  199.78   23.80
 -18   0   6  245.98   25.10
 -18  -4  -6  201.98   23.30
 -18  -4   6  192.58   22.60
 -18  -4   6  171.08   23.60
 -18  -6  -6  142.89   18.50
 -18  -6   6  156.08   19.10
 -18  -6   6  139.09   17.30
 -18   1   7    1.40    5.20
 -18  -1  -7   -7.00    4.70
 -18  -1   7    1.90    6.50
 -18  -1   7    0.30    6.60
 -18  -3  -7   -3.70    5.60
 -18  -3   7   -3.80    6.80
 -18  -3   7   -5.10    7.10
 -18  -5  -7    0.90    6.40
 -18  -5   7   -1.10    5.80
 -18  -5   7   -6.60    6.70
 -18   0   8  151.08   18.10
 -18   2   8  468.45   51.09
 -18  -2  -8  565.24   52.79
 -18  -2   8  433.16   52.59
 -18  -2   8  510.55   52.49
 -18  -4  -8  199.08   24.90
 -18  -4   8  202.38   25.30
 -18  -4   8  234.98   24.40
 -18  -1  -9    2.50    4.50
 -18   1   9    0.50    4.70
 -18  -1   9    6.60    5.90
 -18  -3  -9    3.80    5.60
 -18  -3   9   -0.50    6.00
 -18   0  10   29.00    6.30
 -18  -2 -10  114.49   17.30
 -18  -2  10  145.59   16.80
 -18   1  11   -1.80    4.80
 -18  -1  11   -1.80    5.30
 -19  -1   0  139.59   17.30
 -19   1   0  124.59   15.90
 -19  -3   0 1035.60  108.59
 -19  -5   0  257.07   29.70
 -19   0  -1   -2.40    4.80
 -19   0   1    9.50    5.80
 -19  -2  -1   12.40    7.00
 -19  -2   1    9.70    7.40
 -19  -4  -1    1.10    6.50
 -19  -4   1   -3.40    6.70
 -19  -6  -1   -4.00    5.80
 -19  -6   1    5.40    5.00
 -19  -6   1    0.60    6.30
 -19  -1  -2    7.00    5.90
 -19   1   2    6.30    5.20
 -19  -1   2   17.10    6.60
 -19   1  -2    8.10    4.20
 -19  -3  -2  449.16   43.30
 -19  -3   2  337.77   42.70
 -19  -5  -2   33.90    8.50
 -19  -5   2   38.80    9.30
 -19   0  -3   -3.30    4.80
 -19   0   3   -5.90    5.50
 -19  -4  -3   12.00    7.00
 -19  -4   3    1.20    7.20
 -19  -6  -3   45.30    8.60
 -19  -6   3   25.70    6.80
 -19  -6   3   36.00    8.80
 -19  -1  -4   54.29   12.00
 -19  -3  -4  286.87   34.30
 -19   3   4  328.67   32.40
 -19  -3   4  293.67   33.60
 -19  -5  -4  220.58   24.70
 -19  -5   4  188.28   23.40
 -19  -5   4  208.18   24.80
 -19   0   5   -3.30    6.00
 -19   0   5   -7.30    5.90
 -19  -2  -5   14.70    6.80
 -19   2   5   24.20    5.50
 -19  -2   5   21.80    8.30
 -19  -2   5   23.90    7.60
 -19  -4  -5    9.50    7.00
 -19  -4   5   18.70    7.20
 -19  -4   5    1.30    7.40
 -19  -1  -6   40.80    8.20
 -19   1   6   39.70    7.70
 -19  -1   6   49.30    9.30
 -19  -1   6   36.50    8.70
 -19  -3  -6  196.38   21.20
 -19  -3   6  173.48   20.80
 -19  -3   6  138.69   21.00
 -19  -5  -6   47.50    9.00
 -19  -5   6   40.30    8.90
 -19   0   7    6.40    6.10
 -19   2   7   -0.20    3.60
 -19  -2  -7    5.70    5.80
 -19  -2   7    5.20    6.50
 -19  -2   7   -5.20    6.20
 -19  -4  -7    7.80    6.10
 -19  -4   7   -3.00    6.20
 -19  -4   7   -3.20    7.00
 -19   1   8  114.89   14.60
 -19  -1  -8  122.79   17.40
 -19  -1   8  138.19   16.00
 -19  -3  -8  215.88   22.60
 -19  -3   8  194.88   21.90
 -19  -3   8  153.58   22.10
 -19   0   9    1.70    4.70
 -19  -2  -9    8.30    5.60
 -19  -2   9    3.30    5.90
 -19   1  10   -5.00    4.00
 -19  -1  10    8.10    5.60
 -20   0   0  292.07   32.00
 -20  -2   0  176.08   21.70
 -20  -4   0   50.39    9.80
 -20   1   1    1.10    4.20
 -20  -1  -1    4.60    5.80
 -20  -1   1   -0.50    6.00
 -20   1  -1    6.30    3.80
 -20  -3  -1   -2.60    6.50
 -20  -3   1    3.10    7.00
 -20  -5  -1    9.30    6.50
 -20  -5   1    6.60    6.80
 -20   0   2  850.31   78.89
 -20   0  -2  662.33   78.39
 -20  -2  -2    3.40    6.20
 -20  -2   2    6.80    6.90
 -20  -4  -2   14.10    7.50
 -20  -4   2   16.10    7.80
 -20  -1  -3   -3.40    5.30
 -20  -1   3    2.90    6.30
 -20  -3  -3    7.60    7.10
 -20  -3   3    7.80    7.40
 -20  -5  -3   -1.30    5.70
 -20  -5   3   -8.90    5.30
 -20  -5   3    3.50    6.40
 -20   0   4   64.19    9.90
 -20   0   4   57.69    9.80
 -20   0  -4   65.69    9.40
 -20  -2  -4    7.20    6.60
 -20   2   4    9.00    4.70
 -20  -2   4    7.10    7.20
 -20  -2   4    5.40    6.60
 -20  -4  -4   20.80    7.20
 -20  -4   4   29.30    7.20
 -20  -4   4   15.30    7.50
 -20  -1  -5    6.30    5.10
 -20   1   5    2.30    5.20
 -20  -1   5   -0.20    6.10
 -20  -1   5    0.10    6.30
 -20  -3  -5   -0.70    5.80
 -20  -3   5   -6.90    6.30
 -20  -3   5   -4.60    6.30
 -20   0   6   24.10    6.60
 -20   2   6   45.70    6.70
 -20  -2  -6   46.40    8.50
 -20  -2   6   44.20    9.70
 -20  -2   6   44.00    8.70
 -20  -4  -6   10.10    6.70
 -20  -4   6    3.10    5.70
 -20  -4   6    3.00    6.30
 -20   1   7   -1.30    4.00
 -20  -1   7   -6.10    5.50
 -20  -3   7    9.80    6.30
 -20  -3   7   -1.50    6.60
 -20   0   8   52.29    8.00
 -20  -2  -8   10.30    5.80
 -20  -2   8    8.60    5.70
 -20   1   9   -3.70    4.40
 -20  -1   9    5.80    7.70
 -21  -1   0   78.49   12.00
 -21  -3   0  252.57   29.00
 -21   0   1    3.60    5.10
 -21   0  -1    0.10    4.80
 -21  -2  -1   -2.40    5.70
 -21  -2   1   -2.50    6.20
 -21  -4  -1   -4.80    5.90
 -21  -4   1    5.70    6.30
 -21  -1  -2   15.70    6.40
 -21  -1   2   16.40    7.00
 -21  -3  -2   28.10    7.60
 -21  -3   2   11.20    7.10
 -21   0   3    1.80    5.70
 -21  -2  -3    4.40    6.10
 -21   2   3   -1.60    4.40
 -21  -2   3    0.20    6.60
 -21  -4  -3   -3.40    5.80
 -21  -4   3    3.30    6.60
 -21  -4   3   -4.50    5.60
 -21  -1  -4  116.79   13.10
 -21   1   4   91.79   12.80
 -21  -1   4  102.29   14.10
 -21  -1   4   73.49   12.50
 -21  -3  -4  125.59   15.40
 -21  -3   4   98.39   15.40
 -21  -3   4   97.69   14.40
 -21   0   5    3.20    5.70
 -21  -2  -5    2.30    7.90
 -21   2   5   -5.60    4.20
 -21  -2   5    5.90    6.20
 -21  -2   5    0.10    5.60
 -21   1   6    9.30    8.20
 -21  -1   6   26.30    6.70
 -21  -3  -6   28.40    7.80
 -21   0   7    4.30    6.40
 -21  -2  -7    5.40    5.60
 -22  -2   0  535.85   56.89
 -22  -1  -1   -0.50    5.70
 -22  -1   1    0.40    5.50
 -22  -3  -1    0.30    8.50
 -22   2   2  176.98   20.20
 -22  -2   2  184.38   21.70
 -22   1   3   17.90    7.80
 -22  -1  -3    6.90    5.20
 -22  -1   3   22.60    6.10
 -22  -1   3    8.40    6.00
 -22   0   4  138.49   16.60
 -22  -2  -4  320.57   36.70
 -22   2   4  358.16   35.80
 -22  -2   4  342.67   36.60
 -22  -2   4  315.87   39.30
 -22   1   5   18.50    5.50
 -22  -1   5   13.00    9.20
   0   0   0    0.00    0.00

_computing_structure_solution     'SHELXT 2014/5 (Sheldrick, 2014)'
;
_shelx_hkl_checksum              69088
loop_
_space_group_symop_operation_xyz
'x, y, z'
'-x, -y, z'
'-x+1/2, y+1/2, -z'
'x+1/2, -y+1/2, -z'
'x+1/2, y+1/2, z+1/2'
'-x+1/2, -y+1/2, z+1/2'
'-x+1, y+1, -z+1/2'
'x+1, -y+1, -z+1/2'
'-x, -y, -z'
'x, y, -z'
'x-1/2, -y-1/2, z'
'-x-1/2, y-1/2, z'
'-x+1/2, -y+1/2, -z+1/2'
'x+1/2, y+1/2, -z+1/2'
'x, -y, z+1/2'
'-x, y, z+1/2'
loop_
_atom_site_label
_atom_site_type_symbol
_atom_site_fract_x
_atom_site_fract_y
_atom_site_fract_z
_atom_site_U_iso_or_equiv
_atom_site_adp_type
_atom_site_occupancy
_atom_site_site_symmetry_order
_atom_site_calc_flag
_atom_site_refinement_flags_posn
_atom_site_refinement_flags_adp
_atom_site_refinement_flags_occupancy
_atom_site_disorder_assembly
_atom_site_disorder_group
C1 C 0.5718(3) 0.2417(5) 0.6875(3) 0.0397(12) Uani 1 1 d . . . . .
H1 H 0.538599 0.232612 0.643094 0.048 Uiso 1 1 calc R U . . .
C2 C 0.6163(3) 0.3511(5) 0.6872(3) 0.0444(12) Uani 1 1 d . . . . .
H2 H 0.613079 0.417233 0.643906 0.053 Uiso 1 1 calc R U . . .
C3 C 0.6657(3) 0.3634(6) 0.7503(3) 0.0372(13) Uani 1 1 d . . . . .
C4 C 0.6686(2) 0.2656(4) 0.8125(3) 0.0394(11) Uani 1 1 d . . . . .
H4 H 0.702379 0.271356 0.856479 0.047 Uiso 1 1 calc R U . . .
C5 C 0.6218(2) 0.1598(4) 0.8097(3) 0.0353(11) Uani 1 1 d . . . . .
H5 H 0.623735 0.093076 0.852773 0.042 Uiso 1 1 calc R U . . .
Cu1 Cu 0.500000 0.000000 0.750000 0.0264(5) Uani 1 4 d S T P . .
F1 F 0.500000 0.000000 0.6064(3) 0.0425(12) Uani 1 2 d S TU P A .
F2 F 0.4947(9) 0.1690(8) 0.500000 0.072(5) Uani 0.73(3) 2 d S TU P A 1
F3 F 0.5871(5) 0.007(2) 0.500000 0.073(6) Uani 0.69(4) 2 d S TU P A 1
F2' F 0.444(2) 0.131(4) 0.500000 0.086(12) Uani 0.27(3) 2 d S TU P A 2
F3' F 0.569(2) 0.098(4) 0.500000 0.092(12) Uani 0.31(4) 2 d S TU P A 2
N1 N 0.5735(2) 0.1475(5) 0.74823(19) 0.0306(10) Uani 1 1 d . . . . .
S1 S 0.72593(11) 0.500000 0.750000 0.0490(7) Uani 1 2 d S T P . .
Si1 Si 0.500000 0.000000 0.500000 0.0292(7) Uani 1 4 d S T P . .
O1 O 0.6930(9) 0.4896(11) 0.500000 0.152(6) Uani 1 2 d S TU P . .
H1B H 0.717553 0.429990 0.475190 0.228 Uiso 0.5 1 d R U P . .
H1C H 0.660424 0.516100 0.467190 0.228 Uiso 0.5 1 d R U P . .
O2 O 0.5610(7) 0.5788(13) 0.500000 0.166(5) Uiso 1 2 d S . P . .
H2A H 0.524986 0.629595 0.500000 0.248 Uiso 1 2 d R U P . .
H2B H 0.585426 0.594545 0.543830 0.248 Uiso 0.5 1 d R U P . .
O3 O 0.7010(9) 0.1962(17) 0.500000 0.226(7) Uiso 1 2 d S . P . .
H3D H 0.666785 0.141066 0.500000 0.271 Uiso 1 2 d R U P . .
H3A H 0.739434 0.152556 0.500000 0.339 Uiso 1 2 d R U P . .
loop_
_atom_site_aniso_label
_atom_site_aniso_U_11
_atom_site_aniso_U_22
_atom_site_aniso_U_33
_atom_site_aniso_U_23
_atom_site_aniso_U_13
_atom_site_aniso_U_12
C1 0.047(3) 0.034(2) 0.038(3) 0.0031(18) -0.005(2) -0.005(2)
C2 0.054(3) 0.035(3) 0.045(3) 0.003(2) -0.003(2) -0.004(2)
C3 0.028(3) 0.025(3) 0.058(3) -0.0072(16) 0.0016(18) 0.001(2)
C4 0.034(2) 0.034(2) 0.050(3) -0.002(2) -0.003(2) 0.0031(19)
C5 0.035(2) 0.030(2) 0.041(2) 0.0020(19) -0.0031(19) 0.0024(19)
Cu1 0.0311(9) 0.0215(8) 0.0265(8) 0.000 0.000 0.000
F1 0.065(3) 0.043(3) 0.0189(17) 0.000 0.000 -0.0061(15)
F2 0.141(13) 0.032(4) 0.042(4) 0.000 0.000 0.003(4)
F3 0.035(5) 0.132(14) 0.052(5) 0.000 0.000 -0.005(5)
F2' 0.10(2) 0.083(17) 0.076(13) 0.000 0.000 0.050(15)
F3' 0.081(17) 0.095(19) 0.099(13) 0.000 0.000 -0.058(14)
N1 0.030(2) 0.028(2) 0.034(2) -0.0028(12) -0.0005(13) 0.0012(18)
S1 0.0270(11) 0.0254(11) 0.0946(19) -0.0052(7) 0.000 0.000
Si1 0.0354(16) 0.0290(15) 0.0231(13) 0.000 0.000 -0.0015(8)
O1 0.126(10) 0.232(14) 0.098(8) 0.000 0.000 -0.014(7)
loop_
_atom_type_symbol
_atom_type_description
_atom_type_scat_dispersion_real
_atom_type_scat_dispersion_imag
_atom_type_scat_source
C C 0.0137 0.0067 'International Tables Vol C Tables 4.2.6.8 and 6.1.1.4'
H H 0.0000 0.0000 'International Tables Vol C Tables 4.2.6.8 and 6.1.1.4'
Cu Cu -2.7974 3.6876 'International Tables Vol C Tables 4.2.6.8 and 6.1.1.4'
F F 0.0583 0.0400 'International Tables Vol C Tables 4.2.6.8 and 6.1.1.4'
N N 0.0241 0.0134 'International Tables Vol C Tables 4.2.6.8 and 6.1.1.4'
S S 0.2925 0.4295 'International Tables Vol C Tables 4.2.6.8 and 6.1.1.4'
Si Si 0.2153 0.2529 'International Tables Vol C Tables 4.2.6.8 and 6.1.1.4'
O O 0.0389 0.0241 'International Tables Vol C Tables 4.2.6.8 and 6.1.1.4'
loop_
_geom_angle_atom_site_label_1
_geom_angle_atom_site_label_2
_geom_angle_atom_site_label_3
_geom_angle
_geom_angle_site_symmetry_1
_geom_angle_site_symmetry_3
_geom_angle_publ_flag
N1 C1 C2 122.5(4) . . ?
N1 C1 H1 118.8 . . ?
C2 C1 H1 118.8 . . ?
C1 C2 C3 119.2(5) . . ?
C1 C2 H2 120.4 . . ?
C3 C2 H2 120.4 . . ?
C4 C3 C2 118.8(5) . . ?
C4 C3 S1 120.8(4) . . ?
C2 C3 S1 120.4(4) . . ?
C5 C4 C3 119.1(4) . . ?
C5 C4 H4 120.5 . . ?
C3 C4 H4 120.5 . . ?
N1 C5 C4 122.3(4) . . ?
N1 C5 H5 118.8 . . ?
C4 C5 H5 118.8 . . ?
N1 Cu1 N1 87.5(3) 2_655 8_446 ?
N1 Cu1 N1 92.5(3) 2_655 7_546 ?
N1 Cu1 N1 178.42(17) 8_446 7_546 ?
N1 Cu1 N1 178.42(17) 2_655 . ?
N1 Cu1 N1 92.5(3) 8_446 . ?
N1 Cu1 N1 87.5(3) 7_546 . ?
N1 Cu1 F1 89.21(8) 2_655 . ?
N1 Cu1 F1 90.79(8) 8_446 . ?
N1 Cu1 F1 90.79(8) 7_546 . ?
N1 Cu1 F1 89.21(8) . . ?
N1 Cu1 F1 90.79(8) 2_655 7_546 ?
N1 Cu1 F1 89.21(8) 8_446 7_546 ?
N1 Cu1 F1 89.21(8) 7_546 7_546 ?
N1 Cu1 F1 90.79(8) . 7_546 ?
F1 Cu1 F1 180.0 . 7_546 ?
Si1 F1 Cu1 180.0 . . ?
C1 N1 C5 118.2(4) . . ?
C1 N1 Cu1 119.8(3) . . ?
C5 N1 Cu1 121.9(3) . . ?
C3 S1 C3 99.5(4) 8_456 . ?
F3 Si1 F3 180.0 9_656 . ?
F3 Si1 F2' 127(2) 9_656 9_656 ?
F3 Si1 F2' 53(2) . 9_656 ?
F3' Si1 F2' 93(3) . . ?
F3' Si1 F2' 87(3) 9_656 . ?
F2' Si1 F2' 180.0 9_656 . ?
F3 Si1 F2 90.9(9) 9_656 9_656 ?
F3 Si1 F2 89.1(9) . 9_656 ?
F3 Si1 F2 89.1(9) 9_656 . ?
F3 Si1 F2 90.9(9) . . ?
F2 Si1 F2 180.0 9_656 . ?
F3 Si1 F1 90.000(1) 9_656 9_656 ?
F3 Si1 F1 90.0 . 9_656 ?
F2 Si1 F1 90.0 9_656 9_656 ?
F2 Si1 F1 90.0 . 9_656 ?
F3' Si1 F1 90.000(1) . . ?
F3' Si1 F1 90.000(1) 9_656 . ?
F3 Si1 F1 90.0 9_656 . ?
F3 Si1 F1 90.000(1) . . ?
F2' Si1 F1 90.0 9_656 . ?
F2' Si1 F1 90.0 . . ?
F2 Si1 F1 90.0 9_656 . ?
F2 Si1 F1 90.0 . . ?
F1 Si1 F1 180.0 9_656 . ?
H1B O1 H1C 109.5 . . ?
H1B O1 H1B 55.1 . 10_556 ?
H1C O1 H1B 154.0 . 10_556 ?
H1B O1 H1C 154.0 . 10_556 ?
H1C O1 H1C 75.4 . 10_556 ?
H1B O1 H1C 109.5 10_556 10_556 ?
H2A O2 H2B 109.5 . . ?
H2A O2 H2B 109.5 . 10_556 ?
H2B O2 H2B 109.5 . 10_556 ?
H3D O3 H3A 109.5 . . ?
loop_
_geom_bond_atom_site_label_1
_geom_bond_atom_site_label_2
_geom_bond_distance
_geom_bond_site_symmetry_2
_geom_bond_publ_flag
C1 N1 1.340(6) . ?
C1 C2 1.376(7) . ?
C1 H1 0.9500 . ?
C2 C3 1.379(7) . ?
C2 H2 0.9500 . ?
C3 C4 1.382(7) . ?
C3 S1 1.773(6) . ?
C4 C5 1.376(7) . ?
C4 H4 0.9500 . ?
C5 N1 1.346(6) . ?
C5 H5 0.9500 . ?
Cu1 N1 2.023(5) 2_655 ?
Cu1 N1 2.023(5) 8_446 ?
Cu1 N1 2.023(5) 7_546 ?
Cu1 N1 2.023(5) . ?
Cu1 F1 2.273(4) . ?
Cu1 F1 2.273(4) 7_546 ?
F1 Si1 1.686(4) . ?
F2 Si1 1.678(8) . ?
F3 Si1 1.660(9) . ?
F2' Si1 1.67(2) . ?
F3' Si1 1.64(2) . ?
O1 H1B 0.8500 . ?
O1 H1C 0.8500 . ?
O1 H1B 0.8500 10_556 ?
O1 H1C 0.8499 10_556 ?
O2 H2A 0.8499 . ?
O2 H2B 0.8501 . ?
O2 H2B 0.8501 10_556 ?
O3 H3D 0.8500 . ?
O3 H3A 0.8500 . ?
