#------------------------------------------------------------------------------
#$Date: 2020-02-04 01:54:35 +0200 (Tue, 04 Feb 2020) $
#$Revision: 247489 $
#$URL: file:///home/coder/svn-repositories/cod/cif/4/13/41/4134111.cif $
#------------------------------------------------------------------------------
#
# This file is available in the Crystallography Open Database (COD),
# http://www.crystallography.net/
#
# All data on this site have been placed in the public domain by the
# contributors.
#
data_4134111
loop_
_publ_author_name
'Luo, Tian-Yi'
'White, David L.'
'Liu, Chong'
'Star, Alexander'
'Rosi, Nathaniel L.'
'Das, Prasenjit'
_publ_section_title
;
 Luminescence &quot;Turn-On&quot; Detection of Gossypol using Ln3+-Based
 Metal-Organic Frameworks and Ln Salts.
;
_journal_name_full               'Journal of the American Chemical Society'
_journal_paper_doi               10.1021/jacs.9b11429
_journal_year                    2020
_chemical_formula_moiety         '0.5(C240 H144 N24 O67.76 Yb12)'
_chemical_formula_sum            'C120 H72 N12 O33.88 Yb6'
_chemical_formula_weight         3262.21
_space_group_crystal_system      cubic
_space_group_IT_number           225
_space_group_name_Hall           '-F 4 2 3'
_space_group_name_H-M_alt        'F m -3 m'
_atom_sites_solution_hydrogens   geom
_atom_sites_solution_primary     direct
_audit_creation_date             2018-12-22
_audit_creation_method
;
Olex2 1.2
(compiled 2015.01.26 svn.r3150 for OlexSys, GUI svn.r4998)
;
_cell_angle_alpha                90
_cell_angle_beta                 90
_cell_angle_gamma                90
_cell_formula_units_Z            4
_cell_length_a                   33.4692(14)
_cell_length_b                   33.4692(14)
_cell_length_c                   33.4692(14)
_cell_measurement_reflns_used    9223
_cell_measurement_temperature    230(2)
_cell_measurement_theta_max      51.18
_cell_measurement_theta_min      2.29
_cell_volume                     37492(3)
_computing_cell_refinement       'SAINT v8.34A (Bruker, 2013)'
_computing_data_reduction        'SAINT v8.34A (Bruker, 2013)'
_computing_molecular_graphics    'Olex2 (Dolomanov et al., 2009)'
_computing_publication_material  'Olex2 (Dolomanov et al., 2009)'
_computing_structure_refinement  'ShelXL (Sheldrick, 2008)'
_computing_structure_solution    'ShelXT (Sheldrick, 2015)'
_diffrn_ambient_temperature      230.0
_diffrn_detector                 'CCD area detector'
_diffrn_detector_area_resol_mean 8
_diffrn_detector_type            'APEX II CCD'
_diffrn_measured_fraction_theta_full 0.619
_diffrn_measured_fraction_theta_max 1.000
_diffrn_measurement_device_type  'Bruker X8 Prospector Ultra'
_diffrn_measurement_method       '\f and \w scans'
_diffrn_radiation_monochromator  graphite
_diffrn_radiation_probe          x-ray
_diffrn_radiation_type           CuK\a
_diffrn_radiation_wavelength     1.54178
_diffrn_reflns_av_R_equivalents  0.1353
_diffrn_reflns_av_unetI/netI     0.0470
_diffrn_reflns_Laue_measured_fraction_full 0.619
_diffrn_reflns_Laue_measured_fraction_max 1.000
_diffrn_reflns_limit_h_max       33
_diffrn_reflns_limit_h_min       -33
_diffrn_reflns_limit_k_max       23
_diffrn_reflns_limit_k_min       -33
_diffrn_reflns_limit_l_max       20
_diffrn_reflns_limit_l_min       -33
_diffrn_reflns_number            16692
_diffrn_reflns_point_group_measured_fraction_full 0.619
_diffrn_reflns_point_group_measured_fraction_max 1.000
_diffrn_reflns_theta_full        67.679
_diffrn_reflns_theta_max         51.173
_diffrn_reflns_theta_min         2.286
_diffrn_source_target            Cu
_diffrn_standards_number         0
_exptl_absorpt_coefficient_mu    2.872
_exptl_absorpt_correction_T_max  0.7501
_exptl_absorpt_correction_T_min  0.5304
_exptl_absorpt_correction_type   multi-scan
_exptl_absorpt_process_details
'SADABS-2014/4 (Bruker,2014/4) was used for absorption correction. wR2(int) was 0.1224 before and 0.0792 after correction. The Ratio of minimum to maximum transmission is 0.7071. The \l/2 correction factor is 0.00150.'
_exptl_crystal_colour            colourless
_exptl_crystal_colour_primary    colourless
_exptl_crystal_density_diffrn    0.578
_exptl_crystal_description       octahedron
_exptl_crystal_F_000             6268
_exptl_crystal_size_max          0.12
_exptl_crystal_size_mid          0.12
_exptl_crystal_size_min          0.12
_refine_diff_density_max         1.621
_refine_diff_density_min         -1.302
_refine_diff_density_rms         0.210
_refine_ls_extinction_method     none
_refine_ls_goodness_of_fit_ref   1.308
_refine_ls_hydrogen_treatment    constr
_refine_ls_matrix_type           full
_refine_ls_number_parameters     56
_refine_ls_number_reflns         1076
_refine_ls_number_restraints     85
_refine_ls_restrained_S_all      1.273
_refine_ls_R_factor_all          0.1070
_refine_ls_R_factor_gt           0.0983
_refine_ls_shift/su_max          0.000
_refine_ls_shift/su_mean         0.000
_refine_ls_structure_factor_coef Fsqd
_refine_ls_weighting_details
'w=1/[\s^2^(Fo^2^)+(0.1569P)^2^+617.4092P] where P=(Fo^2^+2Fc^2^)/3'
_refine_ls_weighting_scheme      calc
_refine_ls_wR_factor_gt          0.2754
_refine_ls_wR_factor_ref         0.2831
_reflns_Friedel_coverage         0.000
_reflns_number_gt                929
_reflns_number_total             1076
_reflns_threshold_expression     'I > 2\s(I)'
_iucr_refine_instructions_details
;
TITL lty_5_62_4_0m_a.res in Fm-3m
REM Old TITL lty_5_62_4_0m in Fm-3m
REM SHELXT solution in Fm-3m
REM R1 0.165, Rweak 0.017, Alpha 0.093, Orientation as input
REM Formula found by SHELXT: C12 N12 O4 Yb3
CELL 1.54178 33.4692 33.4692 33.4692 90 90 90
ZERR 4 0.0014 0.0014 0.0014 0 0 0
LATT 4
SYMM -X,-Y,+Z
SYMM -X,+Y,-Z
SYMM +X,-Y,-Z
SYMM +Z,+X,+Y
SYMM +Z,-X,-Y
SYMM -Z,-X,+Y
SYMM -Z,+X,-Y
SYMM +Y,+Z,+X
SYMM -Y,+Z,-X
SYMM +Y,-Z,-X
SYMM -Y,-Z,+X
SYMM +Y,+X,-Z
SYMM -Y,-X,-Z
SYMM +Y,-X,+Z
SYMM -Y,+X,+Z
SYMM +X,+Z,-Y
SYMM -X,+Z,+Y
SYMM -X,-Z,-Y
SYMM +X,-Z,+Y
SYMM +Z,+Y,-X
SYMM +Z,-Y,+X
SYMM -Z,+Y,+X
SYMM -Z,-Y,-X
SFAC C H N O Yb
UNIT 480 288 48 135.52 24
DFIX 1.38 C3 C2 C4 C3 C5 C4 C7 C6
SIMU 0.04 0.08 1.7 O1 C1 C2 C3 C4 C5 C6 C7
RIGU O1 C1 C2 C3 C4 C5 C6 C7
 
L.S. 10
PLAN  20
SIZE 0.12 0.12 0.12
TEMP -43.15
BOND $H
LIST 4
MORE -1
CONF
fmap 2
ACTA
REM <olex2.extras>
REM <HklSrc "%.\\lty_5_62_4_0m_a.hkl">
REM </olex2.extras>
 
WGHT    0.156900  617.409180
FVAR       0.05619
YB1   5    0.500000    0.500000    0.419330    10.12500    0.05137    0.05137 =
         0.03173    0.00000    0.00000    0.00000
O1    4    0.438688    0.500000    0.389092    10.50000    0.07907    0.10240 =
         0.06547    0.00000   -0.03819    0.00000
O2    4    0.537526    0.537526    0.462474    10.16667    0.02504    0.02504 =
         0.02504    0.00117    0.00117   -0.00117
N1    3    0.420041    0.500000    0.314792    10.25000    0.09871    0.68034 =
         0.05668    0.00000   -0.02777    0.00000
AFIX  93
H1A   2    0.423682    0.500000    0.289054    10.25000   -1.20000
H1B   2    0.440509    0.500000    0.330814    10.25000   -1.20000
AFIX   0
C1    1    0.401438    0.500000    0.401438    10.25000    0.08088    0.14159 =
         0.08088    0.00000   -0.03489    0.00000
C2    1    0.371154    0.500000    0.371154    10.25000    0.10088    0.18085 =
         0.10088    0.00000   -0.05524    0.00000
C3    1    0.380279    0.500000    0.330813    10.50000    0.13501    0.25898 =
         0.10011    0.00000   -0.05148    0.00000
C4    1    0.350519    0.500000    0.302340    10.50000    0.14545    0.33307 =
         0.11742    0.00000   -0.06864    0.00000
AFIX  43
H4    2    0.358205    0.500000    0.275327    10.50000   -1.20000
AFIX   0
C5    1    0.310767    0.500000    0.310767    10.25000    0.14248    0.39879 =
         0.14248    0.00000   -0.06665    0.00000
C6    1    0.278784    0.500000    0.278784    10.25000    0.15677    0.48340 =
         0.15677    0.00000   -0.08107    0.00000
C7    1    0.292363    0.500000    0.239755    10.50000    0.18400    0.55531 =
         0.15550    0.00000   -0.07987    0.00000
AFIX  43
H7    2    0.319739    0.500000    0.233481    10.50000   -1.20000
AFIX   0
O1S   4    0.500000    0.500000    0.342404     0.03916    0.14260
HKLF 4
 
REM  lty_5_62_4_0m_a.res in Fm-3m
REM R1 =  0.0983 for     929 Fo > 4sig(Fo)  and  0.1070 for all    1076 data
REM     56 parameters refined using     85 restraints
 
END  
     
WGHT      0.1569    617.8459 

REM Highest difference peak  1.621,  deepest hole -1.302,  1-sigma level  0.210
Q1    1   0.3965  0.6035  0.3965  10.16667  0.05    1.62
Q2    1   0.3309  0.5882  0.3309  10.50000  0.05    0.77
Q3    1   0.4395  0.5605  0.3573  10.50000  0.05    0.75
Q4    1   0.3345  0.6655  0.2408  10.50000  0.05    0.51
Q5    1   0.2762  0.6847  0.2762  10.50000  0.05    0.49
Q6    1   0.5000  0.5000  0.2820  10.12500  0.05    0.47
Q7    1   0.4102  0.5898  0.2477  10.50000  0.05    0.47
Q8    1   0.2500  0.2848  0.2500  10.25000  0.05    0.47
Q9    1   0.4018  0.5000  0.1422  10.50000  0.05    0.44
Q10   1   0.2712  0.6891  0.2288  10.50000  0.05    0.44
Q11   1   0.3702  0.5000  0.1382  10.50000  0.05    0.43
Q12   1   0.3862  0.6138  0.3358  10.50000  0.05    0.42
Q13   1   0.3971  0.4843  0.1352  11.00000  0.05    0.42
Q14   1   0.4713  0.5000  0.2679  10.50000  0.05    0.38
Q15   1   0.3873  0.5000  0.1127  10.25000  0.05    0.38
Q16   1   0.3912  0.5468  0.1285  11.00000  0.05    0.37
Q17   1   0.3881  0.4926  0.1462  11.00000  0.05    0.36
Q18   1   0.4415  0.4415  0.1319  10.50000  0.05    0.36
Q19   1   0.3897  0.4409  0.1174  11.00000  0.05    0.36
Q20   1   0.3946  0.4477  0.1054  10.50000  0.05    0.35

REM The information below was added by Olex2.
REM
REM R1 = 0.0983 for 929 Fo > 4sig(Fo) and 0.1070 for all 16692 data
REM n/a parameters refined using n/a restraints
REM Highest difference peak 1.62, deepest hole -1.30
REM Mean Shift 0, Max Shift 0.000.

REM +++ Tabular Listing of Refinement Information +++
REM R1_all = 0.1070
REM R1_gt = 0.0983
REM wR_ref = 0.2831
REM GOOF = 1.308
REM Shift_max = 0.000
REM Shift_mean = 0
REM Reflections_all = 16692
REM Reflections_gt = 929
REM Parameters = n/a
REM Hole = -1.30
REM Peak = 1.62
REM Flack = n/a

;
_cod_data_source_file            ja9b11429_si_002.cif
_cod_data_source_block           lty_5_62_4_0m_a
_cod_original_cell_volume        37492(5)
_cod_database_code               4134111
_shelxl_version_number           2014/6
_shelx_space_group_comment
;
The symmetry employed for this shelxl refinement is uniquely defined
by the following loop, which should always be used as a source of
symmetry information in preference to the above space-group names.
They are only intended as comments.
;
_shelx_estimated_absorpt_t_max   0.724
_shelx_estimated_absorpt_t_min   0.724
_olex2_refinement_description
;
1. Fixed Uiso
 At 1.2 times of:
  All C(H) groups, All N(H,H) groups
2. Restrained distances
 C3-C2 = C4-C3 = C5-C4 = C7-C6
 1.38 with sigma of 0.02
3. Uiso/Uaniso restraints and constraints
O1 \\sim C1 \\sim C2 \\sim C3 \\sim C4 \\sim C5 \\sim C6 \\sim C7: within 1.7A
with sigma of 0.04 and sigma for terminal atoms of 0.08
4. Rigid body (RIGU) restrains
 O1, C1, C2, C3, C4, C5, C6, C7
 with sigma for 1-2 distances of 0.004 and sigma for 1-3 distances of 0.004
5. Others
 Fixed Sof: N1(0.25) H1A(0.25) H1B(0.25)
6.a Aromatic/amide H refined with riding coordinates:
 C4(H4), C7(H7)
6.b X=CH2 refined with riding coordinates:
 N1(H1A,H1B)
;
_olex2_submission_special_instructions 'No special instructions were received'
loop_
_space_group_symop_operation_xyz
'x, y, z'
'-x, -y, z'
'-x, y, -z'
'x, -y, -z'
'z, x, y'
'z, -x, -y'
'-z, -x, y'
'-z, x, -y'
'y, z, x'
'-y, z, -x'
'y, -z, -x'
'-y, -z, x'
'y, x, -z'
'-y, -x, -z'
'y, -x, z'
'-y, x, z'
'x, z, -y'
'-x, z, y'
'-x, -z, -y'
'x, -z, y'
'z, y, -x'
'z, -y, x'
'-z, y, x'
'-z, -y, -x'
'x, y+1/2, z+1/2'
'-x, -y+1/2, z+1/2'
'-x, y+1/2, -z+1/2'
'x, -y+1/2, -z+1/2'
'z, x+1/2, y+1/2'
'z, -x+1/2, -y+1/2'
'-z, -x+1/2, y+1/2'
'-z, x+1/2, -y+1/2'
'y, z+1/2, x+1/2'
'-y, z+1/2, -x+1/2'
'y, -z+1/2, -x+1/2'
'-y, -z+1/2, x+1/2'
'y, x+1/2, -z+1/2'
'-y, -x+1/2, -z+1/2'
'y, -x+1/2, z+1/2'
'-y, x+1/2, z+1/2'
'x, z+1/2, -y+1/2'
'-x, z+1/2, y+1/2'
'-x, -z+1/2, -y+1/2'
'x, -z+1/2, y+1/2'
'z, y+1/2, -x+1/2'
'z, -y+1/2, x+1/2'
'-z, y+1/2, x+1/2'
'-z, -y+1/2, -x+1/2'
'x+1/2, y, z+1/2'
'-x+1/2, -y, z+1/2'
'-x+1/2, y, -z+1/2'
'x+1/2, -y, -z+1/2'
'z+1/2, x, y+1/2'
'z+1/2, -x, -y+1/2'
'-z+1/2, -x, y+1/2'
'-z+1/2, x, -y+1/2'
'y+1/2, z, x+1/2'
'-y+1/2, z, -x+1/2'
'y+1/2, -z, -x+1/2'
'-y+1/2, -z, x+1/2'
'y+1/2, x, -z+1/2'
'-y+1/2, -x, -z+1/2'
'y+1/2, -x, z+1/2'
'-y+1/2, x, z+1/2'
'x+1/2, z, -y+1/2'
'-x+1/2, z, y+1/2'
'-x+1/2, -z, -y+1/2'
'x+1/2, -z, y+1/2'
'z+1/2, y, -x+1/2'
'z+1/2, -y, x+1/2'
'-z+1/2, y, x+1/2'
'-z+1/2, -y, -x+1/2'
'x+1/2, y+1/2, z'
'-x+1/2, -y+1/2, z'
'-x+1/2, y+1/2, -z'
'x+1/2, -y+1/2, -z'
'z+1/2, x+1/2, y'
'z+1/2, -x+1/2, -y'
'-z+1/2, -x+1/2, y'
'-z+1/2, x+1/2, -y'
'y+1/2, z+1/2, x'
'-y+1/2, z+1/2, -x'
'y+1/2, -z+1/2, -x'
'-y+1/2, -z+1/2, x'
'y+1/2, x+1/2, -z'
'-y+1/2, -x+1/2, -z'
'y+1/2, -x+1/2, z'
'-y+1/2, x+1/2, z'
'x+1/2, z+1/2, -y'
'-x+1/2, z+1/2, y'
'-x+1/2, -z+1/2, -y'
'x+1/2, -z+1/2, y'
'z+1/2, y+1/2, -x'
'z+1/2, -y+1/2, x'
'-z+1/2, y+1/2, x'
'-z+1/2, -y+1/2, -x'
'-x, -y, -z'
'x, y, -z'
'x, -y, z'
'-x, y, z'
'-z, -x, -y'
'-z, x, y'
'z, x, -y'
'z, -x, y'
'-y, -z, -x'
'y, -z, x'
'-y, z, x'
'y, z, -x'
'-y, -x, z'
'y, x, z'
'-y, x, -z'
'y, -x, -z'
'-x, -z, y'
'x, -z, -y'
'x, z, y'
'-x, z, -y'
'-z, -y, x'
'-z, y, -x'
'z, -y, -x'
'z, y, x'
'-x, -y+1/2, -z+1/2'
'x, y+1/2, -z+1/2'
'x, -y+1/2, z+1/2'
'-x, y+1/2, z+1/2'
'-z, -x+1/2, -y+1/2'
'-z, x+1/2, y+1/2'
'z, x+1/2, -y+1/2'
'z, -x+1/2, y+1/2'
'-y, -z+1/2, -x+1/2'
'y, -z+1/2, x+1/2'
'-y, z+1/2, x+1/2'
'y, z+1/2, -x+1/2'
'-y, -x+1/2, z+1/2'
'y, x+1/2, z+1/2'
'-y, x+1/2, -z+1/2'
'y, -x+1/2, -z+1/2'
'-x, -z+1/2, y+1/2'
'x, -z+1/2, -y+1/2'
'x, z+1/2, y+1/2'
'-x, z+1/2, -y+1/2'
'-z, -y+1/2, x+1/2'
'-z, y+1/2, -x+1/2'
'z, -y+1/2, -x+1/2'
'z, y+1/2, x+1/2'
'-x+1/2, -y, -z+1/2'
'x+1/2, y, -z+1/2'
'x+1/2, -y, z+1/2'
'-x+1/2, y, z+1/2'
'-z+1/2, -x, -y+1/2'
'-z+1/2, x, y+1/2'
'z+1/2, x, -y+1/2'
'z+1/2, -x, y+1/2'
'-y+1/2, -z, -x+1/2'
'y+1/2, -z, x+1/2'
'-y+1/2, z, x+1/2'
'y+1/2, z, -x+1/2'
'-y+1/2, -x, z+1/2'
'y+1/2, x, z+1/2'
'-y+1/2, x, -z+1/2'
'y+1/2, -x, -z+1/2'
'-x+1/2, -z, y+1/2'
'x+1/2, -z, -y+1/2'
'x+1/2, z, y+1/2'
'-x+1/2, z, -y+1/2'
'-z+1/2, -y, x+1/2'
'-z+1/2, y, -x+1/2'
'z+1/2, -y, -x+1/2'
'z+1/2, y, x+1/2'
'-x+1/2, -y+1/2, -z'
'x+1/2, y+1/2, -z'
'x+1/2, -y+1/2, z'
'-x+1/2, y+1/2, z'
'-z+1/2, -x+1/2, -y'
'-z+1/2, x+1/2, y'
'z+1/2, x+1/2, -y'
'z+1/2, -x+1/2, y'
'-y+1/2, -z+1/2, -x'
'y+1/2, -z+1/2, x'
'-y+1/2, z+1/2, x'
'y+1/2, z+1/2, -x'
'-y+1/2, -x+1/2, z'
'y+1/2, x+1/2, z'
'-y+1/2, x+1/2, -z'
'y+1/2, -x+1/2, -z'
'-x+1/2, -z+1/2, y'
'x+1/2, -z+1/2, -y'
'x+1/2, z+1/2, y'
'-x+1/2, z+1/2, -y'
'-z+1/2, -y+1/2, x'
'-z+1/2, y+1/2, -x'
'z+1/2, -y+1/2, -x'
'z+1/2, y+1/2, x'
loop_
_atom_site_label
_atom_site_type_symbol
_atom_site_fract_x
_atom_site_fract_y
_atom_site_fract_z
_atom_site_U_iso_or_equiv
_atom_site_adp_type
_atom_site_occupancy
_atom_site_site_symmetry_order
_atom_site_calc_flag
_atom_site_refinement_flags_posn
_atom_site_refinement_flags_adp
_atom_site_refinement_flags_occupancy
Yb1 Yb 0.5000 0.5000 0.41933(4) 0.0448(9) Uani 1 8 d S T P
O1 O 0.4387(4) 0.5000 0.3891(4) 0.082(4) Uani 1 2 d S TU P
O2 O 0.5375(2) 0.5375(2) 0.4625(2) 0.025(3) Uani 1 6 d S T P
N1 N 0.4200(15) 0.5000 0.3148(14) 0.28(6) Uani 0.5 2 d S T P
H1A H 0.4237 0.5000 0.2891 0.334 Uiso 0.5 2 calc RS T P
H1B H 0.4405 0.5000 0.3308 0.334 Uiso 0.5 2 calc RS T P
C1 C 0.4014(6) 0.5000 0.4014(6) 0.101(8) Uani 1 4 d S TU P
C2 C 0.3712(6) 0.5000 0.3712(6) 0.128(9) Uani 1 4 d DS TU P
C3 C 0.3803(8) 0.5000 0.3308(6) 0.165(10) Uani 1 2 d DS TU P
C4 C 0.3505(8) 0.5000 0.3023(9) 0.199(12) Uani 1 2 d DS TU P
H4 H 0.3582 0.5000 0.2753 0.238 Uiso 1 2 calc RS T P
C5 C 0.3108(10) 0.5000 0.3108(10) 0.228(15) Uani 1 4 d DS TU P
C6 C 0.2788(11) 0.5000 0.2788(11) 0.266(18) Uani 1 4 d DS TU P
C7 C 0.2924(12) 0.5000 0.2398(8) 0.30(2) Uani 1 2 d DS TU P
H7 H 0.3197 0.5000 0.2335 0.358 Uiso 1 2 calc RS T P
O1S O 0.5000 0.5000 0.342(4) 0.14(6) Uiso 0.31(9) 8 d S T P
loop_
_atom_site_aniso_label
_atom_site_aniso_U_11
_atom_site_aniso_U_22
_atom_site_aniso_U_33
_atom_site_aniso_U_23
_atom_site_aniso_U_13
_atom_site_aniso_U_12
Yb1 0.0514(10) 0.0514(10) 0.0317(11) 0.000 0.000 0.000
O1 0.079(7) 0.102(10) 0.065(8) 0.000 -0.038(6) 0.000
O2 0.025(3) 0.025(3) 0.025(3) 0.001(3) 0.001(3) -0.001(3)
N1 0.10(4) 0.68(18) 0.06(3) 0.000 -0.03(3) 0.000
C1 0.081(7) 0.14(2) 0.081(7) 0.000 -0.035(8) 0.000
C2 0.101(8) 0.18(2) 0.101(8) 0.000 -0.055(10) 0.000
C3 0.135(13) 0.26(3) 0.100(9) 0.000 -0.051(10) 0.000
C4 0.145(14) 0.33(3) 0.117(12) 0.000 -0.069(13) 0.000
C5 0.142(13) 0.40(4) 0.142(13) 0.000 -0.067(14) 0.000
C6 0.157(16) 0.48(5) 0.157(16) 0.000 -0.081(18) 0.000
C7 0.18(3) 0.56(5) 0.156(17) 0.000 -0.080(18) 0.000
loop_
_atom_type_symbol
_atom_type_description
_atom_type_scat_dispersion_real
_atom_type_scat_dispersion_imag
_atom_type_scat_source
C C 0.0181 0.0091 'International Tables Vol C Tables 4.2.6.8 and 6.1.1.4'
H H 0.0000 0.0000 'International Tables Vol C Tables 4.2.6.8 and 6.1.1.4'
N N 0.0311 0.0180 'International Tables Vol C Tables 4.2.6.8 and 6.1.1.4'
O O 0.0492 0.0322 'International Tables Vol C Tables 4.2.6.8 and 6.1.1.4'
Yb Yb -7.2108 4.4329 'International Tables Vol C Tables 4.2.6.8 and 6.1.1.4'
loop_
_geom_angle_atom_site_label_1
_geom_angle_atom_site_label_2
_geom_angle_atom_site_label_3
_geom_angle
_geom_angle_site_symmetry_1
_geom_angle_site_symmetry_3
Yb1 Yb1 Yb1 90.002(1) 101_666 5
Yb1 Yb1 Yb1 60.0 101_666 105_666
Yb1 Yb1 Yb1 60.001(1) 105_666 5
O1 Yb1 Yb1 161.3(4) 110 105_666
O1 Yb1 Yb1 161.3(4) 2_665 5
O1 Yb1 Yb1 108.2(2) 110 101_666
O1 Yb1 Yb1 108.2(2) 110 5
O1 Yb1 Yb1 161.3(4) . 101_666
O1 Yb1 Yb1 108.2(2) 109_665 5
O1 Yb1 Yb1 71.2(4) 2_665 101_666
O1 Yb1 Yb1 71.3(4) . 5
O1 Yb1 Yb1 108.2(2) 2_665 105_666
O1 Yb1 Yb1 108.2(2) 109_665 101_666
O1 Yb1 Yb1 108.2(2) . 105_666
O1 Yb1 Yb1 71.2(4) 109_665 105_666
O1 Yb1 O1 78.7(3) 110 2_665
O1 Yb1 O1 78.7(3) 109_665 .
O1 Yb1 O1 78.7(3) 109_665 2_665
O1 Yb1 O1 127.5(7) 2_665 .
O1 Yb1 O1 127.5(7) 110 109_665
O1 Yb1 O1 78.7(3) 110 .
O1 Yb1 O2 140.45(19) 109_665 2_665
O1 Yb1 O2 77.7(4) 110 2_665
O1 Yb1 O2 140.45(19) 110 100_655
O1 Yb1 O2 77.7(4) 109_665 100_655
O1 Yb1 O2 77.7(4) 110 99_565
O1 Yb1 O2 77.7(4) . 100_655
O1 Yb1 O2 140.45(19) . 99_565
O1 Yb1 O2 140.45(19) 109_665 99_565
O1 Yb1 O2 77.7(4) . 2_665
O1 Yb1 O2 77.7(4) 2_665 .
O1 Yb1 O2 140.45(19) 110 .
O1 Yb1 O2 140.45(19) 2_665 2_665
O1 Yb1 O2 77.7(4) 2_665 99_565
O1 Yb1 O2 77.7(4) 109_665 .
O1 Yb1 O2 140.45(19) . .
O1 Yb1 O2 140.45(19) 2_665 100_655
O1 Yb1 O1S 63.7(4) 2_665 .
O1 Yb1 O1S 63.7(4) . .
O1 Yb1 O1S 63.7(4) 109_665 .
O1 Yb1 O1S 63.7(4) 110 .
O2 Yb1 Yb1 33.49(13) 100_655 5
O2 Yb1 Yb1 86.7(3) . 5
O2 Yb1 Yb1 86.7(3) 2_665 101_666
O2 Yb1 Yb1 33.49(13) . 101_666
O2 Yb1 Yb1 33.49(13) 2_665 5
O2 Yb1 Yb1 86.7(3) 99_565 5
O2 Yb1 Yb1 86.7(3) 2_665 105_666
O2 Yb1 Yb1 86.7(3) 99_565 105_666
O2 Yb1 Yb1 86.7(3) 100_655 101_666
O2 Yb1 Yb1 33.49(13) . 105_666
O2 Yb1 Yb1 33.49(13) 100_655 105_666
O2 Yb1 Yb1 33.49(13) 99_565 101_666
O2 Yb1 O2 66.6(3) 100_655 .
O2 Yb1 O2 101.8(6) 2_665 .
O2 Yb1 O2 101.8(6) 100_655 99_565
O2 Yb1 O2 66.6(3) 99_565 2_665
O2 Yb1 O2 66.6(3) 99_565 .
O2 Yb1 O2 66.6(3) 100_655 2_665
O2 Yb1 O1S 129.1(3) 100_655 .
O2 Yb1 O1S 129.1(3) 99_565 .
O2 Yb1 O1S 129.1(3) 2_665 .
O2 Yb1 O1S 129.1(3) . .
O1S Yb1 Yb1 134.999(3) . 105_666
O1S Yb1 Yb1 134.999(9) . 101_666
O1S Yb1 Yb1 134.999(9) . 5
C1 O1 Yb1 135.4(14) . .
Yb1 O2 Yb1 113.0(3) . 101_666
Yb1 O2 Yb1 113.0(3) . 105_666
Yb1 O2 Yb1 113.0(3) 105_666 101_666
H1A N1 H1B 120.0 . .
C3 N1 H1A 120.0 . .
C3 N1 H1B 120.0 . .
O1 C1 O1 127(3) 22_565 .
O1 C1 C2 116.7(13) . .
O1 C1 C2 116.7(13) 22_565 .
C3 C2 C1 122.3(17) . .
C3 C2 C1 122.3(17) 22_565 .
C3 C2 C3 115(3) 22_565 .
C2 C3 N1 125(3) . .
C4 C3 N1 114(3) . .
C4 C3 C2 121(3) . .
C3 C4 H4 117.9 . .
C5 C4 C3 124(4) . .
C5 C4 H4 117.9 . .
C4 C5 C4 114(5) 22_565 .
C4 C5 C6 123(2) . .
C4 C5 C6 123(2) 22_565 .
C7 C6 C5 116(3) 22_565 .
C7 C6 C5 116(3) . .
C7 C6 C7 128(6) 22_565 .
C6 C7 C7 116(3) . 166
C6 C7 H7 122.1 . .
C7 C7 H7 122.1 166 .
loop_
_geom_bond_atom_site_label_1
_geom_bond_atom_site_label_2
_geom_bond_distance
_geom_bond_site_symmetry_2
Yb1 Yb1 3.818(2) 5
Yb1 Yb1 3.818(2) 105_666
Yb1 Yb1 3.818(2) 101_666
Yb1 O1 2.288(12) 109_665
Yb1 O1 2.288(12) 110
Yb1 O1 2.288(12) 2_665
Yb1 O1 2.288(12) .
Yb1 O2 2.289(4) 99_565
Yb1 O2 2.289(4) .
Yb1 O2 2.289(4) 100_655
Yb1 O2 2.289(4) 2_665
Yb1 O1S 2.57(14) .
O1 C1 1.313(19) .
O2 Yb1 2.289(4) 105_666
O2 Yb1 2.289(4) 101_666
N1 H1A 0.8700 .
N1 H1B 0.8700 .
N1 C3 1.43(6) .
C1 O1 1.313(18) 22_565
C1 C2 1.43(4) .
C2 C3 1.384(18) .
C2 C3 1.384(18) 22_565
C3 C4 1.378(18) .
C4 H4 0.9400 .
C4 C5 1.360(18) .
C5 C4 1.360(18) 22_565
C5 C6 1.51(6) .
C6 C7 1.383(19) .
C6 C7 1.383(19) 22_565
C7 C7 1.52(6) 166
C7 H7 0.9400 .
loop_
_geom_torsion_atom_site_label_1
_geom_torsion_atom_site_label_2
_geom_torsion_atom_site_label_3
_geom_torsion_atom_site_label_4
_geom_torsion
_geom_torsion_site_symmetry_1
_geom_torsion_site_symmetry_4
Yb1 O1 C1 O1 0.000(4) . 22_565
Yb1 O1 C1 C2 180.000(2) . .
O1 C1 C2 C3 0.000(4) 22_565 22_565
O1 C1 C2 C3 180.000(3) 22_565 .
O1 C1 C2 C3 180.000(3) . 22_565
O1 C1 C2 C3 0.000(4) . .
N1 C3 C4 C5 180.000(3) . .
C1 C2 C3 N1 0.000(5) . .
C1 C2 C3 C4 180.000(3) . .
C2 C3 C4 C5 0.000(4) . .
C3 C2 C3 N1 180.000(4) 22_565 .
C3 C2 C3 C4 0.000(3) 22_565 .
C3 C4 C5 C4 0.000(4) . 22_565
C3 C4 C5 C6 180.000(3) . .
C4 C5 C6 C7 180.000(4) 22_565 .
C4 C5 C6 C7 0.000(5) 22_565 22_565
C4 C5 C6 C7 180.000(4) . 22_565
C4 C5 C6 C7 0.000(4) . .
C5 C6 C7 C7 180.000(3) . 166
C7 C6 C7 C7 0.000(6) 22_565 166
loop_
_refln_index_h
_refln_index_k
_refln_index_l
_refln_F_squared_meas
_refln_F_squared_sigma
1 1 -1 9013.9 791.22
1 -1 1 9497.05 793.02
1 -1 -1 9999 791.22
-1 1 -1 8555.34 791.22
0 0 -2 7020.3 616.94
2 0 0 7423.46 617.04
-2 0 -2 4010.2 341.87
-2 2 0 3797.82 341.97
0 2 -2 3685.13 341.97
2 0 -2 4495.05 342.07
2 2 -2 2463.15 217.98
2 -2 -2 2644.04 217.88
-2 2 -2 2511.25 218.38
3 1 -1 2770.72 207.98
1 1 -3 2370.16 208.18
1 3 -1 2465.95 207.78
-1 3 1 2332.77 207.48
1 -1 -3 2363.66 207.78
-1 1 -3 2272.87 207.98
-1 3 -1 2330.77 208.08
3 -1 -1 2539.65 208.08
-3 1 -1 2389.36 208.08
3 1 1 2391.36 207.58
3 1 -3 601.84 52.29
3 3 -1 617.94 51.59
1 3 -3 594.64 52.89
3 -1 3 428.06 67.59
3 -3 -1 541.75 51.99
3 -1 -3 606.24 51.99
-1 3 -3 560.24 52.99
-3 1 -3 592.44 53.09
-3 3 -1 573.64 52.79
3 3 -3 527.65 51.79
3 -3 3 829.62 88.69
3 -3 -3 533.45 51.19
-3 3 -3 582.24 53.19
0 0 -4 2029.3 178.98
4 0 0 2100.99 178.88
4 2 0 374.96 31.4
2 0 4 338.57 51.99
4 -2 0 324.47 31.9
0 4 -2 325.87 32.7
2 0 -4 300.97 32.1
-2 0 -4 314.67 32.3
0 -4 -2 381.76 47.2
0 2 -4 330.37 32.6
4 0 -2 357.66 31.2
-2 4 0 334.37 31.6
0 -2 -4 295.97 30.1
-4 0 -2 303.57 31.7
4 2 -2 337.57 30
2 4 -2 289.97 30.6
2 2 -4 297.77 31.2
2 -4 2 363.56 50.49
2 -4 -2 267.07 29.4
2 -2 -4 312.77 29.7
-2 4 -2 324.37 32.8
-2 2 -4 336.77 32.3
4 -2 -2 299.47 30.6
-4 2 -2 330.17 32.1
-4 0 -4 121.99 14.8
-4 4 0 69.19 14.3
0 4 -4 93.79 14.8
4 0 -4 68.89 12.6
4 4 0 139.09 106.79
4 2 -4 55.19 12.7
4 4 -2 65.09 12.1
-2 4 -4 96.69 15.9
2 -4 -4 68.29 11.1
4 -4 -2 97.99 13.4
4 -2 -4 73.49 12.3
-4 2 -4 66.99 15.1
-4 4 -2 58.29 14.7
4 4 -4 114.89 20
4 -4 -4 216.58 22.4
-4 4 -4 174.88 23.3
1 1 -5 552.24 49.4
-1 -1 -5 521.95 48.5
1 -5 1 615.74 75.89
5 1 -1 522.35 48.3
1 5 -1 496.65 47.9
-1 1 -5 517.05 49.2
-5 1 -1 493.05 49.4
1 -1 -5 508.25 48.5
5 -1 -1 568.44 49.1
-1 5 -1 533.45 49.2
5 1 1 525.55 48.2
3 1 -5 31.9 10.6
-1 -5 -3 43.4 48.2
1 5 -3 11.5 11.1
5 3 -1 38.2 9.2
-3 -1 -5 32.1 10.6
-1 5 -3 37.8 12.7
5 -3 -1 7.4 10
3 -1 -5 2 8.7
3 1 5 19.7 53.29
-5 3 -1 34.1 12.1
5 3 1 30.4 9
-3 1 -5 11.7 11.5
5 1 -3 33.7 10.1
-5 -1 -3 13.9 10.3
1 3 -5 27 12.8
-3 5 1 24 10.7
1 -3 -5 20.7 7.5
-5 1 -3 33 11.5
-3 5 -1 27.5 12.2
5 -1 -3 14.7 9.3
-1 3 -5 23 12.4
3 3 -5 181.58 22.6
5 3 -3 171.68 22.9
3 5 -3 194.98 24.5
-3 3 -5 203.48 23.9
3 -5 -3 189.58 22.9
3 -3 -5 163.48 22.2
-5 3 -3 174.78 23.5
-3 5 -3 208.58 24.8
5 -3 -3 192.88 24.2
-3 3 -5 356.46 96.29
-5 -1 -5 363.76 35.7
5 1 -5 321.47 34.3
5 5 -1 365.76 32.2
-5 5 1 332.97 36.4
1 5 -5 329.27 37.3
-1 5 -5 307.37 37.5
5 -1 -5 326.97 34.1
-5 1 -5 276.27 37.1
-5 5 -1 281.97 36.5
5 3 -5 1718.23 154.58
5 5 -3 1720.23 153.98
3 5 -5 1925.41 155.18
-3 5 -5 1749.82 155.38
3 -5 -5 1757.42 153.38
-3 5 -5 1970.7 214.28
5 -5 -3 1841.22 154.28
5 -3 -5 1685.43 153.68
-5 3 -5 1721.53 155.38
-5 5 -3 1708.23 155.28
5 5 -5 2165.08 190.38
-5 5 -5 2174.08 191.68
5 -5 -5 2134.99 189.78
-5 5 -5 2360.96 244.58
0 0 -6 2382.86 205.98
6 0 0 2359.86 205.88
2 0 -6 20.7 12.2
6 -2 0 28.2 11.7
6 2 0 30.2 11.1
0 6 -2 23.3 12.8
-2 0 -6 12.6 12.4
0 6 -4 537.85 51.09
4 0 -6 512.45 49.9
-6 4 0 492.75 51.59
-4 0 -6 523.25 50.59
6 4 0 529.05 48.1
0 2 -6 17.9 14
-6 0 -2 13.3 13.2
-2 6 0 45.3 13
0 -2 -6 25.1 11
6 0 -2 20.5 11.4
-6 -2 -2 87.09 14.9
2 2 -6 84.39 16.3
2 6 -2 92.39 14.8
-2 6 2 72.89 13.1
6 2 -2 107.39 14.1
6 2 2 86.89 13.3
-2 6 -2 108.59 17.1
-2 2 -6 104.89 17
-6 2 -2 83.49 16.5
6 -2 -2 89.39 15.3
2 -2 -6 73.99 13.4
2 6 -4 984.6 89.79
4 2 -6 899.51 89.19
6 4 -2 1124.19 88.59
4 -2 -6 1041 88.69
-6 4 -2 935.81 90.49
6 -4 -2 1009.7 89.29
-4 2 -6 972.9 90.19
-2 6 -4 962.9 90.69
6 0 -4 521.95 50.59
-6 0 -4 534.15 52.09
-4 6 0 514.45 51.69
0 4 -6 576.44 53.39
6 2 -4 1100.49 87.29
-4 6 2 983.8 87.39
-6 -2 -4 978.8 86.69
2 4 -6 921.11 88.29
4 6 -2 972.1 86.29
-2 4 -6 947.01 88.79
2 -4 -6 1007.6 85.79
-6 2 -4 936.91 88.49
-4 6 -2 889.51 87.99
6 -2 -4 901.61 86.89
-2 4 -6 1253.07 158.68
4 4 -6 1709.23 141.29
6 4 -4 1546.45 140.09
4 6 -4 1610.24 140.49
-4 4 -6 1546.95 141.69
4 -6 -4 1649.93 139.69
4 -4 -6 1568.94 139.59
-6 4 -4 1539.35 141.59
-4 6 -4 1614.74 141.89
6 -4 -4 1572.64 140.29
-4 4 -6 1682.03 203.78
-6 0 -6 703.93 63.99
-6 6 0 696.13 64.29
0 6 -6 636.54 64.89
6 0 -6 618.44 62.09
-6 -2 -6 702.93 63.39
6 6 -2 625.34 61.89
6 2 -6 646.94 63.69
-6 6 2 666.83 64.79
2 6 -6 697.23 65.59
-2 6 -6 705.93 66.29
6 -6 -2 651.33 62.89
6 -2 -6 666.63 62.99
-6 6 -2 696.53 65.69
-6 2 -6 720.73 65.79
6 4 -6 2327.17 202.78
6 6 -4 2456.45 202.38
4 6 -6 2264.07 202.78
4 -6 6 2335.57 235.68
4 -6 -6 2307.07 201.28
-4 6 -6 2300.57 203.78
6 -6 -4 2327.67 202.08
6 -4 -6 2244.78 201.88
-6 4 -6 2389.56 203.78
-6 6 -4 2289.37 203.58
6 6 -6 3502.35 293.47
6 -6 6 3397.16 323.27
6 -6 -6 3179.28 292.47
-6 6 -6 3476.85 294.57
7 1 -1 1240.48 110.29
-1 -1 -7 1334.27 110.69
1 1 -7 1264.27 111.19
7 -1 1 1179.08 110.19
1 -1 -7 1265.97 110.49
-1 1 -7 1225.48 111.29
7 -1 -1 1272.57 110.99
-1 7 -1 1287.37 110.69
-7 1 -1 1144.69 110.99
7 1 1 1268.37 110.29
7 3 -1 399.06 35
3 1 -7 292.87 36.9
-3 -1 -7 369.26 36.2
1 7 -3 360.36 37.3
7 3 1 355.46 35.5
3 -1 -7 326.97 35.7
7 -3 -1 345.47 37.3
-3 1 -7 293.87 37.8
-1 7 -3 317.07 38.3
-7 3 -1 298.17 38.7
-5 -1 -7 711.13 63.79
-7 5 1 699.13 65.19
1 7 -5 721.33 65.59
7 5 -1 640.64 61.49
5 1 -7 674.83 63.99
5 -1 -7 580.74 62.89
-7 5 -1 678.23 65.99
-5 1 -7 680.43 64.69
-1 7 -5 1152.38 196.18
-1 7 -5 664.73 65.59
-7 -1 -3 383.76 37.4
-3 7 1 350.76 36.5
1 3 -7 367.76 39.6
7 1 -3 368.56 35.4
7 -1 -3 307.47 35.7
-7 1 -3 313.07 37.8
-3 7 -1 314.27 37.6
1 -3 -7 310.77 34
-1 3 -7 316.87 38.8
7 3 -3 26 13
-3 7 3 38.4 12.5
3 7 -3 69.19 14
3 3 -7 39.5 15.3
3 -3 -7 27.9 12.1
-3 3 -7 53.89 16.6
-3 7 -3 48 16.7
-7 3 -3 36.1 16.7
7 -3 -3 42.4 14.1
3 7 -5 1084.19 97.89
7 5 -3 1067.09 96.29
5 3 -7 1044.3 97.79
-5 3 -7 1108.09 98.99
5 -3 -7 1085.29 96.59
7 -5 -3 1083.79 97.29
-3 7 -5 1160.18 99.59
3 -7 -5 1072.59 95.49
-7 5 -3 1017.4 99.09
-7 -1 -5 674.63 63.49
1 5 -7 723.43 65.59
-5 7 1 698.93 63.69
7 1 -5 655.33 62.39
-5 7 -1 667.13 64.19
-1 5 -7 653.03 64.79
7 -1 -5 604.04 62.19
-7 1 -5 654.63 64.49
5 7 -3 1046.1 95.69
-5 7 3 1088.99 96.59
7 3 -5 1093.29 96.49
3 5 -7 1082.69 97.79
-7 3 -5 1082.99 98.09
7 -3 -5 1072.49 96.29
-3 5 -7 1084.99 98.59
3 -5 -7 1065.59 94.79
-5 7 -3 1088.19 98.19
5 -7 -3 1012 95.19
5 5 -7 2154.48 187.18
7 5 -5 2001.6 186.28
5 7 -5 2112.79 186.58
-5 5 -7 2256.57 188.18
5 -7 -5 2089.29 185.78
5 -5 -7 2041.4 185.58
-7 5 -5 2128.69 188.08
-5 7 -5 2351.96 188.58
7 -5 -5 2064.29 186.38
-5 5 -7 2263.27 256.47
-7 -1 -7 858.21 74.99
7 1 -7 760.22 73.89
1 7 -7 868.11 77.39
-7 7 1 847.32 75.79
-1 7 -7 744.23 76.39
-7 7 -1 755.62 76.09
7 -1 -7 770.22 73.79
-7 1 -7 760.92 75.69
7 3 -7 1594.04 145.09
7 7 -3 1500.55 143.69
-7 7 3 1766.82 146.19
3 7 -7 1835.62 146.59
3 -7 -7 1561.54 142.99
-3 7 -7 1692.03 147.29
7 -7 -3 1683.13 144.49
7 -3 -7 1514.95 144.19
-7 3 -7 1680.23 146.49
-7 7 -3 1646.44 146.59
7 7 -5 2444.66 211.48
7 5 -7 2488.65 212.08
5 7 -7 2425.06 212.18
5 -7 -7 2410.76 210.48
-5 7 -7 2545.15 213.68
7 -7 -5 2367.46 211.08
7 -5 -7 2243.08 210.78
-7 7 -5 2412.76 213.08
-7 5 -7 2482.05 213.18
7 7 -7 3335.47 282.27
7 -7 -7 3314.37 281.17
-7 7 -7 3070.99 283.17
0 0 -8 7396.16 643.54
8 0 0 7611.94 643.64
0 8 -2 74.79 17.2
8 -2 0 50.49 15.9
8 2 0 112.19 16.6
-2 0 -8 120.89 18.6
8 4 0 284.17 30.9
4 0 -8 260.57 30.6
-8 4 0 265.67 32.7
-4 0 -8 256.77 30.9
0 8 -4 276.17 34.5
6 0 -8 267.27 35.8
0 8 -6 333.27 40.4
0 8 -6 311.87 149.79
-8 6 0 312.17 39.8
-6 0 -8 346.87 38.6
8 6 0 321.07 33.3
-2 8 0 85.09 17.8
0 2 -8 118.99 20.3
-8 0 -2 96.99 19
-2 -2 -8 418.96 47.4
2 2 -8 453.65 49.4
-8 -2 -2 415.66 47.9
2 8 -2 512.15 47.5
-8 2 -2 600.44 50.69
8 -2 -2 447.26 48.1
2 -2 -8 464.45 46.9
-2 8 -2 542.85 49.8
8 2 2 437.26 46.3
-2 2 -8 505.25 49.7
-4 -2 -8 145.89 18.7
8 4 -2 78.59 17.2
4 2 -8 125.59 20
2 8 -4 133.49 20.7
-2 8 -4 138.79 22.8
4 -2 -8 52.89 17.3
-4 2 -8 111.89 21.5
-8 4 -2 94.49 22.2
4 2 8 231.78 79.29
8 -4 -2 120.99 19.5
-6 -2 -8 886.01 73.49
8 6 -2 806.22 72.29
-8 6 2 833.72 75.89
2 8 -6 849.61 75.89
6 2 -8 706.43 74.29
-8 6 -2 717.63 76.19
-2 8 -6 690.03 76.49
6 -2 -8 829.32 73.49
-6 2 -8 708.33 75.09
8 -6 -2 836.12 73.79
0 4 -8 292.77 34.1
8 0 -4 256.37 32
-8 0 -4 289.97 35.2
-4 8 0 261.07 34.5
2 4 -8 137.69 22.3
-8 -2 -4 119.19 19.2
4 -8 2 109.59 65.49
-4 8 2 89.19 19.3
8 2 -4 66.59 18.1
-8 2 -4 112.29 21.3
-2 4 -8 144.39 22.6
-4 8 -2 135.99 21.8
8 -2 -4 123.29 19.1
4 4 -8 289.37 36.8
8 4 -4 288.17 33.1
-4 8 4 247.88 32.1
4 8 -4 298.47 34
8 -4 -4 265.07 34.1
-4 8 -4 334.37 38.9
-8 4 -4 288.17 35
-4 4 -8 280.47 34.6
4 -4 -8 274.57 32.3
8 6 -4 1377.46 123.59
6 4 -8 1395.56 125.19
4 8 -6 1325.57 124.69
8 -6 -4 1274.37 123.99
6 -4 -8 1240.68 123.19
-6 4 -8 1553.64 126.49
-8 6 -4 1591.54 126.89
-4 8 -6 1587.94 127.49
4 -8 -6 1300.87 122.49
8 0 -6 274.47 34.5
-8 0 -6 295.87 37.7
-6 8 0 294.37 35.3
0 6 -8 322.27 40.3
-6 8 2 922.51 73.89
8 2 -6 862.81 72.99
-8 -2 -6 920.01 73.19
6 8 -2 698.63 70.69
2 6 -8 838.22 75.49
-2 6 -8 673.43 74.69
8 -2 -6 681.33 71.89
-8 2 -6 752.42 74.59
-6 8 -2 654.83 73.99
6 8 -4 1430.46 122.79
8 4 -6 1354.36 123.29
4 6 -8 1409.46 124.69
-6 8 4 1266.17 123.29
8 -4 -6 1297.97 122.99
-8 4 -6 1530.75 125.89
-6 8 -4 1609.64 126.09
-8 4 -6 1548.95 233.98
-4 6 -8 1529.05 126.09
4 -6 -8 1253.47 121.49
6 -8 -4 1227.58 121.79
6 6 -8 2117.69 183.38
8 6 -6 1988.9 182.28
6 8 -6 2057.69 182.58
-6 6 -8 1978.7 184.28
6 -8 -6 2122.29 181.58
6 -6 -8 2154.38 181.78
-8 6 -6 2016.6 184.28
-6 8 -6 2060.59 184.58
8 -6 -6 2146.69 182.28
-6 6 -8 2156.18 275.27
-8 0 -8 134.99 24.2
-8 8 0 102.69 24.2
0 8 -8 105.99 26.2
8 0 -8 156.58 21.9
8 8 -2 386.66 42.7
8 2 -8 440.66 46.2
-8 8 2 509.45 49.3
-2 8 -8 522.35 51.09
8 -2 -8 323.87 44.4
-8 8 -2 460.55 50.49
-8 2 -8 460.65 49.8
8 8 -4 1171.38 107.09
8 4 -8 1236.28 108.89
-4 8 -8 1232.08 111.79
4 -8 -8 1208.58 106.29
8 -4 -8 1214.18 107.79
-8 8 -4 1159.38 110.49
-8 4 -8 1126.99 110.49
6 8 -8 2112.39 189.98
8 6 -8 2291.97 190.08
8 8 -6 2296.27 189.48
-6 8 -8 1684.33 276.87
-6 8 -8 2080.69 191.68
6 -8 -8 2250.17 188.18
-8 6 -8 2271.27 304.07
8 -8 -6 2111.89 188.68
8 -6 -8 2142.39 188.78
-8 6 -8 2095.89 191.48
-8 8 -6 2081.49 191.48
8 8 -8 2358.46 206.88
8 -8 -8 2272.77 205.28
-8 8 -8 2413.16 209.08
9 1 -1 2987.8 248.88
-1 -1 -9 2823.82 248.68
1 1 -9 2719.93 249.18
9 -1 1 2832.02 248.68
1 -1 -9 2977.8 248.88
-1 1 -9 2981.6 249.48
9 -1 -1 2839.82 249.08
-1 9 -1 2905.21 248.48
-9 1 -1 2874.41 249.38
9 1 1 2738.33 248.38
1 9 -3 56.49 16.5
-3 -1 -9 87.29 18
3 1 -9 35.6 16.2
9 -3 -1 27.9 15.3
3 -1 -9 98.09 16.5
-3 1 -9 50.79 18.2
-1 9 -3 29.8 17.3
9 3 1 40.7 13.6
-9 3 -1 41.6 18.7
9 5 -1 153.48 18
-5 -1 -9 88.19 19.1
5 1 -9 78.59 18.7
-9 5 1 60.39 21.3
1 9 -5 78.79 20.8
9 5 1 93.19 16.3
-5 1 -9 108.79 21.4
-1 9 -5 38.1 20.5
-9 5 -1 100.39 22.7
5 -1 -9 107.09 18.5
-9 7 1 62.69 21.1
1 9 -7 19.6 20.8
-7 -1 -9 80.99 19.2
7 1 -9 51.39 16.3
9 7 -1 70.69 14.3
-9 7 -1 30.7 21
7 -1 -9 42.1 16.7
-7 1 -9 43.5 20
-1 9 -7 33.1 21.4
-3 9 1 27.2 15.7
9 1 -3 22.1 14.3
1 3 -9 43.3 18.7
-9 -1 -3 35.3 16.2
-9 1 -3 68.59 18.8
-1 3 -9 52.49 19.1
-3 9 -1 46.4 17.2
9 -1 -3 35 14.5
3 3 -9 159.88 29.1
3 9 -3 280.57 31.7
-3 9 3 217.28 29.7
-9 -3 -3 254.77 29.2
-9 3 -3 314.87 33.3
-3 9 -3 217.28 30.9
3 -3 -9 308.47 30.4
9 -3 -3 192.88 28.5
-3 3 -9 220.38 30.6
5 3 -9 375.66 43.3
9 5 -3 349.57 39.2
3 9 -5 397.66 43
9 -5 -3 393.16 42.4
5 -3 -9 322.27 40.3
-5 3 -9 392.96 44.9
-9 5 -3 361.56 45.9
-3 9 -5 401.26 46.5
9 7 -3 487.55 51.69
3 9 -7 570.44 56.79
7 3 -9 492.35 54.69
-9 7 3 605.24 57.39
7 -3 -9 488.05 52.79
9 -7 -3 538.45 53.89
-9 7 -3 521.35 58.09
-3 9 -7 582.54 59.29
-7 3 -9 525.75 57.39
-9 -1 -5 78.49 19.8
9 1 -5 152.48 20
-5 9 1 96.89 19.5
1 5 -9 50.39 21.5
1 -5 -9 97.39 14.9
-1 5 -9 94.39 22.8
-9 1 -5 82.99 21.4
-5 9 -1 76.29 19.9
9 -1 -5 69.69 17.2
-9 -3 -5 368.66 39.6
9 3 -5 325.37 39.4
-5 9 3 318.37 39.9
3 5 -9 394.06 43.7
5 9 -3 366.06 38.5
9 -3 -5 338.07 39.9
3 -5 -9 291.87 37.3
-9 3 -5 363.36 45
-5 9 -3 422.06 44.4
-3 5 -9 405.96 44
5 9 -5 793.32 74.69
5 5 -9 752.82 76.09
9 5 -5 790.62 74.29
-5 9 5 715.43 73.19
-9 5 -5 855.21 78.09
5 -5 -9 766.32 73.09
-5 9 -5 855.31 78.39
9 -5 -5 793.62 74.69
-5 5 -9 831.62 77.49
9 7 -5 1262.57 112.09
5 9 -7 1305.07 113.59
7 5 -9 1326.77 113.89
7 -5 -9 1210.28 111.59
5 -9 -7 1163.78 110.69
9 -7 -5 1357.76 112.79
-7 5 -9 1134.99 114.79
-9 7 -5 1166.98 114.89
-5 9 -7 1260.97 116.19
-7 9 1 83.49 20.9
1 7 -9 72.09 22.6
9 1 -7 69.09 17.3
-9 -1 -7 64.79 19.2
-9 1 -7 42.2 20.2
-7 9 -1 36.9 20.3
9 -1 -7 46 15.8
-1 7 -9 56.89 22.2
9 3 -7 500.45 52.49
7 9 -3 506.85 50.29
3 7 -9 545.75 56.49
-7 9 3 591.34 54.59
-3 7 -9 562.94 56.99
-9 3 -7 496.05 56.09
-7 9 -3 529.85 55.79
9 -3 -7 427.26 51.29
3 -7 -9 481.75 48.8
9 5 -7 1257.17 113.69
7 9 -5 1224.78 113.09
5 7 -9 1323.97 115.59
-7 9 5 1308.27 114.19
-7 9 -5 1176.78 115.79
-9 5 -7 1193.88 115.99
-5 7 -9 1228.68 116.29
5 -7 -9 1196.28 111.59
-9 5 -7 1352.56 242.68
7 -9 -5 1295.57 112.29
9 -5 -7 1305.77 113.39
7 7 -9 1918.41 173.08
9 7 -7 2055.99 172.48
7 9 -7 1954.8 172.48
-7 7 -9 1869.11 174.68
7 -9 -7 1940.11 171.08
7 -7 -9 1964.6 171.18
-9 7 -7 1602.14 282.47
-7 9 -7 1977.2 175.18
9 -7 -7 1920.81 171.88
-9 7 -7 2001.6 174.88
-9 -1 -9 171.28 25.8
9 1 -9 131.69 23.4
1 9 -9 173.18 28.9
-9 9 1 136.49 27.6
-1 9 -9 145.69 28.7
-9 9 -1 125.89 27
9 -1 -9 129.99 23.1
-9 1 -9 138.49 26.3
9 3 -9 92.19 20.2
9 9 -3 78.49 17.3
-3 9 -9 113.09 26.4
9 -3 -9 111.19 20.4
-9 3 -9 96.39 26
-9 9 -3 116.69 25.9
5 9 -9 1032.8 88.19
9 5 -9 873.91 85.69
-9 9 5 1045.3 88.19
9 9 -5 903.51 84.09
-5 9 -9 513.45 168.48
5 -9 -9 842.22 82.79
-9 5 -9 911.61 88.89
9 -9 -5 1012 84.79
9 -5 -9 864.41 84.49
-9 9 -5 848.32 88.89
-5 9 -9 842.32 89.49
9 9 -7 1378.16 129.79
9 7 -9 1427.56 130.69
7 9 -9 1441.06 131.19
7 -9 -9 1474.05 128.69
-7 9 -9 1443.46 133.99
9 -9 -7 1480.85 129.39
9 -7 -9 1437.26 129.49
-9 9 -7 1366.46 132.99
-9 7 -9 1493.15 133.79
9 9 -9 950.4 95.99
9 -9 -9 982 93.99
-9 9 -9 1142.69 100.19
0 0 -10 9432.36 815.22
10 0 0 9587.84 815.22
10 2 0 1230.58 114.59
10 -2 0 1279.77 115.09
-2 0 -10 1302.97 115.89
0 10 -2 1307.47 114.79
2 0 -10 1280.97 115.59
-4 0 -10 63.39 19.4
0 10 -4 50.89 19.2
4 0 -10 86.09 18.5
-10 4 0 60.09 20.9
-6 0 -10 3.2 17.9
0 10 -6 28.9 20
6 0 -10 16.6 15.5
-10 6 0 38.8 20.5
10 6 0 48.3 13.8
-10 8 0 260.57 35.5
8 0 -10 196.48 29.9
-8 0 -10 239.78 32.1
0 10 -8 276.27 35.9
0 -2 -10 1171.38 115.39
-10 0 -2 1388.46 116.99
10 0 -2 1210.78 115.79
0 2 -10 1327.67 117.39
-2 10 0 1377.36 115.99
2 2 -10 1044.5 99.69
2 10 -2 1050.89 97.69
-2 -2 -10 1180.28 98.49
-10 -2 -2 1080.99 98.69
-2 2 -10 1106.29 100.49
10 -2 -2 1051.29 98.99
10 2 2 1099.79 97.69
-10 2 -2 1034 100.09
-2 10 -2 1082.49 99.09
4 2 -10 38.2 18.3
2 10 -4 95.69 154.98
-4 -2 -10 34.7 17
2 10 -4 36.7 17.7
10 4 2 40.8 13.4
-10 4 -2 91.29 22.9
10 -4 -2 19.3 16.1
4 -2 -10 52.99 16.6
-2 10 -4 17.1 18.9
-4 2 -10 51.19 19.9
10 6 -2 51.59 15.3
-10 6 2 47.1 21.9
2 10 -6 60.79 20.5
6 2 -10 67.49 18.7
-6 -2 -10 79.89 18.2
6 -2 -10 42 17
-2 10 -6 -46.5 144.09
-6 2 -10 69.59 21.6
-2 10 -6 76.99 23.1
-10 6 -2 56.09 23
10 -6 -2 42.9 17.2
8 2 -10 34.7 16.4
2 10 -8 14.4 21
-10 8 2 33.5 21.9
-8 -2 -10 -3.5 17.2
10 8 -2 25.2 12.8
-2 10 -8 29.1 22.7
-8 2 -10 17.2 21
8 -2 -10 -1.5 15.1
-10 8 -2 29.8 22
-4 10 0 48 18.5
-10 0 -4 26.1 18.9
0 4 -10 69.69 22
10 0 -4 57.29 17.1
0 -4 -10 124.69 16.2
-10 -2 -4 59.19 17.9
-4 10 2 2.5 16.3
2 4 -10 19.1 19.8
-4 10 -2 53.89 19.6
2 -4 -10 53.79 14
10 -2 -4 44.8 15.8
-10 2 -4 98.99 22.2
-2 4 -10 64.59 21.8
4 10 -4 59.19 17.5
-4 10 4 51.09 16.9
10 4 -4 53.49 17.5
4 4 -10 102.19 21.3
4 -4 -10 73.79 17.1
-4 4 -10 156.48 24.3
-10 4 -4 71.09 22
-4 10 -4 139.39 24.4
10 -4 -4 66.99 18.1
4 10 -6 528.75 52.19
6 4 -10 464.25 51.89
-4 10 6 459.15 47.8
10 6 -4 479.45 48.7
-4 10 -6 467.45 55.69
6 -4 -10 461.35 48.6
10 -6 -4 503.25 50.89
-10 6 -4 398.56 54.69
-6 4 -10 493.35 54.09
10 8 -4 301.37 34.7
-10 8 4 291.87 38.9
8 4 -10 321.37 39.4
-10 8 -4 213.08 37.7
8 -4 -10 261.47 35.4
-4 10 -8 316.67 40.5
10 -8 -4 297.87 37
-8 4 -10 299.07 39.5
0 6 -10 -1.7 21
10 0 -6 23.4 14.9
-10 0 -6 38.5 18.8
-6 10 0 11.5 18.3
-10 -2 -6 51.09 18.9
10 2 -6 21.5 16
2 6 -10 45.1 21.6
-6 10 2 71.29 19.4
10 -2 -6 38.6 16.1
-2 6 -10 92.59 23.4
-6 10 -2 47.4 20.5
2 -6 -10 25 13.1
-10 2 -6 54.19 21
6 10 -4 435.86 48.7
10 4 -6 516.45 49.9
-6 10 4 560.84 50.79
4 6 -10 589.74 54.39
-6 10 -4 503.85 54.39
-10 4 -6 442.76 54.49
-4 6 -10 413.16 53.69
4 -6 -10 392.56 47.1
10 -4 -6 460.45 49.6
6 10 -6 790.52 81.79
10 6 -6 848.62 81.79
-6 10 6 899.01 81.59
6 6 -10 858.61 83.99
6 -6 -10 881.81 80.19
-10 6 -6 855.11 85.79
10 -6 -6 920.41 82.29
-6 10 -6 874.91 85.89
-6 6 -10 876.71 85.49
8 6 -10 987.7 96.59
10 8 -6 982.7 94.79
6 10 -8 1085.59 96.89
-8 6 -10 1032.1 99.39
-10 8 -6 1058.09 99.59
8 -6 -10 994.7 94.19
10 -8 -6 1098.79 95.19
6 -10 -8 957.7 92.69
-6 10 -8 1055.19 99.99
-10 0 -8 261.57 33.3
10 0 -8 213.08 29.9
0 8 -10 293.47 37.7
-8 10 0 224.88 33.2
-8 10 2 16.1 20
-10 -2 -8 67.49 19.9
2 8 -10 -14.2 20.2
10 2 -8 18.3 15.1
-2 8 -10 30.4 23.2
10 -2 -8 9.8 14.7
-8 10 -2 -2.6 20.2
-10 2 -8 2.5 20.7
10 4 -8 322.57 37.8
8 10 -4 315.97 35
-8 10 4 267.57 35.8
-8 10 -4 257.97 38.1
-10 4 -8 272.87 38.5
-4 8 -10 311.67 39.4
4 -8 -10 245.98 32.4
10 -4 -8 280.77 36
10 6 -8 1010.4 96.89
-8 10 6 1220.18 98.99
8 10 -6 980.4 96.69
6 8 -10 1163.18 99.39
6 -8 -10 1012.1 94.69
-6 8 -10 1042.5 101.29
-6 8 -10 652.23 199.48
10 -6 -8 1034.8 96.39
-10 6 -8 1027.3 100.39
-8 10 -6 1011.4 100.29
10 8 -8 1082.29 101.39
8 8 -10 1015.6 102.59
8 10 -8 1082.39 102.39
8 -10 -8 1039.4 99.49
8 -8 -10 1073.59 99.99
-8 8 -10 1124.19 106.19
-8 10 -8 1149.29 105.49
10 -8 -8 1145.59 100.99
-10 8 -8 1138.39 105.39
-10 0 -10 1656.73 151.78
-10 10 0 1594.64 152.98
0 10 -10 1649.83 154.38
10 0 -10 1822.62 151.28
-10 -2 -10 619.74 64.89
10 2 -10 707.53 64.69
2 10 -10 703.33 68.59
-10 10 2 590.74 68.09
-2 10 -10 594.64 69.59
-10 10 -2 608.54 67.59
10 -2 -10 553.04 62.59
-10 2 -10 657.03 67.89
10 10 -4 17.8 14.2
10 4 -10 10.1 17.1
-10 10 4 28.8 23
4 10 -10 13 22.3
-4 10 -10 12.2 23.1
-4 10 -10 30 136.79
10 -4 -10 23.8 16.8
-10 10 -4 15.6 22.9
-10 4 -10 78.49 25.2
10 10 -6 162.88 26.6
10 6 -10 194.08 28.6
-10 10 6 233.78 33.8
-6 10 -10 217.48 151.98
-6 10 -10 168.08 34.4
6 -10 -10 190.48 25.2
10 -6 -10 165.28 26.9
-10 10 -6 196.08 33.6
-10 6 -10 201.88 33.9
10 10 -8 219.28 31.6
10 8 -10 182.78 31.2
8 10 -10 188.38 32.4
8 -10 -10 226.78 29
-8 10 -10 226.38 38.3
10 -10 -8 215.98 29
10 -8 -10 230.38 30.3
-10 10 -8 190.88 36.6
-10 8 -10 284.57 38.3
10 10 -10 62.19 22
-10 10 -10 42.7 28.5
10 -10 -10 76.09 19.6
-10 10 -10 17.1 165.48
11 1 -1 4434.56 376.16
-1 -1 -11 4260.57 375.86
1 1 -11 4419.36 376.56
-11 1 -1 4389.96 376.66
1 -1 -11 4166.48 375.86
-1 1 -11 4333.27 376.66
11 -1 -1 4533.25 376.36
-1 11 -1 4464.45 375.56
11 1 1 4173.28 375.46
3 1 -11 496.55 53.19
1 11 -3 511.75 52.69
11 3 -1 504.75 51.39
-3 -1 -11 475.65 53.19
-1 11 -3 498.45 54.29
3 -1 -11 504.75 52.29
11 3 1 505.95 50.79
11 -3 -1 493.55 52.29
-3 1 -11 497.05 55.19
-11 3 -1 510.65 56.09
5 1 -11 40.7 18.6
-11 5 1 63.69 22.7
1 11 -5 31.1 20.7
-5 -1 -11 81.19 21
11 5 -1 75.89 16.7
-5 1 -11 66.79 21.2
11 5 1 71.19 16.1
5 -1 -11 71.09 18.7
-11 5 -1 60.29 22.6
-1 11 -5 68.99 21.8
1 11 -7 164.68 29.3
-7 -1 -11 130.29 25.5
1 11 -7 175.78 170.88
7 1 -11 139.69 24.6
-11 7 1 163.08 29.1
11 7 -1 167.68 22.6
-1 11 -7 137.09 29.1
7 -1 -11 151.48 24.5
-11 7 -1 164.58 30.7
-7 1 -11 128.29 27
-11 9 1 1000.2 100.49
9 1 -11 1007.1 96.99
1 11 -9 1034.7 99.79
-9 -1 -11 1011.3 97.09
-1 11 -9 1044 101.09
9 -1 -11 1027 96.59
-9 1 -11 1066.69 98.69
-11 9 -1 1077.09 100.29
-11 -1 -3 520.05 55.19
11 1 -3 493.15 53.39
1 3 -11 505.35 56.39
-3 11 1 518.25 53.99
-1 -3 -11 569.04 53.29
11 -1 -3 520.95 53.69
-3 11 -1 526.15 54.99
-1 3 -11 490.85 57.29
1 -3 -11 533.05 52.39
-11 1 -3 504.85 56.39
-3 -3 -11 460.95 41.8
3 11 -3 331.87 40.6
-11 -3 -3 334.17 42.5
3 3 -11 378.26 44.9
3 -3 -11 441.06 40.8
-3 11 -3 344.07 41.8
-3 3 -11 310.17 42.2
11 -3 -3 320.07 41.9
-11 3 -3 293.27 41.9
3 11 -5 51.59 19.4
-11 -5 -3 69.79 18.7
11 5 -3 114.89 18.3
5 3 -11 46.9 19.7
5 -3 -11 87.59 18.6
11 -5 -3 23.5 17.9
-5 3 -11 48.5 21.5
-3 11 -5 8.5 21.8
-11 5 -3 63.99 24.4
3 11 -7 51.89 20.9
11 7 -3 26.8 14.2
7 3 -11 6.2 17.6
-11 7 3 20 21.1
-7 -3 -11 52.19 18.6
7 -3 -11 17.7 16.1
-7 3 -11 37.5 22.1
-11 7 -3 15.6 21.8
-3 11 -7 20.8 23.3
11 -7 -3 37.1 17.1
9 3 -11 204.68 32.1
-11 9 3 238.68 36.3
-9 -3 -11 239.98 31.7
3 11 -9 297.97 36.5
11 9 -3 240.48 29.5
-11 9 -3 223.78 36.3
-9 3 -11 226.88 36.1
9 -3 -11 242.98 31.8
-3 11 -9 202.58 37
11 1 -5 35.5 16.5
1 5 -11 64.99 22.9
-11 -1 -5 75.29 19.7
-5 11 1 74.69 19.8
1 -5 -11 62.29 14.1
-11 1 -5 59.29 20.9
-1 5 -11 42.8 24.1
-5 11 -1 50.49 20.1
11 -1 -5 47.7 17.1
5 11 -3 107.89 174.28
11 3 -5 115.59 19.6
3 5 -11 35.7 21.7
-5 11 3 25.1 17.9
-11 -3 -5 66.99 18.9
5 11 -3 43.8 16.2
-11 3 -5 84.39 24.1
-3 5 -11 73.39 24.1
11 -3 -5 46.5 17.2
3 -5 -11 89.19 17.1
-5 11 -3 24 21.2
11 5 -5 240.88 31.8
-5 11 5 254.77 31.1
5 5 -11 245.28 33.8
5 11 -5 277.17 32.4
-5 11 -5 275.07 36.4
5 -5 -11 210.78 30.1
-5 5 -11 256.97 35.4
-11 5 -5 248.18 36.2
11 -5 -5 260.27 32.2
5 11 -7 340.87 43.5
7 5 -11 370.26 44.2
11 7 -5 353.26 40.2
-5 11 7 341.57 39.5
-11 7 -5 315.57 43.6
-7 5 -11 293.97 43
-5 11 -7 342.57 44.5
7 -5 -11 342.97 39.8
11 -7 -5 355.76 42
9 5 -11 42.3 20
-11 9 5 86.09 26.1
11 9 -5 65.99 17.3
5 11 -9 116.79 24.3
-5 11 -9 65.69 28
11 -9 -5 86.29 20
-9 5 -11 55.99 26.8
-11 9 -5 25.6 25.2
9 -5 -11 20.5 17.4
11 1 -7 168.78 23.9
1 7 -11 152.98 29.4
-11 -1 -7 150.08 26.2
-7 11 1 159.18 27.3
-7 11 -1 139.69 27.7
11 -1 -7 126.89 22.9
-11 1 -7 134.49 27.1
-1 7 -11 158.98 30.6
7 11 -3 6.9 14.4
-11 -3 -7 42.7 18.5
11 3 -7 11 15.4
-7 11 3 20.4 19.7
3 7 -11 27.6 21.9
-11 3 -7 16.9 21.6
-7 11 -3 20.1 22.2
11 -3 -7 21 15.8
3 -7 -11 6.5 12.6
-3 7 -11 29.8 22.6
-7 11 5 353.76 42.4
5 7 -11 366.56 46.1
11 5 -7 363.96 41.5
7 11 -5 335.07 41.2
-7 11 -5 319.47 43.1
-11 5 -7 312.27 43.5
11 -5 -7 323.77 41.2
-5 7 -11 405.96 47.8
5 -7 -11 323.17 37.7
7 7 -11 694.23 66.49
11 7 -7 627.04 63.49
7 11 -7 653.63 64.29
-7 11 7 592.14 63.79
7 -7 -11 572.14 61.59
-7 11 -7 653.23 68.69
-11 7 -7 551.54 199.58
11 -7 -7 704.83 63.89
-11 7 -7 547.05 68.39
-7 7 -11 649.74 69.59
9 7 -11 202.28 32.4
11 9 -7 207.28 30.7
7 11 -9 214.48 32.7
7 -11 -9 216.68 27.5
-7 11 -9 103.79 143.89
11 -9 -7 285.47 31.7
9 -7 -11 222.38 29.6
-9 7 -11 181.18 36.6
-11 9 -7 208.08 36.4
-7 11 -9 242.38 39.7
-9 11 1 1108.79 98.29
-11 -1 -9 988.7 96.89
1 9 -11 1100.99 99.49
11 1 -9 1001 94.89
11 -1 -9 922.21 93.99
-9 11 -1 986.3 97.89
-1 9 -11 1107.79 100.59
-11 1 -9 981.4 97.79
-9 11 3 270.37 36.4
-11 -3 -9 253.27 32.2
9 11 -3 202.78 27.3
11 3 -9 226.08 31.1
3 9 -11 238.58 35.7
-3 9 -11 201.08 36.3
11 -3 -9 190.78 29.7
-11 3 -9 214.48 34.4
-9 11 -3 199.58 34.5
11 5 -9 61.69 19.6
-9 11 5 96.59 24.7
9 11 -5 45.8 17.6
5 9 -11 120.79 24.9
-11 5 -9 44.7 25.5
-5 9 -11 74.19 26.4
5 -9 -11 45.8 15.4
-9 11 -5 62.89 24.9
11 -5 -9 28 17.6
11 7 -9 196.48 31.5
9 11 -7 203.58 31.1
7 9 -11 245.28 34.4
-9 11 7 228.88 34.3
-9 11 -7 244.28 38.3
-7 9 -11 49.99 166.48
-7 9 -11 278.77 39.9
7 -9 -11 209.08 28.8
-11 7 -9 211.68 35.8
11 -7 -9 246.28 31.6
9 11 -9 57.39 20.3
9 9 -11 7 19.6
11 9 -9 30.3 18.9
-9 11 -9 -40.2 147.19
-9 11 -9 20.8 26
9 -11 -9 6.1 14.3
9 -9 -11 56.39 17.2
-9 9 -11 -42 176.08
-11 9 -9 9.9 25.1
11 -9 -9 4.2 16.5
-9 9 -11 32.2 26.1
-11 -1 -11 4369.66 371.66
11 1 -11 4420.16 371.36
1 11 -11 4170.88 373.16
-11 11 1 4221.28 373.16
-1 11 -11 4098.09 373.96
-11 11 -1 4183.18 372.66
11 -1 -11 4396.46 371.06
-11 1 -11 4161.58 371.96
11 11 1 4563.34 510.15
-11 -3 -11 1726.13 164.28
11 3 -11 1994.9 165.48
11 11 -3 1824.92 162.38
-11 11 3 1774.92 167.58
3 11 -11 1862.71 167.38
-3 11 -11 1704.33 168.88
11 -3 -11 1899.11 164.18
-11 3 -11 1853.71 167.08
-11 11 -3 1855.41 166.98
11 11 -5 387.36 49.99
11 5 -11 462.05 53.69
-11 11 5 574.14 58.79
5 11 -11 570.84 57.39
-5 11 -11 450.25 59.19
-5 11 -11 344.27 160.68
11 -5 -11 491.55 51.39
-11 11 -5 448.96 57.39
-11 5 -11 425.96 54.79
11 11 -7 178.38 27.6
11 7 -11 176.98 29.4
-11 11 7 202.58 33
7 11 -11 176.08 31
7 -11 -11 158.48 24.5
-7 11 -11 140.79 37.2
11 -7 -11 190.58 27.9
-11 11 -7 154.48 33.9
-11 7 -11 168.28 34.1
11 9 -11 482.65 53.99
11 11 -9 453.75 52.69
9 11 -11 443.16 54.89
-9 11 -11 491.65 58.29
9 -11 -11 430.86 49
-9 11 -11 92.09 179.88
11 -11 -9 481.35 50.09
11 -9 -11 465.85 50.49
-11 9 -11 469.95 58.59
-11 11 -9 424.46 56.19
11 11 -11 1754.42 152.98
-11 11 -11 1814.92 157.58
11 -11 -11 1601.64 149.79
-11 11 -11 1111.89 284.17
0 0 -12 5992.2 512.75
12 0 0 5903.21 512.25
-12 2 0 1886.61 162.78
-2 0 -12 1859.71 162.18
0 12 -2 1703.73 160.38
2 0 -12 1835.22 161.78
12 -2 0 1789.72 161.38
12 2 0 1839.42 160.98
4 0 -12 267.87 34.2
-12 4 0 283.07 37.8
-4 0 -12 282.27 36.3
0 12 -4 265.47 34.8
12 4 0 260.17 32.7
-12 6 0 237.38 34.1
-6 0 -12 212.48 32.2
0 12 -6 231.98 33.7
6 0 -12 200.78 29.4
12 6 0 204.78 27.7
-12 8 0 561.44 62.09
-8 0 -12 582.34 58.99
12 8 0 517.65 53.39
8 0 -12 497.25 57.29
0 12 -8 555.24 62.69
-12 10 0 3597.04 329.17
10 0 -12 4017.6 327.47
0 12 -10 3486.85 329.17
-10 0 -12 3867.31 327.37
12 0 -2 1820.22 166.68
-2 12 0 1924.81 166.38
0 -2 -12 1894.71 166.68
0 2 -12 1872.61 167.88
-12 0 -2 1886.61 167.48
2 2 -12 1444.96 128.09
12 2 -2 1303.07 126.09
-12 -2 -2 1498.05 127.29
-2 -2 -12 1418.96 126.69
-12 2 -2 1380.16 128.19
2 -2 -12 1327.27 126.29
12 -2 -2 1454.05 127.09
-2 2 -12 1334.57 128.19
-2 12 -2 1489.95 127.69
2 12 -4 355.46 40.1
-12 -4 -2 320.07 39.1
4 2 -12 262.07 37.3
-4 -2 -12 396.56 41.2
12 -4 -2 253.07 35.7
12 4 2 261.67 36.4
-2 12 -4 312.47 39.2
-12 4 -2 318.17 40.7
-4 2 -12 381.36 44.4
-12 6 2 58.89 24.9
-6 -2 -12 50.39 21.3
12 6 -2 115.49 19
6 2 -12 64.49 20.9
2 12 -6 60.99 22.4
12 6 2 63.99 16.1
-12 6 -2 91.79 26.6
-6 2 -12 38.3 23
-2 12 -6 80.89 25.6
6 -2 -12 58.79 19.3
8 2 -12 424.96 49.6
-8 -2 -12 472.75 49.7
2 12 -8 451.25 53.39
-12 8 2 452.55 54.79
12 8 -2 400.96 45.8
-12 8 -2 399.66 53.79
-2 12 -8 442.96 52.39
-8 2 -12 405.96 52.99
8 -2 -12 432.56 48.6
10 2 -12 2336.77 233.18
-12 10 2 2447.06 235.58
-10 -2 -12 2569.84 232.88
2 12 -10 2630.14 235.18
12 10 -2 2973.1 231.28
-2 12 -10 2420.66 236.48
-12 10 -2 2674.03 235.58
10 -2 -12 2989.7 233.38
-10 2 -12 2692.83 234.68
-12 0 -4 287.87 36
12 0 -4 237.28 32.1
0 -4 -12 230.88 30.9
0 4 -12 284.87 37.1
-4 12 0 302.07 34.8
-12 -2 -4 367.96 42.8
-2 -4 -12 293.47 38.6
2 4 -12 243.08 38.9
12 2 -4 392.36 40.2
-4 12 2 304.87 37.4
2 -4 -12 442.56 38.6
-2 4 -12 305.07 40.8
-4 12 -2 330.57 40.3
-12 2 -4 331.77 41.1
12 -2 -4 240.08 36.2
12 4 -4 98.29 19
4 4 -12 17.2 20.3
4 12 -4 25.1 17
-12 -4 -4 61.89 19.6
-4 4 -12 45.3 23.6
-4 12 -4 -11.6 21.1
12 -4 -4 18.6 16.6
-12 4 -4 66.49 23.8
4 -4 -12 10.5 15.9
4 12 -6 35.1 20
12 6 -4 31 16.1
6 4 -12 41.4 20.9
-12 6 -4 57.29 24.9
12 -6 -4 58.89 19
-6 4 -12 57.29 24.1
6 -4 -12 51.39 18
-4 12 -6 33.9 24.6
12 8 -4 13.7 13.9
4 12 -8 9 21.4
-12 8 4 3.6 22.8
8 4 -12 20.3 19.4
-8 4 -12 2.6 23.5
-12 8 -4 28.4 25.2
-4 12 -8 -5.6 24.5
8 -4 -12 11.9 16.8
4 12 -10 1017 90.79
-12 10 4 951.8 91.59
10 4 -12 858.01 88.39
12 10 -4 957.5 85.79
10 -4 -12 948.41 86.89
-10 4 -12 886.91 91.69
-4 12 -10 820.22 91.79
-12 10 -4 879.21 91.09
-4 12 -10 673.13 184.08
-12 0 -6 219.08 32.1
12 0 -6 190.18 28.9
0 6 -12 230.68 34.1
-6 12 0 197.68 31.7
2 6 -12 41.7 24.2
-12 -2 -6 90.19 22.6
-6 12 2 66.49 22.3
12 2 -6 78.99 19.6
-12 2 -6 75.39 24.5
12 -2 -6 53.59 18.3
-6 12 -2 46.8 23
-2 6 -12 88.19 26.1
2 -6 -12 70.09 15.7
12 4 -6 13.8 16.4
-12 -4 -6 51.39 20.2
4 6 -12 22.7 21.9
-6 12 4 18.2 19.3
6 12 -4 54.99 17.3
4 -6 -12 48.2 15.7
-6 12 -4 61.69 23.2
12 -4 -6 32.4 16.7
-4 6 -12 82.59 25.1
-12 4 -6 52.59 24.7
-6 12 6 247.78 32.8
6 6 -12 216.08 34.9
6 12 -6 239.18 32.4
12 6 -6 245.08 31.9
-6 6 -12 249.97 37.1
-12 6 -6 244.18 37.5
6 -6 -12 267.47 33.2
12 -6 -6 243.48 32.6
-6 12 -6 236.98 38.1
-6 12 8 125.59 23.7
12 8 -6 114.19 22
6 12 -8 104.69 25.4
8 6 -12 126.99 26.2
12 -8 -6 117.39 22.9
-12 8 -6 95.59 30.2
-6 12 -8 75.59 30.7
8 -6 -12 111.29 21.6
-8 6 -12 122.19 31
6 12 -10 155.88 30.5
10 6 -12 190.68 30.5
-12 10 6 235.58 35.1
12 10 -6 175.08 27.3
-10 6 -12 163.58 36.1
-6 12 -10 191.88 147.59
-6 12 -10 164.98 36.6
-12 10 -6 180.38 34.3
10 -6 -12 232.28 29.9
0 8 -12 580.64 64.29
-8 12 0 578.94 62.09
12 0 -8 561.94 58.19
-12 0 -8 520.15 61.89
-8 12 2 537.05 52.99
12 2 -8 404.66 48.1
8 12 -2 550.44 210.58
2 8 -12 463.35 54.59
-12 -2 -8 446.16 52.19
-2 8 -12 391.26 52.59
-12 2 -8 413.66 54.19
-8 12 -2 397.46 53.59
12 -2 -8 460.25 49.4
4 8 -12 31.6 22.2
12 4 -8 15.3 15.8
8 12 -4 19.6 15.5
-8 12 4 -22.1 20
12 -4 -8 35.8 16.6
-8 12 -4 25 23.3
4 -8 -12 41.8 13.9
-12 4 -8 6.8 23.7
-4 8 -12 -19.3 23.9
6 8 -12 139.49 28.2
12 6 -8 126.49 23.6
-8 12 6 91.99 24.1
8 12 -6 86.69 23
-8 12 -6 86.79 29
-6 8 -12 134.59 31.1
12 -6 -8 107.59 22.5
6 -8 -12 110.19 20.3
-12 6 -8 145.59 30.4
8 8 -12 78.69 24
8 12 -8 82.19 23.1
-8 12 8 41.1 22.2
12 8 -8 60.79 20.4
-8 12 -8 71.39 29.6
-12 8 -8 87.69 28.3
-8 8 -12 49.4 28
-12 8 -8 180.88 189.98
12 -8 -8 78.39 20.7
8 -8 -12 111.09 19.8
10 8 -12 177.68 31.9
8 12 -10 183.08 32.3
12 10 -8 311.97 33.3
-10 8 -12 178.68 37.5
8 -12 -10 185.08 26.2
10 -8 -12 255.87 30.6
-8 12 -10 115.59 35.3
-12 10 -8 218.48 37
12 -10 -8 181.48 28.6
-8 12 -10 68.99 153.18
12 0 -10 3302.67 303.67
-10 12 0 3650.83 306.27
0 10 -12 3675.63 307.47
-12 0 -10 3338.07 305.67
-12 -2 -10 2508.75 231.18
-10 12 2 2762.62 232.78
2 10 -12 2586.34 232.78
12 2 -10 2921.51 230.88
12 -2 -10 2418.46 229.68
-10 12 -2 2410.06 231.68
-2 10 -12 2745.43 234.48
-12 2 -10 2586.54 232.68
12 4 -10 906.31 86.59
-10 12 4 959.2 90.79
4 10 -12 989.7 90.19
10 12 -4 863.61 84.19
-4 10 -12 780.92 91.19
-10 12 -4 887.51 90.19
-12 4 -10 909.01 91.19
12 -4 -10 890.61 85.49
6 10 -12 162.08 31.3
-10 12 6 173.28 31.9
10 12 -6 175.78 27.6
12 6 -10 186.98 28.9
-6 10 -12 134.09 33.5
12 -6 -10 168.28 28.1
-10 12 -6 128.19 32.5
6 -10 -12 218.98 25.3
-12 6 -10 169.48 35.6
10 12 -8 198.18 29.3
-10 12 8 175.58 31.9
8 10 -12 144.09 32
12 -8 -10 172.88 29.1
-8 10 -12 102.29 36.1
-10 12 -8 156.38 34.7
8 -10 -12 252.17 28.7
-12 8 -10 235.48 38.1
12 10 -10 889.81 89.19
10 10 -12 873.31 89.59
10 12 -10 964.8 89.39
-10 12 10 919.81 89.89
-10 12 -10 496.85 208.88
-10 12 -10 978.2 95.09
-10 10 -12 939.41 94.39
10 -12 -10 887.61 85.29
10 -10 -12 864.11 86.29
-12 10 -10 970.9 94.19
-10 10 -12 693.83 231.48
12 -10 -10 957.4 87.09
-12 10 -10 593.04 239.08
-12 0 -12 3275.47 293.47
-12 12 0 3248.48 294.57
0 12 -12 3139.39 295.07
12 0 -12 3650.93 292.87
-12 -2 -12 2412.26 216.58
12 2 -12 2593.34 216.58
2 12 -12 2444.76 218.98
-12 12 2 2507.15 219.68
-2 12 -12 2352.86 220.48
-12 12 -2 2368.06 218.28
12 -2 -12 2386.16 215.38
-12 2 -12 2407.16 218.38
12 4 -12 791.82 78.69
12 12 -4 704.33 74.69
-12 12 4 774.22 83.79
4 12 -12 799.32 81.79
-4 12 -12 747.53 84.89
12 -4 -12 877.21 77.99
-12 4 -12 747.13 83.29
-12 12 -4 797.32 82.39
12 12 -6 233.38 35.5
12 6 -12 285.67 39.7
-12 12 6 366.96 45
6 12 -12 433.26 45.9
-6 12 -12 284.17 44.3
-6 12 -12 242.78 161.18
12 -6 -12 328.07 40.3
-12 12 -6 333.17 45.3
-12 6 -12 214.88 43.6
12 12 -8 315.67 42.1
12 8 -12 314.37 44
-12 12 8 349.07 47.4
8 12 -12 337.37 46.3
8 -12 -12 316.87 39.6
-8 12 -12 390.86 51.19
12 -8 -12 379.76 44.4
-12 12 -8 378.36 49.99
-12 8 -12 361.86 50.89
12 10 -12 1232.58 117.09
12 12 -10 1160.98 115.79
10 12 -12 1291.97 117.59
-12 12 10 1227.78 118.29
-10 12 -12 1183.88 120.69
10 -12 -12 1180.78 111.89
-12 12 -10 1332.67 121.99
12 -10 -12 1198.78 114.09
-12 10 -12 1312.57 122.09
-12 12 -10 859.41 310.87
12 12 -12 1369.86 132.79
12 -12 -12 1351.46 129.09
-12 12 -12 1548.55 138.59
-13 -1 -1 2137.89 196.68
13 1 -1 2333.37 196.58
-1 -1 -13 2339.07 196.88
1 1 -13 2261.17 197.38
1 -1 -13 2217.88 196.58
-1 1 -13 2174.08 197.38
13 -1 -1 2186.48 196.48
-13 1 -1 2167.78 197.48
13 1 1 2218.58 196.08
3 1 -13 756.52 66.69
-3 -1 -13 577.54 65.29
13 3 -1 706.33 64.59
-13 3 1 633.64 67.19
1 13 -3 602.14 64.79
-13 3 -1 674.53 68.49
13 3 1 627.34 62.79
13 -3 -1 560.84 64.09
-3 1 -13 584.64 67.09
-1 13 -3 642.64 65.99
3 -1 -13 683.83 65.19
5 1 -13 135.19 27.9
1 13 -5 180.78 29.8
13 5 -1 154.28 25.1
-13 5 1 144.19 31.3
-5 -1 -13 184.58 29.4
-5 1 -13 169.98 30.6
-1 13 -5 219.58 31.1
13 5 1 172.78 25.1
5 -1 -13 153.58 27.2
-13 5 -1 214.58 33
7 1 -13 177.18 30.7
1 13 -7 246.08 36.8
13 7 -1 214.28 28.2
-13 7 1 226.68 35
-7 -1 -13 250.47 33.9
7 -1 -13 207.68 31.1
-1 13 -7 226.68 37.1
13 7 1 199.98 27.3
-13 7 -1 236.68 37.4
-7 1 -13 202.28 33
-13 9 1 1630.04 155.28
9 1 -13 1619.44 152.18
-9 -1 -13 1813.32 151.98
1 13 -9 1773.52 154.78
1 13 -9 961.3 270.67
-1 13 -9 1585.54 155.38
-9 1 -13 1722.83 152.88
-13 9 -1 1657.93 155.28
9 -1 -13 1788.62 151.98
1 13 -11 2540.95 224.38
-11 -1 -13 2502.85 222.08
-13 11 1 2330.87 224.48
11 1 -13 2553.44 221.58
-1 13 -11 1777.52 334.87
11 -1 -13 2782.32 221.58
-1 13 -11 2293.37 225.08
-11 1 -13 2609.14 222.78
-13 11 -1 2555.34 224.38
-1 -3 -13 735.43 65.79
13 1 -3 653.63 65.49
-3 13 1 604.94 65.49
1 3 -13 633.14 68.69
-13 -1 -3 604.64 66.99
1 -3 -13 682.73 64.59
-13 1 -3 700.03 68.99
-1 3 -13 646.14 68.89
-3 13 -1 633.64 66.99
13 -1 -3 638.44 66.19
-3 -3 -13 321.67 42.6
3 3 -13 285.67 40.9
3 13 -3 303.27 40
13 3 -3 368.26 41
-13 -3 -3 347.07 42.9
-13 3 -3 380.46 44.2
13 -3 -3 314.47 42.1
-3 13 -3 375.76 46.8
-3 3 -13 354.26 43.7
3 -3 -13 345.47 40.9
13 5 -3 18.6 16.3
3 13 -5 23.4 19
-13 -5 -3 19.8 18.6
5 3 -13 32.9 20.3
-5 -3 -13 39.8 20.9
-5 3 -13 86.99 25.7
-13 5 -3 121.19 27.4
13 -5 -3 17 17.4
-3 13 -5 71.39 25.4
5 -3 -13 58.19 18.9
7 3 -13 82.79 22.8
-7 -3 -13 45.3 22.2
-13 7 3 21.9 24.5
3 13 -7 39.9 21.5
3 13 -7 -28.5 184.88
13 7 -3 56.69 17.9
-3 13 -7 29.1 25.4
-13 7 -3 10.3 24.8
7 -3 -13 40.3 18.8
-7 3 -13 32.3 24.2
13 9 -3 995 89.09
-13 9 3 894.81 94.49
3 13 -9 1003.1 94.39
9 3 -13 893.01 91.79
-9 -3 -13 960.8 91.09
-9 3 -13 983.1 94.89
9 -3 -13 948.31 90.49
-3 13 -9 886.41 96.09
-13 9 -3 983.6 95.59
13 11 -3 1382.16 120.19
11 3 -13 1251.27 123.19
3 13 -11 1386.96 126.69
-13 11 3 1231.48 127.09
-3 13 -11 1238.38 128.39
-13 11 -3 1349.56 126.69
11 -3 -13 1414.06 122.29
-11 3 -13 1310.97 125.79
1 5 -13 180.18 31.1
-13 -1 -5 192.48 29.3
13 1 -5 152.38 25.4
-5 13 1 153.68 27.9
1 -5 -13 151.68 22.9
13 -1 -5 120.79 25.4
-13 1 -5 198.58 30.5
-1 5 -13 173.68 32.4
-5 13 -1 192.28 29.5
3 5 -13 54.59 23.6
-5 13 3 41.2 21.1
13 3 -5 25.1 18
-13 -3 -5 40.3 21.3
3 -5 -13 81.89 17.5
13 -3 -5 44.4 18.3
-5 13 -3 113.09 26.4
-3 5 -13 115.69 27.8
-13 3 -5 97.49 26
13 5 -5 61.29 18.4
5 13 -5 69.19 19.3
5 5 -13 50.19 22.7
-5 13 5 34.1 18.6
-5 13 -5 44.1 25.9
-5 5 -13 55.39 25
-13 5 -5 65.89 25.7
5 -5 -13 37 18.3
13 -5 -5 26.9 18.5
13 7 -5 65.29 18.5
7 5 -13 39.6 22.8
5 13 -7 76.19 22.7
7 -5 -13 60.69 19
-13 7 -5 75.29 27.2
13 -7 -5 76.59 20.5
-5 13 -7 32 27.9
-7 5 -13 68.29 27.1
13 9 -5 156.48 24.4
5 13 -9 154.38 30.1
9 5 -13 165.48 28.9
-13 9 5 176.78 33.8
-13 9 -5 202.98 34.4
-5 13 -9 165.88 35
9 -5 -13 112.59 24.8
-9 5 -13 163.28 34.8
-13 11 5 412.06 50.99
13 11 -5 362.76 44.3
5 13 -11 364.76 48
11 5 -13 367.96 48.2
-11 5 -13 359.06 49.4
-13 11 -5 453.85 54.79
-5 13 -11 372.06 50.79
11 -5 -13 374.26 46.2
1 7 -13 264.07 37.2
13 1 -7 196.88 30.1
-7 13 1 246.18 34.1
-13 -1 -7 194.08 32.8
-13 1 -7 197.98 33.6
-7 13 -1 202.88 33.9
-1 7 -13 195.58 35.8
13 -1 -7 212.58 30
-7 13 3 52.59 23.6
13 3 -7 54.29 18.4
-13 -3 -7 58.99 21.8
3 7 -13 79.49 25.7
-13 3 -7 36.6 24.7
-3 7 -13 39.8 26.7
-7 13 -3 80.69 25.2
13 -3 -7 44.1 18.4
3 -7 -13 46.5 15.4
13 5 -7 57.99 19.6
-7 13 5 65.49 22.6
7 13 -5 42.6 18.6
5 7 -13 25 23.4
-5 7 -13 53.79 27.1
5 -7 -13 81.89 17.7
13 -5 -7 67.99 19.9
-7 13 -5 58.09 27.1
-13 5 -7 55.49 26.6
7 7 -13 167.68 30.6
13 7 -7 190.58 28.9
7 13 -7 192.18 29.2
-7 13 7 167.28 28.8
7 -7 -13 232.58 27.4
13 -7 -7 182.58 28.8
-13 7 -7 174.88 34.3
-7 13 -7 178.88 36.9
-7 7 -13 125.09 32.9
9 7 -13 24.1 20.9
13 9 -7 35.7 18.1
7 13 -9 34.8 22
9 -7 -13 78.79 20.1
-9 7 -13 35.5 28.2
-7 13 -9 153.68 143.59
-7 13 -9 -3.1 27.6
-13 9 -7 71.59 27.5
13 -9 -7 30.1 17.8
-13 11 7 195.98 37.5
13 11 -7 225.88 30.1
7 13 -11 168.18 34.4
11 7 -13 187.88 32.2
-7 13 -11 121.89 158.38
-11 7 -13 143.79 37.1
-13 11 -7 193.88 38.4
-7 13 -11 169.78 38.8
11 -7 -13 233.98 31.4
1 9 -13 1684.23 150.58
-13 -1 -9 1442.76 148.99
13 1 -9 1604.74 146.69
-9 13 1 1717.63 149.59
-13 1 -9 1549.24 149.88
13 -1 -9 1582.34 146.89
-1 9 -13 1775.52 151.68
-9 13 -1 1695.93 149.69
-13 -3 -9 872.21 90.19
-9 13 3 949.01 91.79
13 3 -9 997.4 89.39
3 9 -13 939.41 92.99
-3 9 -13 951.8 95.29
-13 3 -9 893.41 93.59
13 -3 -9 962.8 89.09
-9 13 -3 831.02 92.09
9 13 3 1129.19 232.28
-9 13 5 125.69 30
13 5 -9 144.49 26.1
5 9 -13 162.98 32
9 13 -5 168.48 25.8
5 -9 -13 126.39 21.7
-13 5 -9 140.29 32.6
13 -5 -9 196.68 27.2
-5 9 -13 190.08 35.1
-9 13 -5 172.58 32.3
13 7 -9 63.69 20.2
9 13 -7 13.1 18.2
7 9 -13 19.6 21.4
-9 13 7 -3.4 20.7
-9 13 -7 1.2 24.9
-7 9 -13 33.6 26.3
7 -9 -13 74.89 17.7
-13 7 -9 46.3 27.3
13 -7 -9 12.7 17.7
-9 13 9 249.38 35.8
9 9 -13 165.38 35.6
13 9 -9 297.17 37
9 13 -9 253.87 35.8
13 -9 -9 218.88 33.3
9 -9 -13 321.27 36.4
-9 9 -13 208.48 41.4
-13 9 -9 252.47 41.3
-9 13 -9 231.38 40.9
11 9 -13 693.43 67.19
-13 11 9 534.45 68.79
9 13 -11 604.04 67.69
-9 13 11 567.84 65.49
13 11 -9 662.23 65.09
13 -11 -9 539.95 62.29
-13 11 -9 615.74 72.99
-9 13 -11 614.24 72.59
-11 9 -13 597.84 72.39
11 -9 -13 650.13 63.59
-9 13 -11 163.98 193.28
-13 -1 -11 2265.67 220.48
1 11 -13 2473.25 222.38
13 1 -11 2650.63 219.28
-11 13 1 2625.84 222.08
-1 11 -13 2467.55 223.18
13 -1 -11 2467.15 218.78
-11 13 -1 2494.15 221.38
-13 1 -11 2326.07 221.38
13 3 -11 1438.36 124.29
-11 13 3 1444.76 128.29
3 11 -13 1311.67 127.59
-3 11 -13 1245.18 129.39
-11 13 -3 1298.57 127.19
-13 3 -11 1279.87 127.99
11 13 3 1309.27 276.47
13 -3 -11 1356.36 123.99
11 13 -5 358.26 43.6
5 11 -13 392.66 50.59
13 5 -11 340.67 44.8
-11 13 5 436.66 50.09
13 -5 -11 368.26 45.2
-11 13 -5 338.77 48.7
-5 11 -13 387.16 51.59
-13 5 -11 395.56 51.09
-11 13 7 164.08 33.6
13 7 -11 250.27 33.4
7 11 -13 178.78 34.6
11 13 -7 165.08 28.7
13 -7 -11 201.78 30.7
7 -11 -13 192.68 26.9
-7 11 -13 156.38 37.6
-7 11 -13 -29.2 180.78
-13 7 -11 214.78 38.2
-11 13 -7 138.39 35.1
-11 13 9 590.64 69.59
13 9 -11 663.13 67.89
9 11 -13 575.44 70.19
11 13 -9 638.54 67.39
-13 9 -11 704.03 74.69
-11 13 -9 614.94 73.79
13 -9 -11 657.93 65.89
-9 11 -13 378.76 216.38
-9 11 -13 664.83 75.09
9 -11 -13 607.04 64.19
11 11 -13 1178.18 114.59
13 11 -11 1076.79 112.99
-11 13 11 1180.98 114.49
11 13 -11 1145.09 113.59
11 -11 -13 1127.09 110.49
-13 11 -11 1259.07 120.09
-11 13 -11 1320.17 119.59
13 -11 -11 1175.38 110.69
-11 11 -13 1319.87 120.09
-13 -1 -13 2218.68 202.28
13 1 -13 2469.65 201.58
1 13 -13 2169.98 204.08
-13 13 1 2179.58 204.28
-1 13 -13 2017.4 204.68
-13 13 -1 2201.78 203.88
13 -1 -13 2445.56 201.08
-13 1 -13 2197.38 203.38
13 3 -13 1345.77 121.69
3 13 -13 1225.28 124.79
-13 13 3 1188.78 125.89
-3 13 -13 1318.67 128.69
-13 13 -3 1329.47 125.09
13 -3 -13 1309.37 120.89
-13 3 -13 1342.37 126.29
13 5 -13 343.77 45.1
13 13 -5 290.67 40.7
-13 13 5 388.36 50.69
5 13 -13 344.17 49.5
-5 13 -13 368.06 54.19
13 -5 -13 357.46 45.7
-13 5 -13 413.86 51.69
-13 13 -5 366.66 49.99
13 13 -7 210.18 30.9
13 7 -13 169.68 31.7
-13 13 7 197.98 37.8
7 13 -13 200.68 37.9
-7 13 -13 279.87 42.8
-7 13 -13 68.29 188.48
13 -7 -13 233.48 34
-13 13 -7 181.48 38.7
-13 7 -13 181.18 42.5
13 13 -9 599.94 70.69
13 9 -13 664.13 72.99
-13 13 9 664.73 76.59
9 13 -13 712.53 76.59
-9 13 -13 758.92 80.09
-9 13 -13 447.56 227.58
13 -9 -13 686.23 70.79
-13 13 -9 787.02 80.39
-13 9 -13 634.04 79.79
13 11 -13 1000.7 94.49
13 13 -11 1007.8 93.09
-13 13 11 829.22 95.09
11 13 -13 959.2 93.89
-11 13 13 827.12 99.09
-11 13 -13 880.01 99.29
-11 13 -13 472.45 251.87
13 -11 -13 948.41 90.09
-13 11 -13 909.61 98.79
-13 13 -11 912.11 100.09
13 13 -13 758.12 78.99
-13 13 13 675.03 79.79
-13 13 -13 678.53 85.59
-14 0 0 2573.44 226.98
0 0 -14 2702.83 226.98
14 0 0 2445.16 225.78
-2 0 -14 912.51 93.59
2 0 -14 1034.4 93.59
14 2 0 993.7 91.99
-14 2 0 969.4 94.99
4 0 -14 185.18 30.5
14 4 0 157.68 27.2
0 14 -4 265.47 33.1
-4 0 -14 206.28 32.9
-14 4 0 247.08 34.5
0 14 -6 112.79 28.9
-14 6 0 87.49 29.2
-6 0 -14 110.69 28.1
14 6 0 122.69 22
6 0 -14 94.89 24.4
-8 0 -14 660.73 69.29
14 8 0 688.63 63.79
8 0 -14 618.44 66.89
-14 8 0 559.04 71.59
0 14 -8 665.73 72.29
0 14 -10 1497.95 140.59
-10 0 -14 1501.05 137.19
10 0 -14 1438.56 136.39
-14 10 0 1500.25 140.69
0 14 -12 1848.32 191.18
-12 0 -14 2207.18 189.58
-14 12 0 1946.61 190.98
12 0 -14 2302.17 188.18
-2 14 0 859.91 90.69
-14 0 -2 985.9 93.19
0 2 -14 840.32 92.89
14 0 -2 1034.1 91.49
0 -2 -14 1076.89 91.49
2 2 -14 420.16 49.2
-14 -2 -2 361.76 47.4
14 2 -2 354.56 45.3
-2 -2 -14 322.47 42.9
-2 14 -2 424.86 48.4
2 -2 -14 401.16 45.8
-2 2 -14 474.25 51.29
14 -2 -2 297.77 42.2
-14 2 -2 422.16 50.79
-14 -4 -2 78.09 21.9
-14 4 2 38.6 24
-4 -2 -14 46.2 21.8
14 4 -2 69.19 19.1
4 2 -14 62.79 22.6
2 14 -4 70.79 21.9
-14 4 -2 67.59 27.2
-4 2 -14 33.4 25.5
4 -2 -14 100.39 22.1
-2 14 -4 41.4 23.8
14 -4 -2 56.19 20.1
2 14 -6 -3.6 20.8
6 2 -14 -19 19.3
-6 -2 -14 -6.1 21.1
14 6 -2 21.8 15.9
-14 -6 -2 29.9 18.6
-14 6 2 13.9 24.2
-6 2 -14 55.99 25.7
-14 6 -2 72.49 27.3
-2 14 -6 19.6 23.5
6 -2 -14 11.7 18.3
2 14 -8 351.06 45.5
-14 8 2 331.77 46.4
14 8 -2 345.77 41.6
8 2 -14 454.85 47.3
-8 -2 -14 418.16 47.9
-14 8 -2 298.27 46.2
-2 14 -8 323.57 47.4
-8 2 -14 335.07 45.5
8 -2 -14 308.67 42.1
-10 -2 -14 1100.89 93.49
-14 10 2 898.91 96.79
2 14 -10 1016.1 96.29
14 10 -2 964.8 88.79
10 2 -14 914.11 92.99
-2 14 -10 459.05 191.68
10 -2 -14 1101.89 92.29
-2 14 -10 856.91 97.79
-14 10 -2 939.61 96.79
-10 2 -14 817.12 94.49
2 14 -12 1538.55 142.79
-14 12 2 1320.17 143.69
12 2 -14 1489.95 139.69
-12 -2 -14 1533.55 140.09
12 -2 -14 1703.13 139.09
-12 2 -14 1549.84 142.59
-14 12 -2 1566.04 143.39
-2 14 -12 1304.57 144.59
-14 0 -4 195.18 32.2
0 4 -14 241.68 34.3
14 0 -4 155.78 27.6
-4 14 0 225.48 30.6
0 -4 -14 168.38 26.3
-4 14 2 62.89 21.2
-2 -4 -14 99.59 20.7
14 2 -4 50.89 18.5
-14 -2 -4 44.4 23.1
2 4 -14 50.19 23.9
-14 2 -4 53.69 27
-2 4 -14 50.59 25.4
14 -2 -4 51.69 20
-4 14 -2 59.29 24.2
2 -4 -14 114.59 20.7
4 4 -14 27.6 22.6
4 14 -4 40.2 18.7
-14 -4 -4 49.8 22
14 4 -4 101.59 20.4
-4 14 -4 103.59 27.3
-4 4 -14 110.39 27.8
14 -4 -4 42 19.7
4 -4 -14 111.19 20.5
-14 4 -4 126.79 28.1
4 14 -6 89.89 23.5
6 4 -14 69.49 25.2
14 6 -4 52.39 19.1
14 -6 -4 74.69 20.9
6 -4 -14 85.69 21.5
-14 6 -4 126.79 29.6
-6 4 -14 146.29 29.4
-4 14 -6 124.49 30.8
8 4 -14 18.9 20.8
-14 8 4 36.2 26.7
4 14 -8 76.09 23.6
14 8 -4 20.9 16.9
-8 4 -14 54.89 26.4
-14 8 -4 37.3 26.6
-4 14 -8 52.49 27.6
8 -4 -14 18.1 18.4
14 10 -4 362.36 41
-14 10 4 276.37 45.8
10 4 -14 282.27 42.3
4 14 -10 317.57 44.1
10 -4 -14 360.36 42.3
-14 10 -4 400.66 49
-4 14 -10 170.78 161.58
-4 14 -10 329.37 47.8
-10 4 -14 318.37 46.6
4 14 -12 533.15 66.19
-14 12 4 516.65 68.99
14 12 -4 499.45 58.89
12 4 -14 541.85 62.59
-4 14 -12 583.34 72.59
-12 4 -14 615.44 69.29
12 -4 -14 574.94 60.99
-14 12 -4 670.93 69.69
0 6 -14 82.99 27.9
14 0 -6 108.29 22.2
-14 0 -6 84.29 26.7
-6 14 0 116.99 26.6
2 6 -14 -23.1 23.3
-14 -2 -6 -39.2 20.9
-6 14 2 21 21.6
14 2 -6 33 16.8
14 -2 -6 -10 15.9
-6 14 -2 26.6 22.7
-14 2 -6 8.9 23.4
2 -6 -14 22.3 14.5
-2 6 -14 14.8 24.9
-14 -4 -6 18.5 22.9
6 14 -4 132.89 205.78
14 4 -6 65.49 20.8
-6 14 4 40 22.4
4 6 -14 33.1 25.7
-14 4 -6 118.99 28.3
-6 14 -4 130.89 27.5
4 -6 -14 80.39 18.8
14 -4 -6 52.89 20.7
-4 6 -14 116.59 30.6
6 6 -14 250.97 38.3
6 14 -6 226.88 35
14 6 -6 287.07 35.7
-6 14 -6 292.97 43.3
-6 6 -14 300.47 42
14 -6 -6 261.67 36.1
-14 6 -6 261.47 40.5
6 -6 -14 296.47 36.3
-14 8 6 16.6 25.8
8 6 -14 68.19 26
14 8 -6 88.99 21.1
6 14 -8 86.49 24.1
8 -6 -14 92.79 20.4
-14 8 -6 53.99 27.9
-6 14 -8 31.7 29.9
-8 6 -14 33.8 27.7
14 -8 -6 88.69 21.8
-14 10 6 28.2 28.1
10 6 -14 33.4 21.6
14 10 -6 32.5 17.3
6 14 -10 11.3 23.2
-10 6 -14 -21.8 28.1
-6 14 -10 8 28.3
-14 10 -6 65.19 29.8
10 -6 -14 45.9 19.5
12 6 -14 149.49 29.8
-14 12 6 129.89 32.4
6 14 -12 103.59 31.2
14 12 -6 136.09 23.5
-14 12 -6 77.59 33.1
-6 14 -12 121.09 35.9
-12 6 -14 75.59 35.1
12 -6 -14 156.08 27.2
-8 14 0 675.63 69.69
-14 0 -8 577.64 68.89
14 0 -8 648.34 64.69
0 8 -14 588.24 70.29
8 14 0 727.03 217.88
14 2 -8 326.97 43
-14 -2 -8 339.37 43.1
2 8 -14 317.97 46.4
-8 14 2 351.96 45.2
8 14 -2 763.02 231.08
14 -2 -8 360.96 43.9
8 14 2 541.35 194.38
-8 14 -2 425.86 50.29
-2 8 -14 282.67 47.5
-14 2 -8 313.97 44.9
14 4 -8 25.5 17.6
-8 14 4 37.9 23
4 8 -14 52.69 24.7
4 -8 -14 24.3 14.6
-8 14 -4 65.99 25.6
14 -4 -8 17.4 17.4
-4 8 -14 55.29 27.9
-14 4 -8 25.9 26.3
-8 14 6 64.99 24.7
14 6 -8 50.49 19.7
8 14 -6 61.69 21.3
6 8 -14 67.59 25.4
-6 8 -14 47.5 28.5
6 -8 -14 83.29 18.1
-8 14 -6 66.59 27.8
14 -6 -8 51.89 20.1
-14 6 -8 47.6 27.7
14 8 -8 11.9 19.2
8 8 -14 49.5 22.9
8 14 -8 19.6 21.5
-8 14 8 -23.6 21.5
-14 8 -8 96.29 30.6
-8 8 -14 91.99 30
-8 14 -8 54.29 28.8
14 -8 -8 68.99 21.1
8 -8 -14 68.09 18.7
-14 10 8 52.49 28.2
14 10 -8 70.89 21.9
10 8 -14 68.99 24.8
8 14 -10 91.49 25.9
-8 14 -10 31.5 29.6
-10 8 -14 32 32.5
-14 10 -8 62.29 32
14 -10 -8 82.69 22.3
-14 12 8 283.37 43.3
12 8 -14 217.98 38.5
14 12 -8 266.97 36.9
8 14 -12 266.27 41.9
12 -8 -14 367.66 42
-14 12 -8 244.98 47.1
-12 8 -14 229.88 45
-8 14 -12 -18.4 181.08
-8 14 -12 253.67 44.8
0 10 -14 1609.14 141.29
10 14 0 1428.86 285.07
-14 0 -10 1351.26 139.49
14 0 -10 1502.15 136.39
-10 14 0 1525.65 139.59
2 10 -14 976.8 96.29
-10 14 2 1063.19 95.19
10 14 -2 1040.4 265.27
14 2 -10 944.41 90.69
-14 -2 -10 901.71 94.09
-10 14 -2 927.71 95.19
-2 10 -14 925.61 97.89
-14 2 -10 784.12 95.39
14 -2 -10 999.9 91.29
-10 14 4 343.27 44.5
14 4 -10 320.37 40.6
4 10 -14 294.17 44.3
-14 4 -10 317.37 47.5
-10 14 -4 277.27 44.1
-4 10 -14 336.07 48.8
10 14 4 225.18 190.78
14 -4 -10 356.96 42.9
14 6 -10 10.9 19.3
6 10 -14 25.5 24.2
-10 14 6 -12.5 23.7
10 14 -6 32.6 17.9
-10 14 -6 14.4 26.2
14 -6 -10 17.1 17.6
-14 6 -10 19.1 27.9
-6 10 -14 35.3 28.4
6 -10 -14 27.8 15.3
14 8 -10 75.79 25.3
-10 14 8 88.59 28.8
8 10 -14 86.99 28.4
10 14 -8 138.59 25.6
-8 10 -14 109.69 32.4
8 -10 -14 199.68 25.4
-10 14 -8 73.59 31.6
14 -8 -10 140.39 25.9
-14 8 -10 131.39 34.7
10 14 -10 335.17 46.4
14 10 -10 546.35 51.19
10 10 -14 329.17 47.3
-10 14 10 341.07 48
-10 14 -10 375.86 53.39
-14 10 -10 328.17 54.09
14 -10 -10 350.86 45.8
10 -10 -14 461.05 47.4
-10 10 -14 304.37 52.49
10 14 -12 623.94 76.39
-14 12 10 694.73 79.39
14 12 -10 636.44 73.29
12 10 -14 787.92 77.49
-14 12 -10 830.42 83.69
12 -10 -14 665.03 72.49
-10 14 -12 328.47 229.18
-10 14 -12 837.02 84.79
-12 10 -14 751.02 84.39
0 12 -14 2021.8 182.68
14 0 -12 2066.89 178.08
-14 0 -12 1764.82 180.28
-12 14 0 2035.8 181.28
2 12 -14 1491.85 140.29
-14 -2 -12 1354.66 138.09
-12 14 2 1501.85 140.19
14 2 -12 1672.03 136.39
-12 14 -2 1410.56 139.59
-2 12 -14 1534.15 142.79
-14 2 -12 1409.76 139.89
14 -2 -12 1402.06 135.49
4 12 -14 531.95 69.89
-12 14 4 525.75 71.29
14 4 -12 632.74 65.99
-12 14 -4 659.93 71.59
14 -4 -12 619.84 65.19
-14 4 -12 742.13 73.49
-4 12 -14 587.94 75.39
14 6 -12 141.59 28.2
6 12 -14 109.09 31.6
12 14 -6 123.39 26
-12 14 6 140.99 33.7
-12 14 -6 104.59 32.6
-14 6 -12 185.38 37.8
14 -6 -12 126.39 26.5
12 14 6 134.59 186.68
-6 12 -14 124.19 36.2
14 8 -12 336.57 40.8
-12 14 8 269.67 42.7
12 14 -8 261.57 36.9
8 12 -14 269.07 43.1
-8 12 -14 186.28 43.3
-14 8 -12 233.88 46
14 -8 -12 242.08 37.2
-12 14 -8 290.17 46.7
14 10 -12 631.34 73.99
-12 14 10 567.44 76.19
10 12 -14 702.03 77.29
12 14 -10 768.92 74.99
-14 10 -12 759.82 83.59
-12 14 -10 728.63 82.99
14 -10 -12 755.02 73.49
-10 12 -14 693.03 81.99
12 12 -14 743.73 75.49
-14 12 12 584.74 76.49
-12 14 12 582.04 86.69
14 12 -12 573.34 70.89
12 14 -12 697.93 73.79
-12 12 -14 696.13 82.29
-14 12 -12 609.54 81.59
12 -12 -14 706.53 68.29
14 -12 -12 683.23 69.59
-12 14 -12 654.83 80.59
-14 0 -14 1686.03 160.08
-14 14 0 1589.84 161.08
0 14 -14 1753.82 162.08
14 0 -14 1801.12 157.08
14 2 -14 1122.59 110.39
2 14 -14 1001 114.79
-14 14 2 892.31 114.39
-2 14 -14 1284.77 118.69
-14 14 -2 1362.96 116.49
14 -2 -14 1055.19 109.39
-14 2 -14 1406.86 116.39
14 4 -14 203.38 35.7
4 14 -14 224.68 41.2
-14 14 4 214.38 43.2
-4 14 -14 174.18 43.2
-14 14 -4 256.37 42.8
14 -4 -14 253.17 36.5
-14 4 -14 219.28 42.9
-14 14 6 52.89 30.9
14 6 -14 58.99 23.5
6 14 -14 14.9 29.4
-14 6 -14 39.5 33
-6 14 -14 41.9 33.8
-6 14 -14 -60.89 183.78
14 -6 -14 19.6 21.9
-14 14 -6 14.5 29.5
14 14 -8 127.79 29.1
14 8 -14 195.18 32.7
-14 14 8 155.38 37.3
8 14 -14 136.69 37.3
-8 14 -14 221.58 42.7
-8 14 -14 54.89 207.98
14 -8 -14 162.28 30.2
-14 14 -8 151.58 39.2
-14 8 -14 170.48 40.3
14 14 -10 311.57 45.7
14 10 -14 307.97 48.5
-14 14 10 384.96 53.29
10 14 -14 502.35 54.89
-10 14 -14 477.15 59.39
-10 14 -14 -36 225.28
14 -10 -14 405.26 48.9
-14 14 -10 434.06 58.79
-14 10 -14 351.76 56.69
14 12 -14 446.86 57.09
14 14 -12 436.66 56.19
-14 14 12 341.07 57.19
12 14 -14 466.35 57.19
-12 14 -14 507.05 65.69
14 -12 -14 453.95 53.39
-14 12 -14 454.65 64.89
-14 14 -12 377.16 61.29
-14 -14 -14 259.27 25.9
14 14 -14 270.17 42.5
14 -14 14 282.77 30
-14 14 -14 193.78 52.19
-15 -1 -1 1236.68 121.39
15 1 -1 1318.07 120.19
-1 -1 -15 1323.67 121.19
1 1 -15 1277.77 121.79
1 -1 -15 1480.45 121.49
-1 1 -15 1315.67 122.19
15 -1 -1 1168.48 119.69
-15 1 -1 1371.36 122.69
-3 -1 -15 55.19 24.8
-15 -3 -1 108.99 25.2
15 3 -1 112.69 23.6
-15 3 1 54.29 26.4
1 15 -3 80.09 23
3 1 -15 101.29 25.8
-1 15 -3 100.29 24.7
15 3 1 101.79 22.1
3 -1 -15 108.49 23.6
-3 1 -15 98.29 29.1
-15 3 -1 93.59 27.1
5 1 -15 11.5 21.2
-5 -1 -15 9.9 23.2
-15 5 1 30.9 26.2
1 15 -5 32.1 22.9
15 5 -1 37.8 18
-5 1 -15 98.19 27.8
-15 5 -1 131.99 29.2
15 5 1 32.3 17.3
-1 15 -5 127.59 26.9
5 -1 -15 46.3 21.4
7 1 -15 88.39 24.1
1 15 -7 -74.39 187.48
-15 7 1 45.9 28
15 7 -1 78.79 19.6
1 15 -7 35.4 24.9
-7 -1 -15 30 26.3
7 -1 -15 58.99 22.6
-7 1 -15 94.59 27.7
-1 15 -7 84.99 27.8
-15 7 -1 64.89 29
15 7 1 73.69 18.1
-9 -1 -15 469.95 55.29
1 15 -9 258.37 196.58
1 15 -9 449.26 56.89
15 9 -1 386.46 47.8
9 1 -15 457.95 53.19
-15 9 1 441.06 55.79
-9 1 -15 450.45 56.49
-1 15 -9 171.88 191.58
-1 15 -9 480.85 57.09
-15 9 -1 412.06 54.59
9 -1 -15 401.86 50.89
1 15 -11 1144.99 113.49
11 1 -15 1151.88 110.09
-15 11 1 1029.9 114.39
-11 -1 -15 1211.78 111.49
-15 11 -1 1089.39 113.79
-1 15 -11 1041.3 114.89
-11 1 -15 1121.59 111.79
11 -1 -15 1319.97 109.89
1 15 -13 1135.09 126.09
-13 -1 -15 1241.58 123.89
13 1 -15 1283.27 121.69
-15 13 1 1099.79 126.19
-15 13 -1 1414.46 126.89
13 -1 -15 1305.37 120.89
-13 1 -15 1560.54 126.19
-1 15 -13 1214.98 127.79
-1 -3 -15 112.89 23.9
1 3 -15 53.89 25.5
15 1 -3 82.79 22.7
-15 -1 -3 73.09 25.6
1 -3 -15 114.89 23.4
-15 1 -3 147.89 30.2
-1 3 -15 120.19 29.1
-3 15 -1 83.19 25.5
15 -1 -3 84.79 21.8
-3 -3 -15 97.69 25.8
15 3 -3 207.98 26.8
-15 -3 -3 112.89 26.8
3 3 -15 95.19 27.8
3 -3 -15 220.68 28.5
15 -3 -3 135.99 25.5
-5 -3 -15 299.57 36.4
5 3 -15 222.98 37.4
3 15 -5 258.57 35.6
-15 -5 -3 228.08 35
-15 5 3 277.47 40
15 5 -3 244.38 34
15 -5 -3 264.17 35.8
-3 15 -5 326.37 40.7
5 -3 -15 260.97 35.7
-5 3 -15 272.07 40.7
-15 5 -3 288.57 42.7
7 3 -15 76.99 26
15 7 -3 99.99 21.3
3 15 -7 84.59 26
-7 -3 -15 113.99 26.1
-15 7 3 117.59 30.5
3 15 -7 89.29 197.08
7 -3 -15 110.49 24.1
-7 3 -15 60.19 28.6
-15 7 -3 69.19 28.6
-3 15 -7 76.59 28.3
-15 9 3 57.99 27.5
9 3 -15 19.3 21.7
3 15 -9 29.4 25.8
15 9 -3 59.69 18.9
-9 -3 -15 91.09 31
9 -3 -15 60.59 21.8
-3 15 -9 -8.5 27.2
-3 15 -9 75.89 163.88
-15 9 -3 20.4 28.2
-9 3 -15 55.99 28.5
15 11 -3 493.55 52.49
-15 11 3 423.86 58.19
3 15 -11 474.65 58.89
11 3 -15 368.76 53.09
-3 15 -11 462.35 60.89
-15 11 -3 432.46 58.39
11 -3 -15 483.25 53.19
-11 3 -15 513.05 61.19
3 15 -13 415.46 60.09
13 3 -15 378.86 53.79
-15 13 3 382.96 60.29
13 -3 -15 482.35 54.39
-3 15 -13 534.65 64.29
-13 3 -15 547.25 65.79
-15 13 -3 475.75 59.79
-15 -1 -5 -19.9 23
1 5 -15 -20.6 24
15 1 -5 44.1 18.5
-5 15 1 4.3 21.4
-15 1 -5 142.69 27.8
-1 5 -15 156.88 30.2
-5 15 -1 128.69 26.8
15 -1 -5 33.1 18.4
1 -5 -15 45.5 17.9
3 5 -15 262.67 40.6
-15 -3 -5 312.67 39
15 3 -5 267.17 36.3
5 15 -3 117.79 206.28
-15 3 -5 290.47 42.1
3 -5 -15 341.67 37.9
-3 5 -15 243.48 41
15 -3 -5 265.17 36.6
-5 15 -3 274.77 39.7
-15 -5 -5 603.24 56.19
15 5 -5 458.15 54.69
5 15 -5 510.05 55.19
5 5 -15 491.55 59.09
15 -5 -5 607.94 56.69
-15 5 -5 407.06 57.79
5 -5 -15 452.05 53.19
-5 5 -15 481.05 62.49
-5 15 -5 514.55 62.49
7 5 -15 357.86 49.3
15 7 -5 340.97 47.9
5 15 -7 495.65 51.49
-15 7 5 432.36 55.29
-15 7 -5 464.55 57.29
7 -5 -15 411.86 47.9
15 -7 -5 476.75 50.19
-7 5 -15 349.17 51.89
-5 15 -7 450.65 55.29
5 15 -9 72.89 25
9 5 -15 67.69 24.1
15 9 -5 45.5 19.8
-15 9 5 69.69 30
-15 9 -5 56.29 29.2
-5 15 -9 38.5 29.7
-5 15 -9 93.19 151.28
-9 5 -15 54.39 31.1
9 -5 -15 66.69 20.4
11 5 -15 53.99 24.6
5 15 -11 33.7 27.5
-15 11 5 34.6 28.1
15 11 -5 36 19.1
-5 15 -11 42 30.2
-11 5 -15 -7.3 28.9
-15 11 -5 45.1 31.6
11 -5 -15 38.7 20.2
5 15 -13 2.1 29.2
13 5 -15 50.59 25.1
-15 13 5 66.49 32
13 -5 -15 85.69 25.1
-15 13 -5 32.6 30.4
-5 15 -13 53.99 33.6
-13 5 -15 63.39 34.8
15 1 -7 60.89 19.9
1 7 -15 75.99 28.3
-7 15 1 55.89 25.4
-15 -1 -7 63.59 25.2
7 15 -1 -89.39 193.08
-7 15 -1 69.09 25.3
-15 1 -7 52.79 25.8
-1 7 -15 25.9 27.1
15 -1 -7 69.09 20.7
-7 15 3 102.99 26.8
7 15 -3 122.89 210.88
3 7 -15 88.79 28.9
15 3 -7 83.29 22.4
-3 7 -15 61.69 30.2
3 -7 -15 97.89 19.2
15 -3 -7 49.2 21.6
-7 15 -3 59.89 28
-15 3 -7 107.29 29.4
15 5 -7 331.77 46.8
7 15 -5 263.17 224.58
-7 15 5 386.56 47.2
5 7 -15 484.45 53.89
5 -7 -15 383.86 44.3
-15 5 -7 461.15 54.99
-5 7 -15 436.06 53.49
15 -5 -7 355.86 47.6
-7 15 -5 393.06 51.39
-7 15 7 411.36 56.49
15 7 -7 388.06 50.49
7 7 -15 426.66 55.59
7 15 -7 490.05 52.89
15 -7 -7 590.14 53.09
7 -7 -15 382.06 48.3
-15 7 -7 404.46 56.09
-7 7 -15 398.96 55.59
-7 15 -7 532.65 60.99
-15 9 7 118.79 33.7
9 7 -15 83.49 29.6
15 9 -7 167.08 28.6
7 15 -9 235.18 32.1
9 -7 -15 225.28 30.2
15 -9 -7 177.28 29.1
-9 7 -15 141.69 36.9
-15 9 -7 75.29 34.8
-7 15 -9 135.69 38.9
11 7 -15 53.19 24.6
-15 11 7 27.2 29.6
7 15 -11 -13.5 25
15 11 -7 72.19 20.3
11 -7 -15 127.49 24.1
-15 11 -7 -29.2 28.9
-7 15 -11 7.1 30
-11 7 -15 -61.09 31
15 11 7 2.1 189.28
7 15 -13 32.6 28.5
15 13 -7 7.1 19
13 7 -15 41.1 23.4
-15 13 7 85.79 32.5
-15 13 -7 48 32.7
-7 15 -13 6.6 32.4
-13 7 -15 25.8 34.1
13 -7 -15 78.39 23.5
15 1 -9 407.56 49.6
1 9 -15 378.36 52.79
-9 15 1 427.86 51.69
-15 -1 -9 467.45 51.69
-9 15 -1 378.46 51.09
-1 9 -15 375.26 53.59
-15 1 -9 412.36 51.79
15 -1 -9 426.46 50.09
-15 -3 -9 84.89 24.6
-9 15 3 75.29 27.1
3 9 -15 83.19 27.5
15 3 -9 62.29 21.7
15 -3 -9 26.6 20
-15 3 -9 21.7 28.2
-9 15 -3 54.29 28.9
-3 9 -15 78.69 32.2
-9 15 5 51.69 25.8
5 9 -15 62.79 25.9
15 5 -9 48.7 20.7
15 -5 -9 30.5 20.4
5 -9 -15 57.99 17.2
-15 5 -9 55.99 29.8
-9 15 -5 31.1 28.3
-5 9 -15 43.9 30.3
-9 15 7 115.59 31.9
9 15 -7 115.59 26.7
7 9 -15 172.88 32.9
15 7 -9 159.88 28.7
7 -9 -15 200.58 26.4
15 -7 -9 117.59 27.3
-9 15 -7 133.59 36
-15 7 -9 173.98 36.1
-7 9 -15 141.69 37.6
9 15 -9 76.89 26.2
15 9 -9 170.08 28.2
9 9 -15 86.29 28.1
-9 9 -15 55.99 32.2
-9 15 -9 118.99 32.9
-15 9 -9 75.59 34.8
9 -9 -15 194.58 26.6
15 -9 -9 61.79 21.6
11 9 -15 64.39 28.1
15 11 -9 153.88 29.5
-15 11 9 55.09 31.8
9 15 -11 139.09 31.5
-9 15 -11 97.59 35.6
-9 15 -11 117.29 188.18
-15 11 -9 108.99 37.4
-11 9 -15 90.09 36.7
11 -9 -15 139.99 26.7
15 13 -9 200.18 33.7
9 15 -13 263.67 42.4
-15 13 9 202.98 40.9
13 9 -15 188.98 36.7
13 -9 -15 224.98 34.7
-15 13 -9 187.38 45.6
-9 15 -13 222.18 43.9
-13 9 -15 195.38 46.6
15 13 9 112.29 214.68
1 11 -15 1073.99 107.59
-11 15 1 1157.08 106.69
15 1 -11 1191.08 102.69
-15 -1 -11 904.41 105.89
-11 15 -1 1111.19 106.99
15 -1 -11 1129.59 102.49
-15 1 -11 934.81 107.39
-1 11 -15 982.2 107.79
15 3 -11 490.05 52.09
3 11 -15 322.37 52.99
-11 15 3 384.56 53.89
-15 3 -11 471.85 57.49
-11 15 -3 486.35 59.29
15 -3 -11 419.66 51.59
-3 11 -15 464.45 59.69
5 11 -15 38.7 26.4
-11 15 5 21.5 27.2
15 5 -11 51.39 20.5
15 -5 -11 22.3 19.6
-11 15 -5 46.7 28.9
-15 5 -11 1.3 28.6
-5 11 -15 56.39 31.6
-11 15 7 22.6 27.6
7 11 -15 36 26
11 15 -7 27.1 21.1
15 7 -11 85.39 23.9
-11 15 -7 -23.4 25.6
15 -7 -11 -22 19.3
-15 7 -11 40.7 32.4
-7 11 -15 -4.6 31
11 15 -9 110.19 27
9 11 -15 76.29 29.7
-11 15 9 47.9 29.4
15 9 -11 189.08 31.7
-11 15 -9 97.19 35.7
-9 11 -15 84.59 32.7
-15 9 -11 168.18 39.7
15 -9 -11 99.39 26
-15 11 11 390.96 54.29
11 11 -15 504.55 56.39
15 11 -11 356.46 49.4
11 15 -11 376.16 50.39
-15 11 -11 376.86 57.29
-11 15 -11 378.06 57.19
-11 11 -15 427.16 58.19
15 -11 -11 402.06 49.99
11 -11 -15 416.86 49.4
-15 13 11 396.86 53.29
15 13 -11 330.17 46.5
11 15 -13 348.37 48.6
13 11 -15 324.27 48.7
-11 15 -13 363.86 57.29
-13 11 -15 293.97 54.99
-15 13 -11 328.87 55.29
-11 15 -13 -195.78 239.98
13 -11 -15 367.76 44.7
-13 15 1 1183.88 119.99
-15 -1 -13 968.1 118.19
15 1 -13 1242.68 115.99
1 13 -15 1213.08 121.19
-15 1 -13 1310.37 121.29
-1 13 -15 1398.06 123.49
15 -1 -13 1138.09 115.39
-13 15 -1 1334.27 121.29
3 13 -15 439.56 58.99
15 3 -13 463.05 54.39
-13 15 3 410.46 58.39
15 -3 -13 438.46 54.49
-13 15 -3 470.55 59.19
-15 3 -13 483.15 59.99
-3 13 -15 493.25 63.69
15 5 -13 39.3 22.6
5 13 -15 85.99 30.8
-13 15 5 61.49 31.4
-5 13 -15 86.59 34.7
-15 5 -13 71.79 32.6
15 -5 -13 52.39 23.3
-13 15 -5 66.89 31.1
13 15 5 50.69 187.08
15 7 -13 57.69 23.3
7 13 -15 40.4 29.5
-13 15 7 53.89 31.5
-13 15 -7 27 30
13 15 7 299.07 203.38
15 -7 -13 45.9 23
-7 13 -15 51.29 34.1
-15 7 -13 53.09 35.3
13 15 -9 225.38 37.2
15 9 -13 199.88 35.7
-13 15 9 212.18 41.7
9 13 -15 231.58 42.2
-13 15 -9 209.48 44.9
-15 9 -13 211.78 46.7
-9 13 -15 219.28 44.5
15 -9 -13 227.38 35.7
15 11 -13 313.47 49.2
13 15 -11 468.45 53.19
11 13 -15 400.56 55.09
-13 15 -11 410.36 59.69
-11 13 -15 323.27 57.09
-15 11 -13 367.36 59.69
15 -11 -13 387.46 48.9
-15 -13 -13 276.27 28
15 -13 13 302.97 36.8
-15 13 13 270.07 47.9
-13 -15 -13 282.37 27.8
-13 -13 -15 284.87 28.1
13 15 -13 266.77 44.3
15 13 -13 311.37 45
13 13 -15 307.07 46.7
-13 13 -15 371.26 56.89
-15 13 -13 318.57 55.49
-13 15 -13 326.17 57.69
15 1 -15 738.93 75.09
1 15 -15 652.43 82.59
-15 15 1 636.14 82.19
-1 15 -15 617.54 83.09
-15 15 -1 699.33 82.39
15 -1 -15 766.72 75.09
-15 1 -15 690.43 82.99
15 3 -15 99.49 28.6
3 15 -15 86.29 34.4
-15 15 3 50.19 35
-3 15 -15 68.89 35.5
-15 15 -3 176.78 37
15 -3 -15 98.89 26.8
-15 3 -15 70.09 36.1
15 5 -15 14.6 24
5 15 -15 9.6 30
-15 15 5 62.79 32.6
-5 15 -15 34.5 33.9
-15 15 -5 -4.6 29.8
15 -5 -15 -20 20
-15 5 -15 -25.2 32.8
15 15 5 -79.89 205.18
15 7 -15 -8.4 21.9
7 15 -15 54.59 30.9
-15 15 7 -5.1 32.6
-7 15 -15 16.8 34.2
-15 15 -7 3 32.6
15 -7 -15 -6.3 21.8
-15 7 -15 -64.19 33.3
-15 15 9 68.19 33.8
15 9 -15 25.5 24.1
9 15 -15 121.19 35.7
-15 9 -15 -4.9 36.6
-9 15 -15 2.5 35.1
-9 15 -15 -134.09 343.37
15 -9 -15 21.8 25
-15 15 -9 53.79 34.3
15 15 9 264.47 222.78
-15 -15 -11 99.89 11.9
-15 -11 -15 88.79 12.1
15 -11 15 74.79 18.9
15 11 -15 90.19 30.3
-15 15 11 64.89 37.7
-11 -15 -15 85.79 11.7
15 -15 11 84.39 16.2
11 15 -15 105.39 33.7
-11 15 -15 69.09 38
15 -11 -15 97.69 27.6
-15 11 -15 64.19 42.7
-15 15 -11 105.89 43.2
-15 -15 -13 87.39 10.9
-15 -13 -15 66.89 10.7
15 13 -15 37.1 27.7
15 15 -13 55.49 29.3
-13 -15 -15 73.09 10.7
15 -13 15 87.99 16.3
13 -15 15 60.99 14.8
13 15 -15 93.29 34.3
15 -15 13 84.89 15.6
-13 15 -15 64.89 41.5
-15 13 -15 68.59 42.3
-15 15 -13 75.59 43.6
-15 -15 -15 5.4 6.9
15 15 -15 8.6 28.8
15 -15 15 22.1 12
-15 15 -15 -12.4 43.3
-16 0 0 2047.2 183.38
0 0 -16 2026.6 182.98
2 0 -16 637.24 64.39
-16 -2 0 484.65 61.79
-16 2 0 662.93 66.29
-2 0 -16 609.74 64.89
16 2 0 508.15 60.19
4 0 -16 70.99 23.9
-4 0 -16 81.49 27
16 4 0 32.5 19
0 16 -4 102.69 26.8
-16 4 0 98.89 27.8
0 16 -6 23.8 24.9
-6 0 -16 16.9 24.8
16 6 0 10.9 16
-16 6 0 25.5 26.3
6 0 -16 4.5 20.2
16 8 0 52.59 19.4
-16 8 0 54.79 30.6
-8 0 -16 111.99 31.9
0 16 -8 29.2 27.8
8 0 -16 75.29 24.1
0 16 -10 578.24 71.39
-16 10 0 606.54 72.99
-10 0 -16 623.84 70.49
10 0 -16 592.54 65.89
12 0 -16 666.63 80.09
-16 12 0 778.72 87.39
-12 0 -16 906.01 86.49
0 16 -12 837.82 88.89
-16 14 0 763.42 89.99
14 0 -16 731.83 82.39
0 16 -14 790.52 90.79
-14 0 -16 1036.4 97.59
0 -2 -16 590.34 64.19
16 0 -2 535.05 62.69
0 2 -16 694.53 67.09
-16 0 -2 587.24 66.09
-2 -2 -16 92.29 26.8
16 2 -2 144.29 26
2 2 -16 67.99 27.8
-16 -2 -2 121.29 27.4
-2 16 -2 96.19 27
2 -2 -16 142.39 26.9
16 -2 -2 156.38 25.7
-16 2 -2 117.29 30.3
-2 2 -16 110.89 28.9
-4 -2 -16 220.28 35.8
4 2 -16 182.18 35.1
-16 4 2 225.78 37.5
2 16 -4 182.98 32.5
2 16 -4 135.09 202.18
16 4 -2 262.87 33.6
-16 -4 -2 211.88 34
-4 2 -16 285.67 38.4
-2 16 -4 279.47 36.5
4 -2 -16 222.48 34.2
-16 4 -2 297.57 40.8
-16 6 2 229.18 39.3
6 2 -16 181.48 35.2
2 16 -6 271.97 198.88
2 16 -6 189.18 34.2
-6 -2 -16 217.98 35.3
16 6 -2 235.68 32.8
-16 -6 -2 218.38 33
6 -2 -16 239.48 34.3
-6 2 -16 271.37 40
-2 16 -6 250.47 38.4
-16 6 -2 221.68 39.8
8 2 -16 9.1 21.9
-8 -2 -16 -28 24.1
2 16 -8 41.5 25.3
16 8 -2 25.5 18.2
-16 8 2 17.2 26.2
-2 16 -8 41.8 28.8
8 -2 -16 32.9 20.8
-8 2 -16 41.3 28.4
-16 8 -2 8.8 26.3
-10 -2 -16 265.97 45.1
-16 10 2 208.58 40.1
10 2 -16 220.18 36.2
2 16 -10 187.78 38.1
16 10 -2 206.98 31.5
-16 10 -2 196.88 40.4
-2 16 -10 242.28 43.1
-2 16 -10 26.7 168.38
10 -2 -16 168.58 32.5
-10 2 -16 264.77 40.9
2 16 -12 472.55 66.89
12 2 -16 490.45 63.49
-16 12 2 411.66 65.49
-2 16 -12 647.64 75.29
12 -2 -16 539.65 61.89
-12 2 -16 757.82 71.09
-16 12 -2 678.23 71.59
14 2 -16 210.88 38.7
2 16 -14 217.58 46.6
-16 14 2 262.87 47.1
14 -2 -16 273.17 39.1
-14 2 -16 293.17 45.9
-2 16 -14 235.28 47.8
-16 14 -2 238.68 45.3
16 0 -4 52.19 20.6
0 4 -16 77.39 28.6
-16 0 -4 89.49 27.7
-4 16 0 74.49 24.4
0 -4 -16 20.4 20.5
-16 -2 -4 230.18 36
2 4 -16 201.68 36.8
-2 -4 -16 198.88 31.7
16 2 -4 214.38 32.5
-2 4 -16 240.48 38
2 -4 -16 211.98 31.5
-16 2 -4 314.07 40.1
-4 16 -2 283.17 38.2
16 -2 -4 199.68 33.6
-16 -4 -4 1086.39 101.29
4 4 -16 994.2 102.69
16 4 -4 968.5 99.59
-4 4 -16 1138.59 104.89
16 -4 -4 1060.89 100.39
-16 4 -4 1094.49 104.59
4 -4 -16 1064.99 99.79
-4 16 -4 1099.49 104.19
6 4 -16 991.1 100.09
4 16 -6 1140.89 98.49
16 6 -4 962.5 96.49
-16 6 4 1074.99 101.89
6 -4 -16 1074.59 97.19
-6 4 -16 908.61 102.19
-4 16 -6 921.11 101.49
16 -6 -4 1094.09 98.39
-16 6 -4 1019.6 102.89
-16 8 4 503.45 59.09
4 16 -8 481.85 56.49
16 8 -4 445.96 51.79
8 4 -16 374.16 53.49
-8 4 -16 491.15 58.79
-4 16 -8 336.27 189.08
-4 16 -8 520.25 62.39
-16 8 -4 479.25 61.29
8 -4 -16 477.25 53.49
16 10 -4 54.89 19.3
10 4 -16 54.19 24.9
-16 10 4 23.5 27
4 16 -10 20.7 25.9
-10 4 -16 -27.9 28.2
10 -4 -16 17.6 20.3
-16 10 -4 22.9 29
-4 16 -10 43.3 31.1
-4 16 -10 -179.88 160.18
12 4 -16 49.2 24.4
-16 12 4 34.9 30
4 16 -12 25.2 27.6
-4 16 -12 -50.99 161.18
12 -4 -16 9.8 20.8
-4 16 -12 32.4 33.5
-12 4 -16 42.6 31.2
-16 12 -4 28.1 29.5
-16 14 4 -2.2 30.3
14 4 -16 25.2 24.6
4 16 -14 -1.5 29.6
14 -4 -16 6.4 22.7
-14 4 -16 20.5 32.6
-16 14 -4 30.8 31.7
-4 16 -14 10 33.8
-6 16 0 21.2 24.1
-16 0 -6 -5.7 25.3
0 6 -16 -29.2 25
16 0 -6 4.6 17
-16 -2 -6 186.98 34.9
16 2 -6 193.88 30.7
2 6 -16 190.48 35.8
-6 16 2 225.88 34.4
6 16 -2 -44.9 210.78
16 -2 -6 201.98 32.1
-2 6 -16 223.98 38.4
2 -6 -16 187.38 28.4
-6 16 -2 214.78 36.3
-16 2 -6 229.48 36.8
4 6 -16 1165.18 102.29
16 4 -6 981.5 97.79
-16 -4 -6 1177.38 99.59
6 16 -4 961.6 275.07
4 -6 -16 1008.1 96.09
-6 16 -4 923.91 101.79
16 -4 -6 985.8 98.29
-4 6 -16 1012 103.29
-16 4 -6 996.6 102.59
6 16 -6 1109.09 107.39
6 6 -16 1164.88 110.79
16 6 -6 1132.39 107.69
6 -6 -16 1049.59 105.69
-6 16 -6 1120.49 112.69
-6 6 -16 1095.59 112.99
16 -6 -6 1334.67 108.49
-16 6 -6 1132.89 112.89
16 8 -6 833.62 83.59
-16 8 6 819.92 88.29
8 6 -16 750.42 86.79
6 16 -8 970 85.69
-8 6 -16 761.42 90.49
8 -6 -16 802.82 82.19
-16 8 -6 871.91 90.89
16 -8 -6 874.71 84.29
-6 16 -8 952 91.29
10 6 -16 141.89 32.1
-16 10 6 104.99 35.6
6 16 -10 130.59 32
16 10 -6 206.38 31.3
-16 10 -6 164.48 38.6
10 -6 -16 212.08 30
-6 16 -10 59.69 169.48
-10 6 -16 77.49 36.1
-6 16 -10 105.99 37
6 16 -12 30 27.4
12 6 -16 23.8 23.9
16 12 -6 21.3 21.5
-16 12 6 13.3 29
12 -6 -16 55.09 22.5
-6 16 -12 3.5 32
-16 12 -6 45.8 31.9
-12 6 -16 -19.8 31.5
-6 16 -12 -85.99 169.88
6 16 -14 6.8 29.2
14 6 -16 31.1 23.4
-16 14 6 27.4 32.6
-16 14 -6 47.6 34
14 -6 -16 60.19 24.6
-14 6 -16 47.8 35.9
-6 16 -14 43.5 35.2
16 0 -8 32.7 19.7
-8 16 0 76.09 27.4
-16 0 -8 9 25.4
0 8 -16 63.49 27.5
-16 -2 -8 14.9 23.5
8 16 -2 -52.99 206.18
2 8 -16 29.3 27
16 2 -8 14.2 18.3
-8 16 2 16.4 25.5
-8 16 -2 50.99 26.9
16 -2 -8 -5 17.5
-2 8 -16 19.3 28.1
-16 2 -8 -6.7 24.6
-16 -4 -8 492.65 58.79
16 4 -8 493.55 53.29
4 8 -16 400.76 54.99
-8 16 4 464.25 57.39
16 -4 -8 388.66 52.59
-8 16 -4 410.56 56.69
-4 8 -16 445.66 58.89
-16 4 -8 488.95 59.69
4 -8 -16 439.56 47.2
-8 16 6 760.22 93.79
6 8 -16 960.4 86.39
16 6 -8 790.52 81.59
-8 16 -6 826.22 88.49
16 -6 -8 794.52 81.79
-6 8 -16 929.91 89.99
-16 6 -8 772.62 87.09
6 -8 -16 739.63 78.09
8 16 -8 621.44 70.39
16 8 -8 698.63 69.19
8 8 -16 549.25 71.99
-8 16 -8 666.03 77.79
-16 8 -8 654.23 76.49
-8 8 -16 518.15 74.39
16 -8 -8 751.82 68.39
8 -8 -16 676.53 66.89
10 8 -16 118.09 33.1
8 16 -10 132.19 32.3
-16 10 8 159.98 36.5
16 10 -8 134.89 30.3
-8 16 -10 162.98 38.5
-10 8 -16 170.88 41.7
-16 10 -8 186.68 40.4
10 -8 -16 232.38 31.3
-16 12 8 -14.9 28.7
12 8 -16 12.6 24.4
16 12 -8 37.2 22.5
8 16 -12 29.5 28.6
-12 8 -16 32.8 33.6
-16 12 -8 -3.4 32
12 -8 -16 85.29 24.1
-8 16 -12 61.59 33.3
-8 16 -12 -20.2 182.28
-16 14 8 94.59 33.4
8 16 -14 1 30.5
14 8 -16 9.8 23.8
-16 14 -8 12.1 32.6
-8 16 -14 49.99 37.2
-14 8 -16 -0.6 35.1
14 -8 -16 39.2 24.9
-16 0 -10 514.55 66.29
16 0 -10 594.84 60.59
-10 16 0 508.25 66.89
0 10 -16 505.35 66.79
10 16 0 530.65 231.68
-10 16 2 221.28 38.9
2 10 -16 231.58 39.4
-16 -2 -10 222.48 36.4
16 2 -10 244.08 34.7
10 16 2 39.6 189.78
-16 2 -10 147.39 38.6
-10 16 -2 193.68 39.4
16 -2 -10 199.78 32.9
-2 10 -16 168.98 41.2
-10 16 4 -24.4 26.1
4 10 -16 43.3 28.2
16 4 -10 32.8 19.7
16 -4 -10 42.4 20.8
-10 16 -4 15 28.2
-4 10 -16 8.1 31.7
10 16 4 113.69 196.48
-16 4 -10 59.69 30.7
6 10 -16 162.28 35.4
-10 16 6 184.78 36.5
16 6 -10 203.28 31.8
16 -6 -10 162.68 31.1
-16 6 -10 167.08 39.7
-10 16 -6 123.19 36.6
-6 10 -16 175.08 40
10 16 -8 123.89 34.1
8 10 -16 196.48 37.3
16 8 -10 193.18 32.3
-16 8 -10 218.98 43.4
-10 16 -8 189.18 41.5
16 -8 -10 103.59 28.4
-8 10 -16 172.18 41.1
10 10 -16 37.8 26.2
-16 10 10 -12.8 27.7
10 16 -10 34 24.4
16 10 -10 41 23.9
-10 10 -16 33.4 33.1
-16 10 -10 -19.9 32.6
16 -10 -10 36.8 21.5
-10 16 -10 56.29 33.3
10 -10 -16 128.69 25
10 16 -12 151.28 35.1
-16 12 10 170.18 39
16 12 -10 188.28 32.1
12 10 -16 146.29 33.6
-10 16 -12 97.39 40.1
12 -10 -16 174.18 31.6
-12 10 -16 115.09 41.1
-16 12 -10 146.49 42.4
14 10 -16 17.1 26
16 -14 10 54.99 18.6
-16 14 10 20.2 33.1
10 16 -14 18.2 29.4
-14 -10 -16 38.1 9
-10 -16 -14 38.2 8.8
-16 14 -10 17.3 36.1
-10 16 -14 17.6 35.3
14 -10 -16 30 24.6
-14 10 -16 48.2 38.4
0 12 -16 787.02 83.09
-16 0 -12 600.54 80.59
-12 16 0 734.63 81.49
16 0 -12 735.93 75.89
2 12 -16 527.45 68.39
-12 16 2 521.35 65.59
16 2 -12 536.35 61.79
-12 16 -2 649.83 70.29
16 -2 -12 462.05 61.69
-2 12 -16 641.74 72.89
-16 2 -12 576.74 70.89
-12 16 4 -9.9 28
4 12 -16 33.9 30.2
16 4 -12 16.5 20.4
-16 4 -12 35.1 31.7
-4 12 -16 35 33.8
-12 16 -4 25.5 29.6
16 -4 -12 10.5 21.9
16 6 -12 25.7 19.2
-12 16 6 15.6 28.1
6 12 -16 3.2 25.4
16 -6 -12 -6.6 19.8
-6 12 -16 4.6 33
-12 16 -6 -0.8 29.2
-16 6 -12 25.7 31.5
8 12 -16 15.4 29.7
16 8 -12 5.1 22.4
-12 16 8 -8.4 30.1
-12 16 -8 46.8 31.5
16 -8 -12 -6.4 21.6
-8 12 -16 22.6 34.6
-16 8 -12 34.9 32.5
10 12 -16 182.78 37.2
16 10 -12 221.98 35.2
12 16 -10 117.79 40.6
-12 16 -10 146.99 41.1
16 -10 -12 190.58 32.2
-16 10 -12 177.68 45.1
-10 12 -16 146.49 43.6
16 12 -12 183.68 37
-16 12 12 217.18 44.8
12 12 -16 264.77 42.2
12 16 -12 210.68 38.7
-12 12 -16 257.47 49.2
-12 16 -12 191.78 48.5
-16 12 -12 293.97 52.29
-16 14 12 62.29 37.1
-14 -12 -16 106.49 11.9
14 12 -16 61.39 29.9
-16 -14 -12 74.39 10.9
16 -14 12 175.58 143.69
16 14 -12 79.29 29.8
14 -12 16 75.49 15.4
-12 -16 -14 62.79 10.8
12 -16 14 58.49 16.1
16 -14 12 74.89 15.9
12 16 -14 137.89 34.8
-12 16 -14 82.59 41
-16 14 -12 48.7 41.8
-14 12 -16 79.59 40.4
0 14 -16 907.61 91.19
16 0 -14 805.42 83.89
-16 0 -14 744.03 88.59
-14 16 0 744.83 89.19
-14 16 2 255.67 46.6
16 2 -14 306.17 42.2
2 14 -16 231.48 47.3
-2 14 -16 200.98 47.8
16 -2 -14 295.97 41.5
-16 2 -14 284.47 47.6
-14 16 -2 240.08 46.5
16 4 -14 8.9 21.1
4 14 -16 -25.2 29.8
-14 16 4 -21.8 29.9
16 -4 -14 31 22.6
-4 14 -16 49.3 35.3
-16 4 -14 28.3 33.1
-14 16 -4 17.5 30.8
16 6 -14 33.3 22.1
6 14 -16 42.2 32
-14 16 6 60.89 31
-14 16 -6 82.99 34.4
16 -6 -14 59.99 25
-16 6 -14 30 36.4
-6 14 -16 109.39 38.4
16 8 -14 1.9 23.4
-14 16 8 25.4 34.1
8 14 -16 -0.1 30.3
-8 14 -16 42.5 35.2
16 -8 -14 -54.49 21.1
-16 8 -14 -35.4 33.4
-14 16 -8 50.49 33.7
16 10 -14 16.1 24.6
-16 -10 -14 19.2 7.9
10 14 -16 8.4 29.1
-10 -14 -16 26.5 8.3
16 -10 -14 11.1 24.6
-10 14 -16 33.1 38
-14 16 -10 32.9 37.6
-16 10 -14 53.19 38.3
-12 -14 -16 84.59 11.4
12 -14 16 78.59 23.7
12 14 -16 137.49 36.3
14 -16 12 -94.39 153.48
14 -16 12 63.19 15.4
-14 -16 -12 82.29 11.3
16 -12 14 71.59 15.3
16 12 -14 49.9 28.9
-16 12 14 57.39 37.3
-16 -12 -14 99.69 12
-14 16 -12 26.4 41
-16 12 -14 123.89 43.7
-12 14 -16 65.29 41.6
16 -12 -14 76.99 27.8
-16 -14 -14 14.5 7.4
14 16 -14 62.69 31.7
-14 -16 -14 17.2 7.5
-14 -14 -16 25.3 7.7
16 -14 14 26.9 12.4
16 14 -14 20.4 28.7
14 -16 14 39.2 13.3
14 -14 16 31.6 12.5
14 14 -16 26.6 30
-16 14 -14 36.5 44.6
-14 14 -16 -5 41.7
-14 16 -14 -13.4 42.7
-16 16 0 146.99 41
0 16 -16 93.39 41.8
16 0 -16 193.88 36.2
16 2 -16 7.9 25.4
2 16 -16 23.4 34
-16 16 2 26.4 34.2
-2 16 -16 -4.4 34.9
-16 16 -2 -13.7 33.9
16 -2 -16 33.1 25.6
-16 2 -16 41.5 35.2
16 4 -16 181.78 36.3
4 16 -16 187.38 46.6
-16 16 4 140.49 43
-4 16 -16 216.68 45.9
-16 16 -4 191.08 43.6
16 -4 -16 250.17 38.8
-16 4 -16 200.88 46.3
-16 -6 -16 242.48 26.9
6 16 -16 306.97 50.89
16 6 -16 273.67 43.3
-16 16 6 281.67 48.8
16 -16 6 241.18 30.2
-16 6 -16 241.18 50.79
-6 16 -16 210.88 50.69
16 -6 -16 291.07 41.8
-16 16 -6 277.37 49.6
-16 -16 -8 132.09 16
-16 -8 -16 154.88 16.5
8 16 -16 156.28 40.6
16 -8 16 143.49 19.7
16 8 -16 99.99 30.7
-16 16 8 149.29 42.1
-8 -16 -16 129.89 15.5
16 -16 8 138.09 19.1
-16 8 -16 97.69 17.8
-8 16 -16 141.09 46.3
16 -8 -16 129.29 33.7
-16 8 -16 89.19 43.4
-16 16 -8 147.69 43.1
-16 -16 -10 21.1 7.4
-16 -10 -16 47.2 8.8
16 -10 16 14.2 21.6
16 10 -16 15.3 26.5
16 -16 10 6 12.7
-10 -16 -16 24 8.2
10 16 -16 78.79 34.8
-10 16 -16 54.69 44.1
-16 16 -10 -44.9 38.8
16 -10 -16 42.8 27.2
-16 10 -16 16.1 12.5
-16 10 -16 -39.1 39.7
-16 -16 -12 1.7 6.3
-16 -12 -16 5.7 7.2
16 -12 16 11.3 12.2
-16 12 16 -48.1 38.3
12 16 -16 33.3 33
-12 -16 -16 11.9 7
16 -16 12 -36.3 11.8
12 -16 16 2.3 12.1
16 12 -16 -37.5 26
-12 16 -16 -43.5 42
-16 12 -16 13.9 42.6
-16 16 -12 18.3 43.9
-16 -16 -14 9.5 6.9
-16 -14 -16 2.5 7
-14 -16 -16 3.8 6.8
14 -16 16 3 12.2
14 16 -16 -11.7 30.5
16 -16 14 16.6 12.4
16 -14 16 -4.7 12.4
16 14 -16 -33.8 28.7
-16 -16 -16 30 8.5
16 -16 16 33 13.6
-17 -1 -1 837.02 84.19
17 1 -1 826.52 81.79
-1 -1 -17 891.51 84.89
-17 1 1 814.42 84.59
1 1 -17 910.31 85.19
-17 1 -1 821.92 85.69
1 -1 -17 867.01 84.39
-1 1 -17 836.82 84.99
17 -1 -1 785.92 81.89
-17 -1 1 743.53 83.59
-17 3 1 27.2 27.3
3 1 -17 53.29 24.4
17 3 -1 39.2 18.7
-3 -1 -17 15.3 25.7
-17 -3 -1 8 22.8
-1 17 -3 115.39 27.9
-3 1 -17 121.59 29.4
-17 3 -1 62.79 29.4
3 -1 -17 12.2 23
1 17 -5 307.87 44
17 5 -1 345.47 41.6
5 1 -17 295.57 44.3
-5 -1 -17 418.36 49.7
-17 -5 -1 370.76 43.4
-17 5 1 343.07 47.8
-1 17 -5 334.67 46.5
-17 5 -1 394.56 49.5
-5 1 -17 295.47 45.8
5 -1 -17 330.57 43.8
-7 -1 -17 119.89 31.3
-17 -7 -1 93.09 26.2
17 7 -1 129.79 24.1
1 17 -7 88.79 29.5
-17 7 1 131.89 33.3
7 1 -17 119.19 28.1
-17 7 -1 84.69 32.6
7 -1 -17 136.29 28.4
-1 17 -7 52.19 29.4
-7 1 -17 120.59 32
1 17 -9 51.89 196.48
1 17 -9 79.99 29.8
-17 9 1 5.1 29.4
-9 -1 -17 64.79 31.7
17 9 -1 116.39 23
9 1 -17 80.69 26.8
9 -1 -17 83.59 24.8
-17 9 -1 36.5 30.6
-9 1 -17 48.3 32.9
-1 17 -9 94.79 196.28
-1 17 -9 86.69 31.8
11 1 -17 413.66 49.5
1 17 -11 336.47 50.39
-17 11 1 355.56 53.59
-11 -1 -17 421.06 66.89
-17 11 -1 365.26 52.59
-11 1 -17 411.36 53.69
11 -1 -17 298.77 45.3
-1 17 -11 332.07 53.19
-1 17 -11 52.49 183.38
1 17 -13 417.36 58.19
13 1 -17 364.26 51.99
-17 13 1 396.06 58.09
-13 1 -17 454.25 59.09
13 -1 -17 430.16 52.69
-17 13 -1 404.76 57.29
-1 17 -13 393.06 60.59
-17 15 1 51.29 36.3
15 1 -17 116.89 29.2
1 17 -15 17.3 36
-1 17 -15 84.59 37.5
-17 15 -1 67.69 36.8
15 -1 -17 82.49 28.7
1 3 -17 45.1 26.3
-1 -3 -17 31.6 23.1
-17 -1 -3 16.3 25.2
17 1 -3 25.7 19.7
17 -1 -3 13.2 20.6
-17 1 -3 130.19 30.2
-1 3 -17 145.09 30.9
-3 17 -1 92.39 27.1
1 -3 -17 14.7 21.8
-17 3 3 212.98 37.1
3 17 -3 153.58 214.78
-3 -3 -17 269.47 36.2
17 3 -3 227.08 33.2
3 3 -17 235.98 36.9
-17 -3 -3 249.88 37.1
-3 3 -17 238.08 38.7
3 -3 -17 217.68 33
-17 3 -3 223.08 39.2
-3 17 -3 175.08 35.8
17 -3 -3 197.08 33.1
3 17 -5 1003.6 101.79
-17 -5 -3 1054.59 101.69
5 3 -17 1050.39 103.89
-5 -3 -17 1171.78 101.79
-17 5 3 1196.58 106.09
17 5 -3 985.2 100.49
3 17 -5 1269.77 277.77
5 -3 -17 1011.1 100.99
-17 5 -3 1016.5 106.49
-3 17 -5 1088.29 104.89
-5 3 -17 1024.9 104.79
7 3 -17 606.34 70.89
3 17 -7 536.15 70.79
-17 7 3 628.14 74.19
17 7 -3 623.24 66.29
3 17 -7 681.03 239.98
-17 7 -3 706.83 76.59
-7 3 -17 714.13 75.89
-3 17 -7 716.73 75.69
7 -3 -17 653.03 67.79
17 9 -3 121.49 25.4
-17 9 3 126.59 33.8
3 17 -9 19.6 209.08
9 3 -17 127.59 29.9
3 17 -9 49.99 31
-9 3 -17 188.68 38.8
-3 17 -9 160.08 36.9
-17 9 -3 134.39 35.7
9 -3 -17 110.59 27.9
-3 17 -9 45.4 184.18
3 17 -11 29 28.7
11 3 -17 5.5 23.7
-17 11 3 -15.9 28.6
-17 11 -3 46.3 31
-11 3 -17 11.4 32.7
11 -3 -17 37.4 21.6
-3 17 -11 -42.4 31.4
-17 13 3 75.39 32.7
13 3 -17 40.3 26.3
3 17 -13 11.3 32.6
13 -3 -17 40.9 25.3
-17 13 -3 70.59 33.5
-13 3 -17 100.09 34.5
-3 17 -13 48.1 35.7
15 3 -17 75.69 27.6
3 17 -15 23.4 34.7
-17 15 3 20.9 34.5
-17 15 -3 89.09 38.7
15 -3 -17 38.5 27.8
-15 3 -17 91.29 37.7
-3 17 -15 76.29 37.9
-5 17 1 326.47 42.5
-1 -5 -17 288.17 38.3
17 1 -5 348.57 42
1 5 -17 281.07 44.3
-17 -1 -5 346.07 43.5
17 -1 -5 311.07 40.8
-1 5 -17 325.67 47.1
-17 1 -5 297.97 44
1 -5 -17 340.17 40.5
-5 17 -1 284.27 42.9
5 17 -3 1153.48 284.27
-17 -3 -5 1166.28 101.29
17 3 -5 1025.5 99.39
3 5 -17 1069.89 103.29
3 -5 -17 1003.8 97.99
-5 17 -3 975.6 103.49
17 -3 -5 1079.29 100.39
-3 5 -17 878.91 102.99
-17 3 -5 1122.39 104.39
5 5 -17 2184.28 187.18
17 5 -5 2004.9 183.98
-17 -5 -5 2242.68 184.48
5 -5 -17 2028.5 183.48
-5 5 -17 1940.11 187.68
17 -5 -5 2051.09 184.08
-5 17 -5 2031 187.58
-17 5 -5 1920.11 187.78
5 17 -7 1610.34 161.38
-17 7 5 2002.2 165.98
17 7 -5 1795.02 161.08
7 5 -17 1762.32 164.28
-17 7 -5 1771.42 166.08
-7 5 -17 1778.02 166.48
-5 17 -7 1901.21 166.08
7 -5 -17 1668.23 160.48
17 9 -5 661.83 68.39
-17 9 5 662.73 76.19
9 5 -17 629.64 72.89
5 17 -9 584.44 71.59
-17 9 -5 654.53 78.09
9 -5 -17 717.73 68.89
-9 5 -17 642.84 79.29
-5 17 -9 234.98 292.87
-5 17 -9 695.73 78.39
17 11 -5 174.28 31.2
-17 11 5 214.18 40.2
5 17 -11 132.29 36.8
11 5 -17 164.38 34.2
-17 11 -5 168.58 41
11 -5 -17 193.48 32.2
-5 17 -11 215.78 43.1
-11 5 -17 163.88 42.1
-17 13 5 66.19 33.2
13 5 -17 17.8 25.9
5 17 -13 55.39 32.1
-13 5 -17 41.1 35.1
-17 13 -5 67.99 33.8
-5 17 -13 80.39 39.4
13 -5 -17 94.59 27.5
5 17 -15 181.58 48.7
15 5 -17 291.97 45.6
-17 15 5 310.07 51.29
15 -5 -17 358.66 45.7
-5 17 -15 341.87 55.49
-15 5 -17 249.78 51.09
-17 15 -5 220.68 49.5
-17 -1 -7 102.19 29.1
17 1 -7 58.99 22.1
-7 17 1 117.29 29.7
1 7 -17 22.8 29.9
-7 17 -1 93.99 30.5
-17 1 -7 102.79 30.5
-1 7 -17 117.69 32.8
17 -1 -7 87.99 23.8
-7 17 3 671.23 69.49
3 7 -17 486.25 69.79
17 3 -7 630.74 64.69
-17 -3 -7 617.24 66.79
-7 17 -3 572.34 68.59
-3 7 -17 608.44 71.69
17 -3 -7 560.04 65.29
-17 3 -7 679.43 71.29
3 -7 -17 610.84 61.59
5 7 -17 1875.31 164.78
17 5 -7 1791.92 161.28
5 -7 -17 1586.74 158.68
-7 17 -5 1741.63 165.68
-17 5 -7 1938.01 166.08
-5 7 -17 1795.92 166.38
17 -5 -7 1758.52 161.48
17 7 -7 1580.84 149.29
7 7 -17 1788.52 153.58
7 -7 -17 1547.15 147.39
-7 17 -7 1666.73 154.68
-7 7 -17 1647.84 155.98
-17 7 -7 1529.05 154.48
17 -7 -7 1681.13 149.29
7 17 -9 783.12 84.19
-17 9 7 835.22 87.99
17 9 -7 825.02 82.89
9 7 -17 842.42 86.39
9 -7 -17 856.91 81.69
-17 9 -7 801.02 89.89
-7 17 -9 824.22 89.89
-9 7 -17 679.53 90.29
7 17 -11 234.08 40
11 7 -17 225.48 40.3
17 11 -7 294.17 38.9
-17 11 7 140.39 41.2
-11 7 -17 159.58 45.8
-7 17 -11 207.68 44.4
-17 11 -7 216.08 45.1
11 -7 -17 299.57 38.5
13 7 -17 86.89 30.3
-17 13 7 133.09 37.8
7 17 -13 92.99 34.4
-7 17 -13 101.69 39.9
-17 13 -7 66.89 37.6
13 -7 -17 141.89 30
-13 7 -17 76.99 39.1
17 -15 7 173.28 23.1
-17 15 7 204.88 46.6
-7 -17 -15 196.38 21.3
-15 -7 -17 175.68 20.8
7 17 -15 215.78 43.4
15 7 -17 202.58 37.7
-17 15 -7 235.68 45.7
-7 17 -15 239.08 51.29
15 -7 -17 275.77 40
-15 7 -17 228.48 48.5
1 9 -17 62.79 31.6
-17 -1 -9 66.89 27.5
-9 17 1 46.2 29.4
17 1 -9 60.69 22.1
9 17 1 -133.39 200.88
-1 9 -17 48.5 32.1
-17 1 -9 60.59 29.6
-9 17 -1 12.1 29.5
17 -1 -9 55.99 23
17 3 -9 143.79 27.3
3 9 -17 73.59 32.2
-9 17 3 145.29 33.1
-17 -3 -9 91.09 33.7
-3 9 -17 105.19 35.4
-9 17 -3 102.09 34.1
17 -3 -9 35.1 24.1
-17 3 -9 135.39 33.7
-9 17 5 637.44 85.49
17 5 -9 739.43 70.49
5 9 -17 671.43 75.29
-17 5 -9 718.03 77.59
17 -5 -9 553.64 69.19
-5 9 -17 664.93 78.19
-9 17 -5 556.54 76.39
7 9 -17 784.32 87.09
17 7 -9 821.52 83.49
-17 7 -9 826.82 91.39
-9 17 -7 853.41 90.49
-7 9 -17 782.32 91.19
17 -7 -9 807.92 82.79
17 9 -9 385.16 52.69
9 17 -9 416.86 68.29
9 9 -17 425.36 56.09
-17 9 9 415.36 56.49
17 -9 -9 458.15 52.99
9 -9 -17 514.55 52.59
-17 9 -9 442.16 61.79
-9 17 -9 374.86 58.59
-9 9 -17 466.45 62.39
17 11 -9 58.19 25.9
9 17 -11 33.6 27.6
-17 11 9 54.99 33.7
11 9 -17 42.8 28
11 -9 -17 114.69 27.6
-9 17 -11 46.3 34.9
-11 9 -17 2.5 36
-17 11 -9 78.79 37.6
13 9 -17 28.3 27
-17 13 9 -18.1 32.3
17 13 -9 12.7 30.3
9 17 -13 6.4 28.3
13 -9 -17 -1.4 22.2
-17 13 -9 -40.6 34.2
-9 17 -13 -16 34.1
-13 9 -17 4.4 36.7
17 -15 9 65.59 15.5
-9 -17 -15 51.79 10.2
-17 15 9 1.5 35.2
15 9 -17 46.3 29.1
15 -9 17 56.89 14.2
-17 -15 -9 62.49 9.6
9 17 -15 117.09 36.9
-15 -9 -17 60.09 10
-9 17 -15 56.29 43.2
-17 15 -9 69.09 38
-15 9 -17 24.9 40.4
-15 9 -17 49.4 13.2
15 -9 -17 30.7 28.5
-17 -1 -11 329.37 47.7
17 1 -11 353.36 45.5
-11 17 1 265.07 48.3
1 11 -17 294.47 50.49
11 17 -1 141.29 246.38
-17 1 -11 394.76 51.09
17 -1 -11 325.07 43.5
-11 17 -1 324.27 49.7
-1 11 -17 353.96 52.99
11 17 1 145.59 227.18
17 3 -11 31.3 22.3
3 11 -17 -32.3 26.8
-11 17 3 39.9 30.3
-11 17 -3 18.2 30.9
-3 11 -17 -2 32.5
-17 3 -11 44.8 30.6
17 -3 -11 -4.9 19.7
5 11 -17 118.69 36
-11 17 5 168.78 38.1
17 5 -11 192.48 31.8
-5 11 -17 156.78 41.5
-11 17 -5 145.79 38.8
-17 5 -11 239.68 42.4
17 -5 -11 144.69 31.6
7 11 -17 206.58 40.2
17 7 -11 228.58 36.5
-7 11 -17 178.28 45.6
-11 17 -7 150.78 41.2
-17 7 -11 256.07 46.5
17 -7 -11 226.88 36.5
9 11 -17 -14.5 26.7
17 9 -11 102.09 26.5
17 -9 -11 69.49 23.4
-9 11 -17 43.7 36.1
-11 17 -9 84.79 33.9
-17 9 -11 34.7 36.7
17 11 -11 91.69 29.2
11 11 -17 31.1 29.6
-17 11 11 63.69 33.6
-17 11 -11 93.09 38.5
-11 11 -17 35.8 37.8
-11 17 -11 62.19 37.8
17 13 -11 20.2 25.1
-13 -11 -17 56.29 10.3
13 11 -17 74.49 31.3
-11 -17 -13 60.89 10
-17 13 11 13.5 37.2
11 17 -13 51.69 31.1
-17 -13 -11 66.89 10
17 -13 11 69.99 14.8
-13 11 -17 84.09 41.6
-17 13 -11 56.39 39.2
-11 17 -13 101.99 39.7
-15 -11 -17 40.7 8.7
-17 15 11 19.5 39.1
-17 -15 -11 11 6.8
15 11 -17 5 27.7
15 -11 17 13.3 12.8
11 17 -15 66.79 34
17 -15 11 -10.4 12.1
11 -17 15 -3 13.1
-11 -17 -15 -2.7 7.1
-15 11 -17 -17.8 40.1
-17 15 -11 -9.7 40.1
-11 17 -15 -35.9 40.3
-15 11 -17 2 12.3
15 -11 -17 4 42.6
17 1 -13 391.16 51.89
1 13 -17 449.95 60.79
-13 17 1 324.07 55.39
-17 1 -13 353.06 56.29
-13 17 -1 413.96 56.89
17 -1 -13 386.76 50.49
-1 13 -17 455.65 58.79
3 13 -17 8.7 30.5
-13 17 3 4 30.5
17 3 -13 35.9 22.9
-17 3 -13 35.9 32.9
-3 13 -17 55.29 35.9
-13 17 -3 29.8 32.7
17 -3 -13 44.6 24.6
5 13 -17 77.19 32.2
17 5 -13 95.29 26.9
-13 17 5 56.69 35.3
-5 13 -17 78.19 37.9
17 -5 -13 71.09 27.4
-13 17 -5 50.39 34.1
-17 5 -13 72.59 37
7 13 -17 93.89 34.4
17 7 -13 105.89 28.7
-13 17 7 102.39 42.3
-13 17 -7 77.79 36.2
-7 13 -17 66.39 40
17 -7 -13 66.39 28.1
-17 7 -13 100.39 39.6
9 13 -17 9.5 30.6
17 9 -13 22.1 23.8
-9 13 -17 48 37.9
-13 17 -9 -4.4 34.2
-17 9 -13 -35.5 34.6
17 -9 -13 11.9 23.2
-17 -11 -13 66.69 9.6
-11 -13 -17 59.99 9.6
17 11 -13 57.29 27.3
11 13 -17 62.19 33.1
-17 11 13 11.8 34.8
-13 -17 -11 42.3 8.7
17 -11 13 69.69 13.9
13 -17 11 60.79 15.4
-11 13 -17 63.19 40.8
17 -11 -13 45.9 25.4
-17 11 -13 13.2 39.7
-13 17 -11 41.7 39.4
-17 13 13 60.99 37.5
13 -13 17 49.8 14.2
13 -17 13 37.8 14.2
17 -13 13 34.9 13.3
-13 -17 -13 40.7 8.5
-13 -13 -17 60.99 9.4
13 13 -17 8.6 32.9
-17 -13 -13 44.2 8.8
17 13 -13 65.69 27.8
-13 13 -17 14.4 41.3
-13 17 -13 -16 39.4
-17 13 -13 70.59 41.2
-15 -13 -17 -5.4 7
17 -15 13 -13.6 11.8
13 -17 15 -9.4 12.7
-17 -15 -13 14.1 6.7
13 17 -15 10.7 42.7
15 13 -17 7.5 31
15 -13 17 -6 12.1
-13 -17 -15 -10.7 6.5
-13 17 -15 -53.59 41.7
-15 13 -17 37 45.2
-17 15 -13 -24.4 43.6
-15 17 1 90.49 37.9
17 1 -15 80.79 30.8
1 15 -17 77.39 39
-15 17 -1 115.89 39.7
-1 15 -17 100.09 37.7
17 -1 -15 89.19 29
-17 1 -15 106.79 48.7
-15 17 3 42.5 35.1
3 15 -17 46.1 35.1
17 3 -15 29 25.7
15 17 3 -285.47 313.97
-17 3 -15 18.8 36.7
-3 15 -17 53.29 36.8
-15 17 -3 -7.9 33.6
17 -3 -15 61.69 25.7
-15 17 5 179.68 45.9
17 5 -15 264.27 41.1
5 15 -17 194.08 46.8
-15 17 -5 225.08 46.5
17 -5 -15 271.37 41.5
-17 5 -15 235.08 50.79
-5 15 -17 307.77 51.59
-15 17 7 262.97 47.3
17 7 -15 209.08 37.7
7 15 -17 187.98 44.3
17 -7 15 199.78 24.7
15 -17 7 194.28 23.5
-7 -15 -17 187.38 21.1
-17 -7 -15 172.38 20.6
-17 7 -15 202.18 48.1
-7 15 -17 230.08 51.09
-15 17 -7 203.68 44.5
17 -7 -15 314.37 42
-17 7 -15 186.48 22.9
-17 -9 -15 56.89 9.5
-9 -15 -17 58.59 10.2
17 -9 15 63.69 14.9
9 15 -17 60.99 37.4
15 -17 9 50.69 14.6
17 9 -15 64.39 28.4
-15 -17 -9 53.79 9.2
15 -17 -9 60.19 12.4
-17 9 -15 30.5 42
-9 15 -17 53.89 42.9
-17 9 -15 45.4 14.1
-15 17 -9 -8.4 38.5
17 -9 -15 56.19 28.2
17 11 -15 22.2 27.4
15 -17 11 22.3 13.3
-11 -15 -17 1.6 7.4
17 -11 15 16.5 12.1
-15 -17 -11 4.1 6.5
11 15 -17 56.29 34.5
-17 -11 -15 42.3 8.4
17 -11 -15 43.7 26.8
-15 17 -11 22.7 41.1
-17 11 -15 16.6 42.3
-11 15 -17 16.4 41.4
-15 -17 -13 0.9 6.3
-17 -13 -15 0.6 7
-13 -15 -17 -4.8 6.8
17 -13 15 18.8 12.9
13 -15 17 -0.5 12.3
13 15 -17 0.9 33.5
15 -17 13 -17.3 12
17 13 -15 42.1 30.1
-13 15 -17 -138.09 42.3
-15 17 -13 -21.9 43.9
-17 13 -15 -37.8 44.7
-17 -15 -15 11.8 7.3
-15 -17 -15 13.7 7.1
-15 -15 -17 7 7.6
15 -17 15 2.3 12.7
15 -15 17 8.1 13.2
17 -15 15 7.4 12.9
-17 -1 -17 6.9 7.7
17 -17 1 -3.7 12.2
17 1 -17 -1.6 26.1
-17 17 1 -16.6 34.3
-1 -17 -17 2.7 7.2
1 17 -17 4.6 37.2
1 -17 -17 8.9 7.9
-17 17 -1 65.09 39.9
17 -17 -1 -10.8 11.6
-17 1 -17 13.2 8.1
17 -1 -17 28.8 27.3
-1 17 -17 -37.1 35.2
-17 -3 -17 129.69 16.3
17 3 -17 200.58 37.3
17 -17 3 147.49 20.2
-3 -17 -17 141.19 16.5
-17 17 3 164.88 44.8
3 17 -17 127.49 46.1
-17 17 -3 82.89 41.7
3 -17 -17 137.69 17.3
-3 17 -17 147.59 47.3
17 -17 -3 182.38 20.2
-17 3 -17 229.58 48.8
17 -3 -17 212.78 38.2
-17 3 -17 135.69 17.4
-17 -17 -5 488.95 46.3
-17 -5 -17 503.75 46.2
17 5 -17 597.34 66.69
17 -17 5 481.55 49.1
-5 -17 -17 495.05 46.5
-17 17 5 467.05 70.09
5 17 -17 649.74 74.09
-17 17 -5 531.25 71.89
5 -17 -17 482.55 46.6
-5 17 -17 533.15 71.59
17 -17 -5 515.15 48.9
-17 5 -17 572.74 73.29
17 -5 -17 628.34 66.69
-17 5 -17 489.05 47.8
-17 -17 -7 467.45 42.7
-17 -7 -17 460.25 43
17 -17 7 461.35 46.2
-7 -17 -17 470.25 43.3
17 7 -17 516.65 63.49
-17 17 7 502.75 68.49
7 17 -17 474.55 69.29
-7 17 -17 464.45 70.49
-17 7 -17 448.06 70.39
17 -17 -7 463.75 45
-17 7 -17 450.45 45.1
17 -7 -17 446.36 60.29
-17 17 -7 553.54 71.49
-17 -17 -9 188.68 21
-17 -9 -17 198.38 21.7
-9 -17 -17 208.28 22
17 -9 17 212.58 24.2
17 9 -17 219.28 41.7
9 17 -17 202.18 47.9
17 -17 9 191.18 24.2
-17 9 -17 186.18 23.8
17 -17 -9 196.38 23.2
-9 17 -17 198.68 54.09
17 -9 -17 232.48 41.1
-17 9 -17 259.27 53.59
-17 17 -9 238.98 53.69
-17 -17 -11 48.6 9
-17 -11 -17 47.8 9.7
17 11 -17 62.29 34.4
17 -11 17 37.3 14.6
17 -17 11 36.6 14.7
-11 -17 -17 53.69 10
11 17 -17 72.89 39.6
-17 17 -11 145.29 65.89
17 -11 -17 96.99 31.8
-17 11 -17 68.39 52.09
-17 11 -17 13.7 13.7
-17 -17 -13 35.2 8.2
-17 -13 -17 40.2 8.9
17 -17 13 22.8 13.2
-13 -17 -17 44.3 72.09
-13 -17 -17 23.8 8.5
13 -17 17 31.1 13.6
17 -13 17 20.8 13.7
-17 13 -17 13.2 13.7
-17 -17 -15 87.59 12
-17 -15 -17 74.09 11.8
-15 -17 -17 83.69 12
15 -17 17 87.89 16.7
17 -17 15 71.89 16.3
17 -15 17 77.39 17.1
-17 -17 -17 262.77 25.1
17 -17 17 216.68 27.9
-18 0 0 1108.89 110.09
0 0 -18 1172.18 109.99
-18 -2 0 161.18 32.3
-18 2 0 179.08 35
-2 0 -18 162.58 34.6
2 0 -18 168.28 33.4
-18 4 0 213.48 38.9
-18 -4 0 200.88 33.3
18 4 0 165.48 29.8
4 0 -18 181.38 34.9
0 18 -4 159.38 34.4
-4 0 -18 229.58 38.1
18 6 0 388.76 47
6 0 -18 465.05 52.49
0 18 -6 346.57 50.39
-18 -6 0 382.06 47.8
-18 6 0 406.56 54.89
-6 0 -18 360.06 50.49
8 0 -18 24.8 24.2
-18 8 0 11.9 30.4
0 18 -8 27.4 28.5
18 8 0 9.7 19.6
0 18 -8 -167.98 200.28
-8 0 -18 -8.9 28.7
-10 0 -18 134.09 38.2
-18 10 0 77.19 33.9
10 0 -18 155.48 31.9
0 18 -10 180.98 37.9
0 18 -10 214.48 198.88
-18 12 0 244.28 47.3
0 18 -12 365.66 52.79
12 0 -18 271.07 42.4
-18 14 0 123.59 37.8
0 18 -14 69.79 37.8
14 0 -18 92.49 28.3
16 0 -18 -3.9 25.6
-18 16 0 2.1 36.3
0 18 -16 -42 39.3
18 -16 0 -14.4 11.7
0 -18 -16 9.1 7.2
-16 0 -18 10.2 8.2
-18 0 -2 216.68 37.5
-18 0 2 176.38 35.3
0 -2 -18 204.68 35.3
18 0 -2 218.48 32.9
0 2 -18 201.48 36.2
18 2 -2 39.5 20.4
2 2 -18 35.2 26.4
-18 2 2 -8.5 26.1
-2 -2 -18 80.49 27.7
-18 -2 -2 52.99 25.4
-18 2 -2 62.49 29.9
2 -2 -18 36.4 24.9
-2 18 -2 19.3 35.4
-2 2 -18 68.59 28.7
-18 4 2 337.27 49.1
-18 -4 -2 342.97 45
-4 -2 -18 324.07 45.5
4 2 -18 277.27 45.5
18 4 -2 389.26 46.4
4 -2 -18 416.56 48.6
-4 2 -18 345.07 48.2
-2 18 -4 335.27 47.2
-18 4 -2 395.46 51.09
2 18 -6 495.25 69.59
-6 -2 -18 659.13 70.89
6 2 -18 704.73 71.89
-18 -6 -2 587.64 67.59
18 6 -2 673.43 66.39
-18 6 2 616.84 73.39
-18 6 -2 574.04 75.59
6 -2 -18 651.13 68.89
-2 18 -6 669.93 73.39
-6 2 -18 647.04 72.99
8 2 -18 143.89 32.4
2 18 -8 100.29 32.4
18 8 -2 147.29 27.6
-18 8 2 134.19 35.8
8 -2 -18 115.79 29
-18 8 -2 164.18 37.5
-2 18 -8 120.49 34.3
-8 2 -18 163.88 38
10 2 -18 -27.8 23.2
-18 10 2 4.1 29.8
2 18 -10 -11.8 28.9
-2 18 -10 136.19 184.18
-10 2 -18 13.5 34.8
-18 10 -2 22.7 32.1
-2 18 -10 -0.5 31.7
10 -2 -18 -38.5 21
-18 12 2 88.09 34.9
12 2 -18 107.89 29.4
2 18 -12 93.79 35.6
-2 18 -12 109.49 37.6
-12 2 -18 98.09 40
12 -2 -18 101.29 28.7
-18 12 -2 77.79 35.7
14 2 -18 7.9 25.3
-18 14 2 19.8 33.9
2 18 -14 45 36
14 -2 -18 31.2 26.6
-18 14 -2 12.3 33.7
-2 18 -14 72.89 40.2
-14 2 -18 25.3 37.2
16 2 -18 -1.3 26.3
-16 -2 -18 27.8 8.3
18 -16 2 14.1 12.1
2 18 -16 42.2 38.6
-18 16 2 0.4 36.2
-2 -18 -16 20.9 7.5
18 -16 -2 21.6 12.4
-18 16 -2 25.4 38.6
-16 2 -18 16.7 8.5
2 -18 -16 16.2 8
-2 18 -16 100.99 42.7
16 -2 -18 11.5 28.3
0 4 -18 253.37 39.9
18 0 -4 167.98 32.7
0 -4 -18 253.37 34.8
-18 0 -4 221.78 38.6
18 2 -4 420.26 47.9
-2 -4 -18 304.87 43
-18 -2 -4 379.66 47.3
2 4 -18 315.57 47.1
-18 2 -4 378.56 49.7
2 -4 -18 419.96 46.9
18 -2 -4 277.27 41.9
-2 4 -18 355.36 49.6
-4 18 -2 354.56 47.8
4 18 -4 1279.57 302.27
18 4 -4 1124.59 109.89
4 4 -18 1356.46 114.39
-18 -4 -4 1274.17 111.89
-18 4 4 1281.17 114.19
18 -4 -4 1143.09 109.99
-4 4 -18 1060.09 113.99
4 -4 -18 1134.79 110.19
-4 18 -4 1022.6 113.29
-18 4 -4 1044.1 114.49
4 18 -6 1722.53 324.77
6 4 -18 1619.44 148.09
-18 6 4 1731.63 149.69
18 6 -4 1520.05 144.29
-6 4 -18 1595.44 148.99
-4 18 -6 1546.25 148.69
6 -4 -18 1527.65 144.39
-18 6 -4 1474.85 149.69
4 18 -8 786.02 88.59
-18 8 4 778.72 92.29
8 4 -18 832.22 89.69
4 18 -8 854.61 266.07
18 8 -4 880.01 86.69
-18 8 -4 890.91 95.09
8 -4 -18 866.61 87.29
-8 4 -18 987.1 96.29
-4 18 -8 1023.5 95.89
10 4 -18 273.07 42.5
4 18 -10 247.68 41.3
18 10 -4 246.78 38.1
-18 10 4 261.27 45.4
10 -4 -18 263.17 38.5
-10 4 -18 250.37 48.6
-4 18 -10 247.58 46.6
-18 10 -4 309.37 49.6
-18 12 4 23.1 31.8
4 18 -12 32.5 30.7
12 4 -18 58.49 27.2
-18 12 -4 -1.8 31.2
-4 18 -12 21.6 35
-12 4 -18 -19.3 35.4
12 -4 -18 74.99 26.1
-4 18 -12 145.09 186.48
-18 14 4 133.69 38.7
14 4 -18 88.29 30.7
4 18 -14 91.99 39
-14 4 -18 91.59 41.2
-4 18 -14 109.49 40.3
-18 14 -4 122.49 40.1
14 -4 -18 83.89 29.8
-4 -18 -16 277.27 29.3
18 -16 4 311.67 32.8
4 18 -16 368.06 56.09
-18 16 4 320.87 55.89
-16 -4 -18 309.67 29.3
16 -4 18 214.38 190.68
16 4 -18 321.07 47.8
-4 18 -16 291.27 56.39
4 -18 -16 280.47 29.8
18 -16 -4 299.17 32.9
-18 16 -4 232.58 54.59
-16 4 -18 311.17 55.99
16 -4 -18 392.66 49.4
-16 4 -18 283.37 30.3
4 18 16 452.65 256.17
18 0 -6 346.57 44
-6 18 0 352.56 46.9
0 6 -18 367.26 49.99
-18 0 -6 306.87 47.7
-18 -2 -6 682.73 70.99
6 18 -2 449.06 264.17
18 2 -6 673.33 68.09
2 6 -18 571.44 72.99
-18 2 -6 701.53 73.39
2 -6 -18 660.63 66.59
18 -2 -6 642.74 68.39
-2 6 -18 595.94 73.69
-6 18 -2 543.05 73.69
18 4 -6 1519.85 144.09
-18 -4 -6 1663.93 145.69
4 6 -18 1554.54 147.59
18 -4 -6 1720.73 145.39
-4 6 -18 1527.05 149.09
-18 4 -6 1588.04 148.79
4 -6 -18 1438.56 142.19
-6 18 -4 1564.54 148.69
6 6 -18 2983.4 245.88
18 6 -6 2698.23 242.08
-18 6 6 2766.52 245.08
18 -6 -6 2723.23 242.18
-6 6 -18 2723.53 246.78
-18 6 -6 2661.23 245.98
6 -6 -18 2518.95 240.48
-6 18 -6 2789.12 246.28
18 8 -6 1550.74 142.79
-18 8 6 1562.64 147.49
8 6 -18 1571.04 146.39
-6 18 -8 1627.74 148.79
-18 8 -6 1521.35 148.49
8 -6 -18 1454.25 141.29
-8 6 -18 1548.35 149.99
-18 10 6 608.24 76.09
6 18 -10 575.84 72.39
18 10 -6 641.84 68.99
10 6 -18 667.83 73.79
-10 6 -18 661.53 80.49
10 -6 -18 681.13 69.09
-18 10 -6 607.94 79.09
-6 18 -10 622.24 79.69
6 18 -12 257.07 44.9
-18 12 6 229.88 46
12 6 -18 255.77 43.4
-6 18 -12 305.47 51.39
-12 6 -18 228.58 50.29
12 -6 -18 327.87 42.9
-18 12 -6 190.58 47.3
18 -14 6 192.08 24.7
-14 -6 -18 218.48 24.1
-6 -18 -14 216.38 22.3
6 18 -14 229.18 45.5
-18 14 6 216.08 48.4
14 6 -18 162.48 38.7
14 -6 -18 257.37 40.3
-6 18 -14 254.17 51.09
-18 14 -6 178.98 48.1
-14 6 -18 197.98 50.49
6 18 -16 530.25 69.79
18 -16 6 504.25 47
-6 -18 -16 487.15 44.1
16 6 -18 491.35 62.49
-18 16 6 504.25 68.79
-18 -16 -6 440.66 43.4
-16 -6 -18 448.46 43.8
-6 18 -16 495.65 71.99
18 -16 -6 518.55 46.2
-16 6 -18 560.14 73.99
-16 6 -18 473.55 45.6
-18 16 -6 622.34 72.79
16 -6 -18 608.44 65.19
6 -18 -16 416.36 44.3
18 0 -8 3.4 19.5
-8 18 0 23 26.9
-18 0 -8 -2.1 26
0 8 -18 -26.1 29.5
8 18 0 -214.48 217.48
-18 -2 -8 87.79 30.4
2 8 -18 119.69 35.9
-8 18 2 166.58 33.8
18 2 -8 133.69 28.6
18 -2 -8 146.19 29
-2 8 -18 162.08 37.8
-8 18 -2 97.49 35.1
-18 2 -8 97.99 34.4
4 8 -18 748.93 95.59
18 4 -8 998.7 91.89
-18 4 -8 1042.6 98.59
-4 8 -18 958.8 98.49
-8 18 -4 871.11 98.19
18 -4 -8 909.61 92.09
18 6 -8 1640.24 144.59
6 8 -18 1445.76 146.89
18 -6 -8 1601.04 143.39
-6 8 -18 1521.65 150.18
-8 18 -6 1433.86 148.69
-18 6 -8 1652.23 149.79
18 8 -8 1070.69 114.89
8 8 -18 1343.47 120.69
-18 8 8 1318.57 120.69
18 -8 -8 1261.17 114.89
-8 18 -8 1141.39 121.69
8 -8 -18 1236.28 113.69
-18 8 -8 1104.79 121.69
-8 8 -18 1171.78 123.09
18 10 -8 457.75 57.09
10 8 -18 382.96 56.69
-18 10 8 454.95 60.09
10 -8 -18 559.74 56.59
-8 18 -10 436.66 61.49
-10 8 -18 433.46 63.49
-18 10 -8 421.76 62.99
-18 12 8 108.79 37.5
8 18 -12 63.89 31.3
18 12 -8 88.39 36.5
12 8 -18 91.89 32.9
-8 18 -12 44.4 38.7
-18 12 -8 126.69 41.6
12 -8 -18 162.68 29.2
-12 8 -18 -14.6 38.4
-14 -8 -18 104.39 13.3
-18 -14 -8 141.29 14
14 8 -18 119.49 34.3
-18 14 8 115.89 40.6
18 -14 8 117.39 18
8 18 -14 138.49 37.4
-8 -18 -14 77.59 13.1
-8 18 -14 94.39 44.2
-18 14 -8 82.89 41.5
-14 8 -18 95.69 17
-14 8 -18 91.89 43.8
14 -8 -18 68.49 29.4
8 18 -16 304.17 55.89
-16 -8 -18 322.07 29.7
16 8 -18 243.88 47.6
18 -16 8 268.37 33.9
-8 -18 -16 310.77 29.9
-18 16 8 257.77 55.19
-18 -16 -8 304.77 29.3
-18 16 -8 233.48 55.69
-16 8 -18 314.97 61.39
16 -8 -18 326.37 49.1
8 -18 -16 351.36 35.5
18 -16 -8 291.37 33.3
-16 8 -18 290.17 32.7
-8 18 -16 326.67 60.59
-18 0 -10 174.28 36
18 0 -10 113.19 28.2
0 10 -18 69.19 37
10 18 0 -90.59 227.68
-10 18 0 106.49 33.8
18 2 -10 41 20.6
-10 18 2 2.9 27.7
-18 -2 -10 14.7 41.8
2 10 -18 10.9 28.7
-18 2 -10 32.8 30.6
10 18 2 -29.6 226.78
-10 18 -2 -45.3 28.8
18 -2 -10 -40 21.2
-2 10 -18 -63.59 29.7
18 4 -10 289.57 39.1
4 10 -18 223.88 43.3
-10 18 -4 217.38 44.1
-4 10 -18 175.18 45
18 -4 -10 240.58 38.3
-18 4 -10 279.27 46.4
6 10 -18 668.53 75.29
18 6 -10 661.63 69.69
-18 6 -10 604.54 78.99
-6 10 -18 600.64 78.99
18 -6 -10 591.14 69.49
-10 18 -6 617.14 75.49
8 10 -18 397.26 57.19
18 8 -10 501.35 57.09
-18 8 -10 446.66 62.19
-8 10 -18 437.06 62.89
18 -8 -10 456.65 53.39
-10 18 -8 341.87 59.39
10 10 -18 68.19 31
18 10 -10 41.4 26.8
-18 10 10 29 31.8
-10 18 -10 15.3 35.1
-18 10 -10 79.89 38.3
-10 10 -18 58.49 39.8
-18 -12 -10 6.3 7.8
-10 -18 -12 26.2 7.5
18 12 -10 -7.1 25.2
-12 -10 -18 14.9 7.9
18 -12 10 12.1 12.6
12 10 -18 -6.2 28.3
-18 12 10 -17.1 32
-10 18 -12 -14.6 34.2
-12 10 -18 -34.9 36.1
-18 12 -10 8.3 38
10 -18 14 -13.7 14.5
14 -10 18 6.1 12.4
14 10 -18 28.8 28.7
-10 -18 -14 5.4 7
18 -14 10 -10 12.3
10 18 -14 29.3 33.7
-18 14 10 18.1 37.6
-14 -10 -18 5.2 7.5
-18 -14 -10 14 7.1
-14 10 -18 21.7 12
-10 18 -14 20.9 42.8
-18 14 -10 38.7 39.3
14 -10 -18 -26.4 30.7
10 -18 -14 -3.9 9.2
-14 10 -18 17.7 42.6
10 18 -16 126.39 40.6
18 -16 10 77.09 17.5
-18 16 10 39.2 49.4
16 10 -18 167.38 39.7
16 -10 18 86.29 17.2
-16 -10 -18 109.29 13.4
-18 -16 -10 129.79 13.3
-10 -18 -16 87.09 13
-16 10 -18 56.39 47.9
-16 10 -18 84.99 16.8
-18 16 -10 86.19 48.7
-10 18 -16 97.49 50.29
16 -10 -18 95.49 35.2
12 18 0 49.5 249.18
-12 18 0 281.07 47.4
18 0 -12 305.97 42.8
-18 0 -12 263.17 45.9
0 12 -18 247.58 48.9
18 2 -12 132.79 29.7
-12 18 2 116.99 37.7
2 12 -18 93.69 36
18 -2 -12 88.09 28.2
-2 12 -18 112.59 38.9
-12 18 -2 71.89 34.9
-18 2 -12 87.99 36.7
18 4 -12 33.2 23.9
-12 18 4 42.6 33.1
4 12 -18 19.4 32.6
-18 4 -12 12.6 34.3
18 -4 -12 -2.4 23.6
-4 12 -18 -13 33.9
-12 18 -4 -2.2 33.3
6 12 -18 192.08 45
18 6 -12 308.57 43.6
-6 12 -18 256.27 50.29
-18 6 -12 300.47 49.6
-12 18 -6 202.38 47.1
18 -6 -12 267.07 41.5
18 8 -12 137.89 32.1
8 12 -18 108.59 35.5
-12 18 -8 83.49 39.4
18 -8 -12 44.6 27.9
-8 12 -18 100.19 41.4
-18 8 -12 93.29 40.4
-18 10 12 -28.5 32.1
12 -18 10 -23.7 20.2
-18 -10 -12 8.9 6.8
10 12 -18 8.5 29.6
-12 -18 -10 26.2 8.4
-10 -12 -18 15.4 7.4
18 10 -12 51.79 27.5
18 -10 12 32.5 12.2
-12 18 -10 26.5 38
-18 10 -12 -6.4 35.9
18 -10 -12 3.2 22.5
-10 12 -18 44.2 39
-18 -12 -12 75.29 10.2
-12 -12 -18 58.49 10
18 -12 12 55.99 14.1
12 12 -18 87.79 34.5
18 12 -12 50.19 29.7
-12 -18 -12 61.39 9.9
12 -18 12 26.3 14
-18 12 12 100.59 38.6
12 -18 -12 49.6 11.8
-12 12 -18 76.49 42.1
-18 12 -12 31.7 41
-12 18 -12 58.49 42.2
-18 14 12 -19.1 37.9
12 -18 14 14.8 13.1
14 -12 18 19 13.1
18 -14 12 7.4 12.5
-12 -18 -14 -1.2 7
-18 -14 -12 19.7 7.4
-14 -12 -18 -2.5 7.4
14 12 -18 22.7 32.2
-14 12 -18 8.1 12.1
-18 14 -12 -54.39 41.1
-12 18 -14 3.7 41.5
-14 12 -18 -15 44.2
12 -18 16 16.1 13.5
-16 -12 -18 23.3 8.4
-18 -16 -12 29 7.9
16 -12 18 42.6 14
18 -16 12 -0.8 12.9
-12 -18 -16 27.1 50.89
-12 -18 -16 25.2 8.3
-16 12 -18 20 13.4
14 18 0 123.19 398.16
18 0 -14 157.08 34.2
-14 18 0 105.09 39
0 14 -18 131.29 42.8
18 2 -14 17.6 25.7
-14 18 2 0.8 34.4
2 14 -18 28.5 33.1
-2 14 -18 23.3 36.7
18 -2 -14 43.7 25.1
-14 18 -2 43.8 35.1
-18 2 -14 -52.09 33.8
18 4 -14 118.69 32.1
4 14 -18 99.09 37.8
-14 18 4 71.59 37
-14 18 -4 86.49 37.8
-18 4 -14 27.1 40.4
-4 14 -18 81.39 39.6
18 -4 -14 63.29 27.4
18 -6 14 217.98 24.4
18 6 -14 233.68 38.6
-18 -6 -14 182.18 21.4
14 -18 6 205.88 24.8
6 14 -18 184.68 43.7
-14 18 -6 216.18 46.1
18 -6 -14 228.48 38.6
-18 6 -14 226.78 24.6
-6 14 -18 185.28 46.8
-18 6 -14 166.78 47.8
-18 -8 -14 97.49 12.8
14 -18 8 87.69 16.5
-14 -18 -8 87.09 12.4
18 8 -14 75.99 30.5
8 14 -18 150.68 39.6
-8 -14 -18 125.79 13.8
18 -8 14 108.59 16.8
-8 14 -18 90.89 43.9
-14 18 -8 106.09 43.5
18 -8 -14 154.18 32.1
-18 8 -14 66.19 42.8
-18 8 -14 87.79 16.5
14 -18 -8 114.09 15.7
-18 -10 -14 8.4 7
14 -18 10 0.8 12.7
-10 -14 -18 5.7 7
10 14 -18 51.79 34.2
18 -10 14 18.8 12.3
-14 -18 -10 4.6 6.5
18 10 -14 9.3 28.4
-18 10 -14 12.2 38.3
-14 18 -10 -3.1 39.3
14 -18 -10 18.1 11.1
-10 14 -18 -35.4 39.8
18 -10 -14 30.7 24.4
12 14 -18 15.6 34.1
18 12 -14 -14.7 27.3
-12 -14 -18 5.6 7.5
-18 12 14 64.19 39.5
-14 -18 -12 2.9 6.5
18 -12 14 -11.9 12.1
14 -18 12 -10.3 12.9
-18 -12 -14 9.4 7.5
-12 14 -18 -43.5 42.9
14 -18 -12 4.8 17.4
-14 18 -12 -22.8 42.9
-18 12 -14 18 41.7
-18 -14 -14 1 6.9
14 -18 14 -15.5 13
18 -14 14 -1.1 12
14 14 -18 70.59 42.2
-14 -18 -14 4.9 7.2
-14 -14 -18 -2.2 7
14 -14 18 11.2 13.4
16 -14 18 38 14.5
-18 -16 -14 32.5 8.4
14 -18 16 12.5 13.5
18 -16 14 26.6 13.8
-14 -18 -16 22.8 8.6
-16 -14 -18 32.4 8.4
-16 14 -18 36.4 13.9
18 0 -16 28.1 27.2
16 -18 0 -4.1 11.9
0 16 -18 18.5 37.6
-16 18 0 90.79 41.1
-18 0 -16 7.3 7.9
0 -16 -18 5.5 9.5
-2 -16 -18 15.9 8.1
18 2 -16 58.89 29.7
-18 -2 -16 26 8.4
2 16 -18 63.89 37.7
16 -18 2 24.7 13.3
-16 18 2 35 39
16 -18 -2 29.8 12.7
-16 18 -2 30 37.5
-18 2 -16 29.4 9.8
18 -2 -16 38 28.2
-2 16 -18 33.3 38
16 -18 4 304.97 33.8
-18 -4 -16 317.77 30.2
18 4 -16 402.56 51.89
4 16 -18 414.96 59.39
-16 18 4 371.56 58.19
-4 -16 -18 300.47 30.5
-4 16 -18 211.98 54.79
18 -4 -16 375.76 48.9
-16 18 -4 403.66 59.19
-18 4 -16 273.77 59.29
16 -18 -4 302.07 33.1
-18 4 -16 277.27 32.2
-16 18 6 493.55 73.29
-6 -16 -18 460.55 44.5
18 6 -16 501.15 62.99
-18 -6 -16 446.56 44.1
6 16 -18 606.44 71.79
-16 -18 -6 462.05 44
16 -18 6 477.05 47.2
-18 6 -16 536.65 74.19
-18 6 -16 450.55 46.3
16 -18 -6 518.05 46.6
18 -6 -16 541.95 64.59
-6 16 -18 634.84 74.29
-16 18 -6 596.34 73.99
-18 -8 -16 280.97 27.9
18 8 -16 285.27 48.1
16 -18 8 314.97 32.3
-16 -18 -8 273.27 27.5
18 -8 16 258.07 31.2
8 16 -18 337.17 56.69
-8 -16 -18 290.17 28.6
-8 16 -18 276.77 59.89
-18 8 -16 232.38 58.19
18 -8 -16 327.97 48.3
-16 18 -8 335.87 58.39
-18 8 -16 266.37 31.9
16 -18 -8 281.47 31
-18 -10 -16 153.88 15.6
18 10 -16 47.5 32.2
16 -18 10 74.79 16.8
-10 -16 -18 128.19 14.5
18 -10 16 92.19 17.2
-16 -18 -10 77.79 12.9
10 16 -18 153.58 44.4
-10 16 -18 139.99 50.59
-16 18 -10 116.39 47
16 -18 -10 113.39 16.6
-18 10 -16 103.29 17.4
18 -10 -16 179.08 34.2
-18 10 -16 76.39 49.8
18 -12 16 49.4 13.8
-18 -12 -16 17 8.1
-18 12 16 -22.7 45.4
-16 -18 -12 9.7 7.2
16 -18 12 29 13.8
-12 -16 -18 29.7 8.9
-12 -16 -18 -21.5 61.59
14 -16 18 35.3 13.8
16 -18 14 35.4 14
18 -14 16 40.3 14.2
-14 -16 -18 30.5 8.6
-16 -18 -14 38.1 8.7
-18 -14 -16 35.8 8.8
-18 -16 -16 149.99 17.3
-16 -18 -16 105.09 16
-16 -16 -18 166.48 17.6
16 -18 16 150.08 20.5
16 -16 18 122.69 20.1
18 -16 16 151.28 21
-18 0 -18 21.8 9
-18 18 0 41.7 44.1
0 -18 -18 27.2 8.1
0 18 -18 17.5 42
18 -18 0 9.1 12.7
18 0 -18 59.09 32.3
-18 -2 -18 113.19 14
18 -18 2 129.39 18.1
18 2 -18 110.89 38.4
-18 18 2 56.89 46.3
-2 -18 -18 86.29 13.1
2 18 -18 80.69 46.9
2 -18 -18 94.69 13.6
-18 18 -2 91.49 45.5
18 -18 -2 101.59 17.6
-18 2 -18 104.19 14.2
18 -2 -18 162.08 37.8
-2 18 -18 148.09 51.19
-18 -4 -18 520.35 47.2
18 -18 4 503.55 50.09
18 4 -18 491.25 66.99
-18 18 4 471.45 72.49
-4 -18 -18 490.35 47.3
4 18 -18 499.55 74.99
4 -18 -18 498.25 47.5
-18 18 -4 551.24 75.29
18 -18 -4 485.15 49.4
-18 4 -18 557.94 48.3
18 -4 -18 608.04 70.19
-4 18 -18 633.04 79.49
-18 -18 -6 790.12 74.29
-18 -6 -18 883.21 74.69
6 18 -18 880.61 104.49
18 6 -18 890.41 95.59
-6 -18 -18 846.52 74.89
-18 18 6 843.02 103.99
-18 18 -6 785.32 104.89
-6 18 -18 865.21 106.49
-18 6 -18 794.32 75.59
18 -18 -6 866.01 76.49
18 -6 -18 899.61 94.59
-18 6 -18 854.81 106.19
-18 -18 -8 452.65 45.1
-18 -8 -18 485.95 45.6
18 8 -18 505.55 62.29
18 -18 8 605.14 75.19
-8 -18 -18 488.95 76.29
-8 -18 -18 493.75 45.9
8 18 -18 579.74 76.59
18 -18 8 492.75 48.9
18 -18 -8 539.25 47.9
-18 8 -18 499.55 97.99
18 -18 -8 535.05 52.99
18 -8 -18 403.86 49.99
18 -8 -18 616.44 82.29
-18 8 -18 538.75 47.9
-18 -18 -10 147.59 18.9
-18 -10 -18 177.88 20
18 -18 10 120.89 52.59
-10 -18 -18 110.19 60.49
-10 -18 -18 160.48 19.9
18 10 -18 134.39 35.7
18 -18 10 186.88 23.1
-18 10 -18 173.78 21.8
18 -10 -18 212.28 25.1
18 -18 -10 177.18 25.8
-18 -18 -12 67.09 10.7
-18 -12 -18 60.69 11.1
18 -12 18 87.79 16.5
-12 -18 -18 75.89 63.69
-12 -18 -18 68.19 11.4
18 -18 12 68.29 16.3
-18 12 -18 72.29 15.8
-18 -18 -14 52.69 10.8
-18 -14 -18 54.59 10.7
18 -14 18 49.4 16.4
-14 -18 -18 83.59 11.7
14 -18 18 68.19 16.2
18 -18 14 68.09 16.3
-18 14 -18 79.29 15.7
-18 -18 -16 261.37 25
-18 -16 -18 239.88 24.8
18 -16 18 210.78 27.7
-16 -18 -18 260.27 25.2
16 -18 18 264.17 30.2
18 -18 16 211.18 27.4
-18 16 -18 237.28 28.7
-18 -18 -18 415.16 35
18 -18 18 348.87 38.3
-18 18 -18 304.67 37.3
-19 -1 -1 358.76 48
1 1 -19 380.06 48.2
-1 -1 -19 351.96 48.5
-19 1 1 297.47 47.9
-19 1 -1 321.67 48.8
-1 1 -19 333.17 48.4
1 -1 -19 403.36 48.7
-19 -1 1 356.26 47.8
3 1 -19 42.8 26.8
19 3 -1 72.99 22.4
-19 3 1 19.2 28.1
-3 -1 -19 49.1 27.8
-19 -3 -1 5.3 24.1
-3 1 -19 30.3 29.2
-19 -3 1 61.19 26.9
-19 3 -1 -21.8 29
3 -1 -19 55.89 28.1
5 1 -19 362.56 49.9
-19 -5 -1 382.76 48.2
19 5 -1 365.66 47.4
-5 -1 -19 401.66 50.59
-19 5 1 345.77 51.49
-19 5 -1 357.66 53.29
-19 -5 1 377.36 48
-1 19 -5 359.16 50.79
5 -1 -19 431.96 52.09
-5 1 -19 355.26 50.79
7 1 -19 275.37 42.3
1 19 -7 253.47 42.5
19 7 -1 309.97 39
-19 7 1 275.37 47.7
-7 -1 -19 304.57 44.8
-7 1 -19 247.68 44.9
-19 7 -1 248.48 47.9
7 -1 -19 316.47 43.3
-1 19 -7 277.47 45.2
-19 9 1 63.59 31.6
1 19 -9 4.5 28.6
1 19 -9 30.6 211.58
9 1 -19 38.6 24.9
9 -1 -19 -9.5 21.9
-19 9 -1 -13.8 30.3
-1 19 -9 51.59 31.3
-9 1 -19 14.9 31.5
1 19 -11 87.49 34.3
11 1 -19 97.29 30.9
-19 11 1 52.59 34.8
-11 1 -19 155.98 42
-1 19 -11 130.09 37.6
11 -1 -19 73.79 28.7
-19 11 -1 89.59 37.5
1 19 -13 113.19 46.1
13 1 -19 139.39 33.8
-19 13 1 72.29 38
-19 13 -1 117.19 41.7
-1 19 -13 124.39 42.7
13 -1 -19 169.78 34
1 19 -15 46 41.1
-19 15 1 6.9 35.2
19 -15 1 -2.5 11.9
15 1 -19 26.8 27.6
-15 -1 -19 6.9 7.8
-1 -19 -15 30.4 8.1
1 -19 -15 28.3 8.2
-15 1 -19 2.5 8.3
-1 19 -15 -10 37.4
15 -1 -19 48.8 29
-19 15 -1 -32.5 36.4
19 -15 -1 12.1 11.9
1 19 -17 23.2 44
-17 -1 -19 33.1 9.3
17 1 -19 31.7 32.2
-1 -19 -17 27.2 8.7
19 -17 1 40 13.5
-19 17 1 -9.2 41.2
-17 1 -19 21 9.4
-1 19 -17 0 44.8
19 -17 -1 9 12.8
17 -1 -19 109.29 36
-19 17 -1 0.9 43.5
1 -19 -17 43.1 9.6
-1 -3 -19 23.2 25
19 1 -3 23.7 21.5
-19 -1 -3 62.49 27.6
-19 1 3 -19.4 25.1
1 3 -19 -17.9 26.6
1 -3 -19 57.79 25.7
19 -1 -3 5.9 20
-1 3 -19 53.29 27.5
-19 1 -3 33.4 28.7
-19 3 3 152.18 38.2
-3 -3 -19 197.28 34.6
3 3 -19 171.28 37.3
19 3 -3 271.87 36.5
-19 -3 -3 226.48 37.6
-3 3 -19 202.08 39.4
-19 3 -3 165.18 41.5
-3 19 -3 153.48 55.09
3 -3 -19 281.27 37.4
5 3 -19 877.91 89.99
3 19 -5 435.16 276.47
-19 5 3 747.53 90.19
19 5 -3 888.91 85.69
-19 -5 -3 917.31 87.09
5 -3 -19 952.9 87.79
-5 3 -19 879.91 91.59
-19 5 -3 680.83 91.59
-3 19 -5 901.81 91.69
-19 7 3 876.31 89.49
19 7 -3 745.23 81.69
7 3 -19 909.51 87.19
-7 3 -19 886.51 89.89
-19 7 -3 771.32 90.89
7 -3 -19 766.52 83.29
-3 19 -7 772.02 89.29
-19 9 3 206.18 42.9
9 3 -19 215.08 39.6
19 9 -3 182.08 34.7
3 19 -9 44 223.48
3 19 -9 191.98 38.8
-19 9 -3 179.98 43.8
9 -3 -19 212.88 36.2
-9 3 -19 305.27 47.5
-3 19 -9 247.78 44.7
11 3 -19 8.6 25.7
-19 11 3 -9.3 30.4
3 19 -11 2.4 30.8
-3 19 -11 26.4 196.88
11 -3 -19 4.5 22.8
-11 3 -19 55.39 41.2
-19 11 -3 6.1 33.8
-3 19 -11 -4.3 33.6
13 3 -19 35 26.4
3 19 -13 35.4 35
-19 13 3 60.29 34.2
-3 19 -13 -11.6 34.8
-13 3 -19 8.2 38.9
-19 13 -3 50.69 37
13 -3 -19 34.5 26.3
19 -15 3 61.39 14.3
-15 -3 -19 71.79 11
15 -3 19 187.98 201.88
-19 15 3 47.6 40
-3 -19 -15 69.19 10.4
15 3 -19 67.79 29.5
3 19 -15 48.5 41.3
3 -19 -15 58.59 10.9
3 19 15 141.89 216.88
-3 19 -15 -35.9 39.3
-15 3 -19 51.99 10.7
-19 15 -3 59.59 39.3
15 -3 -19 60.79 32.8
-15 3 -19 49.5 57.09
19 -15 -3 44.1 14.1
15 3 19 -69.19 192.18
-3 -19 -17 238.38 25.5
-17 -3 -19 252.07 25.8
-19 17 3 288.67 56.69
17 3 -19 264.47 46.3
3 19 -17 231.08 57.79
19 -17 3 297.07 30
19 -17 -3 230.88 27.5
3 -19 -17 236.18 26
17 -3 -19 394.56 50.99
-17 3 -19 229.48 26.1
-19 17 -3 254.87 57.09
-3 19 -17 250.27 58.09
-19 -1 -5 426.66 50.69
19 1 -5 416.36 50.69
1 5 -19 296.67 50.89
1 -5 -19 399.56 49.7
19 -1 -5 355.46 47.9
-1 5 -19 341.17 53.09
-19 1 -5 413.36 52.69
3 5 -19 757.62 90.49
-19 -3 -5 849.22 88.79
19 3 -5 953.8 88.39
-3 5 -19 843.62 92.69
19 -3 -5 987.3 87.99
-5 19 -3 724.63 92.09
-19 3 -5 837.62 93.29
3 -5 -19 977.3 87.29
5 5 -19 1668.43 155.28
-19 5 5 1585.14 155.38
19 5 -5 1608.34 151.68
19 -5 -5 1692.23 152.18
-5 5 -19 1611.54 156.18
-5 19 -5 1747.33 156.48
5 -5 -19 1565.74 150.88
-19 5 -5 1744.93 157.58
7 5 -19 1883.01 160.28
-19 7 5 1656.13 160.18
19 7 -5 1756.72 156.18
7 -5 -19 1571.54 155.38
-7 5 -19 1771.92 161.88
-19 7 -5 1622.34 161.48
-5 19 -7 1654.43 161.38
-19 9 5 842.52 88.49
19 9 -5 790.32 81.69
9 5 -19 759.62 85.39
-19 9 -5 808.92 91.39
9 -5 -19 767.02 80.79
-9 5 -19 770.52 91.89
-5 19 -9 791.72 92.29
11 5 -19 280.87 43.3
5 19 -11 217.58 43.2
-19 11 5 209.78 46.5
11 -5 -19 294.47 40.5
-19 11 -5 243.78 50.39
-5 19 -11 213.78 48.6
-11 5 -19 259.37 52.99
5 19 -13 120.89 37.7
13 5 -19 164.88 34.6
-5 -19 -13 124.09 15.4
19 -13 5 100.69 18.9
-19 13 5 134.19 41.1
-19 13 -5 139.69 44.1
-13 5 -19 191.08 48.5
13 -5 -19 181.68 35.4
-5 19 -13 122.89 43.6
15 5 -19 224.38 45.2
19 -15 5 253.27 30.8
-19 -15 -5 286.97 29.4
5 19 -15 272.57 52.39
-5 -19 -15 275.37 27
-15 -5 -19 276.47 27
-19 15 5 278.97 52.09
19 -15 -5 244.68 28.7
5 -19 -15 259.17 27.4
-19 15 -5 280.67 54.79
15 -5 -19 346.37 47.8
-15 5 -19 253.97 28.4
-15 5 -19 253.17 58.09
-5 19 -15 287.97 55.59
17 5 -19 661.03 79.29
19 -17 5 646.14 60.19
-5 -19 -17 634.24 57.59
5 19 -17 662.13 84.99
-17 -5 -19 683.63 57.49
-19 17 5 639.64 85.19
-19 17 -5 698.03 87.19
-17 5 -19 646.64 87.69
5 -19 -17 568.94 57.49
-5 19 -17 582.64 84.19
19 -17 -5 597.74 59.39
17 -5 -19 779.02 80.29
-17 5 -19 643.74 58.19
-19 -1 -7 282.77 41.4
1 7 -19 230.38 43.6
19 1 -7 291.87 39.6
-7 19 -1 224.48 42.6
-19 1 -7 274.17 42.3
19 -1 -7 234.78 37.6
-1 7 -19 175.08 44
7 19 -3 496.95 286.87
-19 -3 -7 915.61 85.69
3 7 -19 643.94 84.79
19 3 -7 815.32 80.99
-3 7 -19 737.93 87.09
-19 3 -7 854.51 87.39
-7 19 -3 732.33 87.49
19 -3 -7 799.12 81.39
19 5 -7 1604.54 151.78
5 7 -19 1622.84 155.28
-7 19 -5 1615.84 157.18
19 -5 -7 1759.52 151.88
-19 5 -7 1651.83 157.18
-5 7 -19 1607.84 157.38
-19 7 7 1732.43 157.98
7 7 -19 1765.62 157.98
19 7 -7 1703.73 154.08
-19 7 -7 1578.34 159.48
7 -7 -19 1609.54 151.58
-7 19 -7 1585.54 158.88
19 -7 -7 1720.53 153.58
-7 7 -19 1588.74 160.58
19 9 -7 875.71 90.89
-19 9 7 854.61 95.49
9 7 -19 969.2 95.39
-19 9 -7 867.41 99.39
-7 19 -9 903.61 98.89
9 -7 -19 877.11 89.89
-9 7 -19 911.51 101.59
19 11 -7 373.16 54.89
11 7 -19 295.47 48.8
-19 11 7 322.37 52.79
-7 19 -11 294.87 56.19
-11 7 -19 358.86 58.09
-19 11 -7 319.97 57.39
11 -7 -19 359.86 45.9
19 -13 7 133.99 19.9
-7 -19 -13 136.09 15.6
-13 -7 -19 131.89 15.8
7 19 -13 103.49 40
13 7 -19 177.88 36.5
-19 13 7 114.29 40.2
-13 7 -19 217.98 50.19
13 -7 -19 172.98 34.7
-7 19 -13 89.29 45.3
-19 13 -7 112.99 44.7
7 -19 -13 130.79 16.6
-15 -7 -19 256.77 27.6
7 19 -15 215.98 50.69
-7 -19 -15 282.27 27.5
-19 -15 -7 285.07 26.9
15 7 -19 243.98 45.1
19 -15 7 277.77 32.8
-19 15 7 306.87 56.49
19 -15 -7 288.17 34
7 -19 -15 264.97 28
-15 7 -19 226.38 57.19
-19 15 -7 252.47 53.29
-15 7 -19 279.07 29.9
15 -7 -19 365.76 48.5
-7 19 -15 255.77 56.59
-7 -19 -17 665.93 57.89
7 19 -17 750.12 91.69
-19 17 7 617.64 82.39
17 7 -19 535.55 92.59
-7 -19 -17 739.93 89.39
19 -17 7 592.84 60.39
-17 -7 -19 683.03 57.69
-19 -17 -7 596.14 57.09
-19 17 -7 461.85 112.49
19 -17 -7 737.53 65.59
-7 19 -17 654.43 92.59
-17 7 -19 559.84 86.99
17 -7 -19 795.02 81.39
-17 7 -19 611.94 58.79
7 -19 -17 582.64 57.99
19 -17 -7 670.13 59.89
1 9 -19 -34 29.8
19 1 -9 -6.6 20.4
9 19 -1 -46.6 245.08
-19 -1 -9 -1.2 27.6
-9 19 1 -14 35.3
-9 19 -1 4.8 30.6
-19 1 -9 30.7 30
19 -1 -9 -22.5 20.6
-1 9 -19 -34.4 30.6
9 19 -3 12.5 260.07
19 3 -9 166.68 31.7
3 9 -19 115.59 37.2
-9 19 -3 175.88 40.7
-3 9 -19 163.98 41.5
19 -3 -9 145.19 32.2
-19 3 -9 251.17 42.4
19 5 -9 766.92 79.09
5 9 -19 746.13 84.79
19 -5 -9 858.01 80.99
-9 19 -5 644.94 86.89
-5 9 -19 671.83 86.69
-19 5 -9 750.92 87.09
7 9 -19 884.91 99.19
19 7 -9 918.91 94.09
-19 7 -9 909.61 103.19
19 -7 -9 1055.29 93.79
-7 9 -19 854.11 102.89
-9 19 -7 946.81 102.19
-19 9 9 393.16 56.99
9 9 -19 432.06 57.99
19 9 -9 382.16 52.29
-9 19 -9 385.26 59.09
-19 9 -9 403.66 61.69
-9 9 -19 388.86 62.29
-11 -9 -19 53.89 12.1
19 11 -9 60.39 27.6
19 -11 9 55.89 14.6
-9 -19 -11 52.99 9.5
11 9 -19 22.4 31.2
-19 11 9 8.7 34.1
-19 11 -9 93.69 39.7
-9 19 -11 46.2 37.8
-11 9 -19 53.29 42.4
-9 -19 -13 12.4 7.1
-19 13 9 -5.6 35.6
13 9 -19 32.2 29.3
19 -13 9 -9.2 13
-13 -9 -19 1.8 7.7
-19 -13 -9 21.8 13.3
13 -9 -19 -18 29
-13 9 -19 8.1 12.7
9 -19 -13 21.7 9.9
-13 9 -19 43.8 44.6
-19 13 -9 59.19 41.8
-9 19 -13 18.7 42.9
-9 -19 -15 93.59 12.8
15 9 -19 77.59 34.4
-15 -9 -19 82.09 12.9
-19 15 9 87.39 44.4
19 -15 9 86.89 17.8
-19 -15 -9 114.89 12.7
9 -19 -15 103.09 14.5
-9 19 -15 109.09 49
-19 15 -9 83.49 47.8
-15 9 -19 82.69 47.5
-15 9 -19 97.99 16
15 -9 -19 61.79 33.5
17 9 -19 383.46 46.5
19 -17 9 286.77 35
19 -17 9 323.67 58.99
-9 -19 -17 272.07 62.29
-9 -19 -17 294.47 30.2
-19 -17 -9 325.77 29.8
-17 -9 -19 303.87 30.4
-17 9 -19 313.07 32.9
19 -17 -9 347.17 37.9
17 -9 -19 247.38 34.7
-11 19 1 87.89 35.2
19 1 -11 108.89 28.4
1 11 -19 87.29 37.1
11 19 -1 15.8 252.97
19 -1 -11 96.89 28.8
-11 19 -1 103.79 36.2
-19 1 -11 126.79 37
-1 11 -19 67.59 37.2
19 3 -11 -2.8 20.5
3 11 -19 -27.6 31.3
-11 19 -3 26.4 33.2
-19 3 -11 44.7 34.7
19 -3 -11 -19.5 22.9
-3 11 -19 -15.9 34.2
5 11 -19 223.08 44.9
19 5 -11 190.68 37.3
19 -5 -11 237.68 39.9
-11 19 -5 232.58 47.9
-19 5 -11 311.07 50.59
-5 11 -19 170.18 46.5
19 7 -11 274.37 45
7 11 -19 286.47 52.19
-11 19 -7 353.06 54.99
-19 7 -11 351.26 55.29
-7 11 -19 368.66 56.99
19 -7 -11 315.97 44.6
19 9 -11 42.7 26.9
-19 -9 -11 40.6 9.9
-11 -19 -9 45.6 9.1
-19 9 11 -7.4 32.6
9 11 -19 -22.5 30.3
19 -9 11 25.3 13.3
-9 -11 -19 53.09 13.5
-19 9 -11 5.4 37.2
-9 11 -19 55.79 41.9
-11 19 -9 41.7 39.7
19 -9 -11 44.1 24.8
11 -19 11 7 13.4
19 -11 11 31.5 13
-19 -11 -11 23.8 8.5
11 11 -19 54.79 34.1
19 11 -11 42.2 29.1
-19 11 11 108.79 38.9
-11 -11 -19 28.5 8.8
-11 -19 -11 31.5 8
11 -19 -11 27 9.9
-11 11 -19 21.4 41.5
-11 19 -11 76.89 39.6
-19 11 -11 17.8 39.2
-19 13 11 44.6 39.2
-13 -11 -19 43.2 9.4
-11 -19 -13 32.9 8.7
11 -19 13 47.1 14.4
13 11 -19 97.09 35.7
13 -11 19 32.3 15.6
-19 -13 -11 60.19 9.2
19 -13 11 34.9 14.1
-19 13 -11 61.89 42.6
-11 19 -13 37.9 44.4
11 -19 -13 36 10.7
-13 11 -19 91.79 47.6
-11 -19 -15 5.1 7.3
-19 -15 -11 15.3 7.2
11 -19 15 2.5 14.6
-19 15 11 -16 41.3
19 -15 11 -14.6 12.9
-15 -11 -19 7.7 7.8
-15 11 -19 19.9 12.6
19 -15 -11 22.1 22.6
-17 -11 -19 74.79 12.3
-11 -19 -17 49.3 53.59
19 -17 11 94.19 17.6
-19 -17 -11 94.99 12
-11 -19 -17 71.39 11.9
17 11 -19 75.09 34.2
-17 11 -19 87.69 16
19 1 -13 178.88 34.3
-13 19 1 168.38 42.7
1 13 -19 119.29 39.7
-1 13 -19 48 41.4
-19 1 -13 118.79 43.7
-13 19 -1 154.48 41
13 19 1 -126.69 296.27
19 -1 -13 130.59 32.4
-13 19 3 33.1 41.2
3 13 -19 -9.5 34.4
19 3 -13 71.39 27.5
-13 19 -3 -2.2 33.6
19 -3 -13 -18.2 24
-19 3 -13 -5 35.5
-3 13 -19 9.5 37.5
5 13 -19 100.69 38.4
-19 -5 -13 113.79 13.8
19 5 -13 174.78 34.3
13 -19 5 119.79 18.2
19 -5 13 100.79 17.9
-5 13 -19 63.69 41
13 -19 -5 92.09 21.4
-19 5 -13 145.59 43.3
-13 19 -5 157.78 41.7
-19 5 -13 98.59 17.3
19 -5 -13 129.49 33
19 -7 13 108.39 18.1
13 -19 7 146.59 18.7
-7 -13 -19 131.29 15.5
-13 -19 -7 126.69 15
19 7 -13 168.58 35.4
7 13 -19 132.29 42.2
-19 -7 -13 119.79 14.7
19 -7 -13 101.49 32.1
-7 13 -19 161.18 44.1
-13 19 -7 163.88 45
-19 7 -13 121.09 43.9
-19 7 -13 116.99 18.1
13 -19 -7 135.69 17.3
19 9 -13 11.2 27.4
13 -19 9 1.9 12.6
-9 -13 -19 35.3 8.4
9 13 -19 -11.4 34.1
-19 -9 -13 0 6.8
19 -9 13 10.5 12.4
-13 -19 -9 -6.3 6.4
-19 9 -13 3.1 39.8
-9 13 -19 48.9 41.3
19 -9 -13 39.6 24.8
13 -19 -9 14.9 10.5
-13 19 -9 -19.6 39
19 -11 13 20.2 13.6
13 -19 11 39.6 14.4
19 11 -13 13.2 29.8
-19 11 13 74.29 38.5
-13 -19 -11 38.1 8.6
-19 -11 -13 34.6 8.7
-11 -13 -19 53.19 9.8
11 13 -19 65.79 37.5
-11 13 -19 20 43
-19 11 -13 -19.9 40.1
-13 19 -11 110.79 45.9
13 -19 -11 45.4 11.7
-13 -13 -19 56.79 10.1
13 13 -19 65.09 39
-19 -13 -13 66.19 10.2
19 13 -13 16.5 35.4
13 -19 13 40.9 15
13 -13 19 47 23.2
-13 -19 -13 57.19 9.7
19 -13 13 73.79 15
-19 13 13 34.4 45.3
13 -19 -13 38.1 12.4
-13 13 -19 140.19 69.69
-13 19 -13 11.5 49.7
19 -15 13 16 13.1
13 -19 15 -27 12.8
15 -13 19 17.9 13.6
-13 -19 -15 -4.4 7.1
-19 -15 -13 -1.3 6.7
-13 -19 -15 94.69 70.89
-15 -13 -19 -4.7 7
-15 13 -19 4.2 12.4
-17 -13 -19 46.4 10.4
-19 -17 -13 53.19 9.5
13 -19 17 20 15
-13 -19 -17 37 9.8
-13 -19 -17 -48.3 60.19
19 -17 13 38.7 14.6
-17 13 -19 43 14
19 1 -15 68.29 28.9
-15 19 1 27.3 37
1 15 -19 60.19 38.9
-19 -1 -15 11.3 8.3
-1 -15 -19 25.4 8.6
15 -19 1 32.3 13.1
15 -19 -1 21.9 12.3
-19 1 -15 14.2 9
19 -1 -15 56.39 28.3
-1 15 -19 31.9 40.4
-15 19 -1 54.79 39.2
15 -19 3 53.99 14.8
3 15 -19 22.8 39.3
-19 -3 -15 53.59 10.1
19 3 -15 150.48 32.6
-3 -15 -19 45 10.3
-15 19 3 47.5 42.5
-15 19 -3 57.79 38.5
15 -19 -3 71.89 14.6
-19 3 -15 4.3 41.3
-19 3 -15 75.79 12.7
-3 15 -19 89.69 41.2
19 -3 -15 57.19 28.9
15 -19 5 245.58 29.3
-15 -19 -5 251.57 25.2
5 15 -19 337.17 55.49
-5 -15 -19 242.88 25.8
-19 -5 -15 249.48 25.3
19 5 -15 304.17 46
-5 15 -19 180.78 51.69
-15 19 -5 252.97 52.39
19 -5 -15 288.27 44.8
-19 5 -15 259.27 28.4
-19 5 -15 207.68 52.79
15 -19 -5 241.08 28.7
7 15 -19 252.77 53.39
-15 -19 -7 242.58 26.3
-19 -7 -15 249.28 26.5
15 -19 7 295.17 31.1
19 7 -15 263.97 46.3
-7 -15 -19 281.47 27.3
15 -19 -7 290.67 29.3
19 -7 -15 383.06 48
-7 15 -19 241.58 55.19
-19 7 -15 341.17 57.79
-19 7 -15 249.28 29
-15 19 -7 240.78 57.19
-19 -9 -15 77.39 11.9
-15 -19 -9 85.49 12
19 9 -15 92.89 32.6
15 -19 9 87.69 16.9
9 15 -19 42.9 40
19 -9 15 77.39 16.2
-9 -15 -19 112.89 13.2
-15 19 -9 102.99 46.5
-19 9 -15 72.99 47
-9 15 -19 94.79 47.8
15 -19 -9 98.59 15.2
19 -9 -15 140.99 32.4
-19 9 -15 68.49 16
11 15 -19 -6.6 43.2
-11 -15 -19 9.6 8
-15 -19 -11 2 6.7
-19 11 15 22.7 42.5
15 -19 11 -0.7 12.7
-19 -11 -15 4.1 7.4
19 -11 15 7.7 12.7
19 11 -15 -16 28.8
19 -11 -15 5 14.5
15 -19 -11 -5 10.2
-19 11 -15 -14.1 12.1
-13 -15 -19 1 7.9
-15 -19 -13 -2.4 6.9
19 -13 15 24.4 13.3
-19 -13 -15 0.3 7.2
15 -19 13 -8.5 13.1
19 -15 15 23 13.7
-15 -19 -15 13.5 8.1
15 -19 15 20.4 13.4
-19 -15 -15 31.2 8.3
-15 -15 -19 24.8 9
15 -15 19 23.7 14.4
-15 15 -19 17.7 13.3
-19 -17 -15 126.69 14.3
15 -19 17 96.79 19.1
-15 -19 -17 103.39 14.3
-17 -15 -19 122.29 14.5
17 -15 19 80.39 19.9
19 -17 15 126.09 19.1
-17 15 -19 119.49 18.4
-17 19 1 77.49 43.8
19 1 -17 67.89 34.1
17 -19 1 18.5 13.7
-19 -1 -17 34.5 9.6
1 17 -19 61.89 42.3
-1 -17 -19 22.7 8.4
17 -19 -1 37.6 13.6
-17 19 -1 34.9 41.9
-1 17 -19 15.4 44.1
1 -17 -19 49.6 9.1
-19 1 -17 29.8 9.6
19 -1 -17 55.09 32.3
17 -19 3 251.77 28.6
-19 -3 -17 241.28 25.8
-3 -17 -19 228.28 25.8
19 3 -17 356.76 51.49
3 17 -19 262.37 56.29
-17 19 3 278.07 59.29
-19 3 -17 254.77 26.9
-17 19 -3 280.27 55.29
3 -17 -19 261.57 26.6
-3 17 -19 250.97 56.39
19 -3 -17 304.97 47.5
17 -19 -3 252.27 29.6
5 17 -19 766.72 89.89
-19 -5 -17 663.93 57.89
19 5 -17 615.64 81.19
-5 -17 -19 629.64 57.99
17 -19 5 679.63 60.59
-17 -19 -5 628.94 57.49
17 -19 -5 646.74 59.79
19 -5 -17 614.24 78.49
-19 5 -17 602.84 85.09
-5 17 -19 648.04 86.99
-17 19 -5 531.75 82.59
-19 5 -17 640.64 59.09
-19 -7 -17 675.03 56.49
17 -19 7 600.84 59.09
-17 -19 -7 613.94 56.29
7 17 -19 756.32 90.39
-7 -17 -19 465.15 89.19
-7 -17 -19 588.74 56.69
19 7 -17 686.43 90.89
-19 7 -17 497.55 83.39
17 -19 -7 630.44 66.19
17 -19 -7 667.43 58.59
-7 17 -19 592.74 100.59
19 -7 -17 634.64 62.39
19 -7 -17 812.02 82.89
-17 19 -7 640.54 86.99
-19 7 -17 584.94 58.19
19 9 -17 301.27 44.1
17 -19 9 281.97 32.7
-9 -17 -19 310.37 29.2
-19 -9 -17 282.77 28.5
17 -19 9 276.57 65.19
-17 -19 -9 265.67 28
-9 -17 -19 325.47 72.19
19 -9 -17 274.57 34.3
17 -19 -9 291.97 36.5
17 -19 -9 306.97 31.2
-19 9 -17 269.57 31.6
-11 -17 -19 96.39 64.89
-19 -11 -17 74.29 11.7
19 -11 17 62.39 16
17 -19 11 66.89 16.7
-17 -19 -11 62.89 10.9
-11 -17 -19 88.69 12.4
17 -19 -11 101.79 19.2
-19 11 -17 81.69 16.2
19 -13 17 18.3 14.6
-19 -13 -17 50.49 9.4
17 -19 13 44.3 15
-17 -19 -13 24.7 8.5
-13 -17 -19 10.9 65.99
-13 -17 -19 33.4 9.9
-19 13 -17 14.9 13.5
17 -19 15 130.69 19.6
19 -15 17 94.69 18.8
-19 -15 -17 91.49 13.6
15 -17 19 140.99 19.8
-17 -19 -15 81.09 13.4
-15 -17 -19 128.89 14.6
-15 17 -19 148.79 20.4
-19 15 -17 132.39 18.6
-19 -17 -17 311.77 29.1
19 -17 17 265.07 33.2
-17 -19 -17 308.77 29.1
-17 -17 -19 297.37 29.1
17 -17 19 289.67 33.8
17 -19 17 285.17 33
-17 17 -19 285.07 32.2
-19 17 -17 287.47 32.4
-19 -1 -19 39.4 10.7
19 1 -19 78.79 23.9
-19 19 1 64.99 62.99
-1 -19 -19 52.09 44.8
-1 -19 -19 54.69 10.6
19 -19 1 68.79 32.9
19 -19 1 61.69 15.3
19 -19 -1 38.3 28.9
19 -19 -1 57.79 15.1
1 -19 -19 26.8 41.4
1 -19 -19 77.09 11.4
19 -1 -19 87.29 23.4
-19 1 -19 64.39 11.5
-19 -3 -19 255.77 27.6
19 -19 3 290.07 31.7
-3 -19 -19 388.86 61.29
-3 -19 -19 248.58 27.3
19 -19 3 328.27 49.7
19 3 -19 301.27 40
19 -19 -3 264.27 40.5
19 -19 -3 269.17 31.3
3 -19 -19 277.57 51.59
-19 3 -19 263.77 28
19 -3 -19 266.47 35.4
3 -19 -19 279.57 28.2
-19 -5 -19 647.14 59.19
19 -19 5 626.44 61.99
-5 -19 -19 580.74 87.19
-5 -19 -19 616.54 59.19
19 -19 5 783.82 83.49
19 5 -19 724.93 72.79
19 -19 -5 626.14 69.79
19 -19 -5 622.84 61.29
5 -19 -19 746.03 81.79
-19 5 -19 684.63 59.79
19 -5 -19 686.53 65.69
5 -19 -19 667.43 59.69
-19 -19 -7 656.73 61.09
-19 -7 -19 726.33 61.39
19 -19 7 769.32 89.69
-7 -19 -19 710.83 96.29
-7 -19 -19 684.73 61.49
19 7 -19 777.92 75.39
19 -19 7 726.43 64.49
19 -19 -7 659.03 63.39
-19 7 -19 708.33 62.39
19 -19 -7 589.54 69.59
19 -7 -19 614.34 66.09
7 -19 -19 627.34 78.59
-19 -19 -9 298.37 31.2
-19 -9 -19 355.06 32.2
19 9 -19 348.17 47.1
-9 -19 -19 202.28 71.39
-9 -19 -19 309.67 31.8
19 -19 9 349.07 37.3
19 -19 9 325.17 64.99
19 -19 -9 344.27 34.8
19 -19 -9 266.17 38.3
19 -9 -19 297.67 36.6
-19 9 -19 376.06 34.1
-19 -19 -11 103.19 13.9
-19 -11 -19 94.79 14.3
19 -19 11 117.29 19.6
-11 -19 -19 65.09 65.19
-11 -19 -19 114.29 14.7
19 -19 11 122.39 53.59
19 11 -19 127.89 32.5
-19 11 -19 128.59 17.8
-19 -19 -13 50.19 9.7
-19 -13 -19 51.99 9.9
19 -19 13 78.79 15.6
-13 -19 -19 -24.6 63.69
-13 -19 -19 49.1 10.4
-19 13 -19 30.1 13.8
-19 -19 -15 175.58 18.8
-19 -15 -19 174.78 18.8
19 -19 15 148.39 21.7
-15 -19 -19 180.18 19.3
15 -19 19 134.99 22.4
-19 15 -19 129.49 20.7
-19 -19 -17 349.17 30.2
-19 -17 -19 316.97 29.9
19 -19 17 329.27 34.5
-17 -19 -19 331.57 30.2
19 -17 19 274.47 34.3
17 -19 19 341.67 34.9
-19 17 -19 255.97 32.6
-17 19 -19 243.08 32.7
-19 -19 -19 358.36 31.7
19 -19 19 295.87 35.4
-19 19 -19 311.87 34.5
-20 0 0 524.55 66.39
0 0 -20 556.84 66.49
2 0 -20 236.98 39
-20 -2 0 216.08 36.6
-20 2 0 108.69 36.9
-2 0 -20 158.08 38
-20 4 0 30.7 32.7
-4 0 -20 91.49 32.4
4 0 -20 41.2 28.8
-20 -4 0 86.99 27.7
6 0 -20 214.38 37.5
-6 0 -20 184.48 41.4
-20 6 0 239.28 44.1
-20 -6 0 235.88 37.3
-20 8 0 66.39 36
0 20 -8 57.99 32.9
-8 0 -20 56.89 33.8
8 0 -20 46.7 28
0 20 -8 -40.6 303.67
-20 10 0 108.89 35.4
0 20 -10 104.79 220.88
10 0 -20 113.09 30.9
0 20 -10 64.29 35.7
12 0 -20 168.18 36.1
0 20 -12 193.78 43.8
-20 12 0 129.19 43.3
0 20 14 229.08 211.68
20 -14 0 78.19 15.9
14 0 -20 172.68 35.6
0 20 -14 2.6 43.6
-20 14 0 118.49 43.5
-14 0 -20 106.49 13.4
0 -20 -14 92.09 13
-16 0 -20 6.5 8.5
0 -20 -16 29.2 9.1
0 20 -16 3.8 43.9
20 -16 0 5.4 12.2
16 0 -20 -25.8 30.2
-20 16 0 12 42.7
0 -20 -18 111.49 41.8
20 -18 0 39 14.2
18 0 -20 44.2 25.5
20 -18 0 33.2 28.3
-18 0 -20 43.4 10.4
0 -20 -18 37.3 10.2
-20 0 2 130.49 34.3
0 -2 -20 186.38 36.3
-20 0 -2 192.08 37.3
0 2 -20 138.09 35.3
2 2 -20 40.5 29.7
20 2 -2 45.5 23.5
-20 -2 -2 1.2 26.8
-20 2 2 20.3 27.8
-2 -2 -20 28.6 27.1
-20 -2 2 47.6 26.6
2 -2 -20 10.6 26.7
-2 2 -20 23 28.2
-20 2 -2 2.4 30.2
-4 -2 -20 170.68 38.3
-20 -4 -2 147.49 35.3
4 2 -20 183.68 38.1
-20 4 2 152.68 38.3
20 4 -2 161.38 31.1
4 -2 -20 294.87 38
-20 4 -2 127.99 40.6
-20 -4 2 213.68 35.3
-4 2 -20 146.49 39
20 6 -2 451.55 52.29
-20 6 2 404.06 57.39
6 2 -20 373.76 53.29
6 -2 -20 565.64 57.29
-2 20 -6 300.87 60.49
-20 6 -2 379.96 57.49
-6 2 -20 447.16 58.79
20 8 -2 144.79 33.2
8 2 -20 150.58 34.3
-20 8 2 103.69 37.6
2 20 -8 33.9 234.28
8 -2 -20 125.89 31.7
-8 2 -20 198.68 41.3
-20 8 -2 106.99 38.7
-2 20 -8 141.49 38.8
10 2 -20 23.8 27.6
2 20 -10 -2.6 33.4
-20 10 2 27 34.6
10 -2 -20 -20.1 24.5
-2 20 -10 61.99 35.5
-20 10 -2 -5.6 33.7
-10 2 -20 72.59 37.9
-2 -20 -12 80.39 13.6
-20 12 2 137.59 39.8
12 2 -20 63.59 31.2
2 20 -12 116.49 38.6
12 -2 -20 109.89 30.7
-20 12 -2 109.19 38.5
-12 2 -20 113.09 51.19
-2 20 -12 31.4 38.3
-14 -2 -20 21.1 9.1
20 -14 2 33 13.3
2 20 -14 71.99 40.6
-20 14 2 -34.9 35.3
14 2 -20 58.79 30.3
-2 -20 -14 67.39 9.7
-20 14 -2 53.99 38.9
14 -2 -20 67.79 32.1
-14 2 -20 39.3 9.6
20 -14 -2 14.5 12.8
-2 20 -14 48.3 42.6
2 -20 -14 23.3 9.2
2 20 -16 67.69 45.5
20 -16 2 54.99 14.2
16 2 -20 77.39 33.2
-2 -20 -16 55.69 10
-20 16 2 53.69 43.1
-16 -2 -20 48 10.5
16 -2 -20 52.49 35.1
-20 16 -2 27.4 44.5
-16 2 -20 49.4 10.8
-2 20 -16 45.8 47.2
2 -20 -16 55.19 10.7
20 -16 -2 11.6 13.8
20 -18 2 144.69 39.1
18 2 -20 113.99 30.9
-18 -2 -20 117.59 16.5
-2 -20 -18 139.69 16.5
20 -18 2 157.08 20.3
-2 -20 -18 144.49 47.7
20 -18 -2 132.89 19.7
2 -20 -18 133.39 42.2
-18 2 -20 132.89 17
18 -2 -20 187.98 30.5
2 -20 -18 148.89 17.4
20 -18 -2 148.19 32.1
0 -4 -20 31 31.4
20 0 -4 73.29 25.1
0 4 -20 63.49 32.5
-20 0 -4 49.1 30.7
20 2 -4 199.18 33.7
-20 -2 -4 176.68 36.1
-20 2 4 139.89 36.3
2 4 -20 195.88 38.3
2 -4 -20 222.38 33.1
-2 4 -20 141.29 36.8
-20 2 -4 134.29 37
20 -2 -4 184.08 32.8
20 4 -4 750.12 70.89
-20 -4 -4 538.65 70.49
-20 4 4 576.34 74.39
4 4 -20 543.35 73.29
-4 4 -20 578.64 75.49
4 -4 -20 815.82 71.79
-20 4 -4 581.24 76.89
20 6 -4 979.3 98.89
6 4 -20 1093.49 104.09
-20 6 4 935.71 103.49
-4 20 -6 1147.09 108.39
-20 6 -4 945.91 105.69
6 -4 -20 914.01 98.89
-6 4 -20 1069.89 106.39
-20 8 4 702.33 75.79
8 4 -20 671.63 72.49
20 8 -4 478.35 66.39
-8 4 -20 664.03 78.39
-20 8 -4 555.44 73.79
-4 20 -8 558.34 72.89
8 -4 -20 614.84 68.19
10 4 -20 109.79 34.2
-20 10 4 134.09 40.5
-20 10 -4 125.49 41.5
-4 20 -10 127.79 43.3
-10 4 -20 174.98 46.4
10 -4 -20 143.19 31.5
20 -12 4 35.4 13.8
4 20 -12 18.5 36.8
-20 12 4 14.6 34.9
-4 -20 -12 19.8 7.6
12 4 -20 52.89 28.2
12 -4 -20 8.3 25.9
-12 4 -20 -16.8 42.1
-4 20 -12 7.2 38.4
-20 12 -4 59.99 38.6
4 -20 -12 17.7 9.8
-4 -20 -14 68.59 9.7
4 20 -14 37.5 39.7
14 4 -20 -1.6 28.2
20 -14 4 52.59 14.9
-20 14 4 85.09 38.9
-14 -4 -20 59.89 9.9
20 -14 -4 7.1 13
-4 20 -14 24.5 42.4
-14 4 -20 47.3 10.5
14 -4 -20 15.6 33.1
4 -20 -14 23.4 9.8
-20 14 -4 49.1 41.7
-14 4 -20 39.7 47.2
16 4 -20 222.28 44.8
-16 -4 -20 265.37 27.4
20 -16 4 269.17 31.6
-20 16 4 189.98 55.69
-4 -20 -16 308.27 27.3
4 20 -16 339.87 58.59
-4 20 -16 315.77 60.19
16 -4 -20 392.96 52.09
20 -16 -4 237.58 29.3
-20 16 -4 259.17 59.89
-16 4 -20 284.87 28.2
4 -20 -16 235.28 27.7
-18 -4 -20 438.86 41.8
-4 -20 -18 408.56 41.4
-4 -20 -18 540.85 70.59
20 -18 4 542.75 64.49
20 -18 4 432.26 45
18 4 -20 501.95 57.89
18 -4 -20 456.85 51.09
20 -18 -4 393.86 44.2
20 -18 -4 475.75 52.99
4 -20 -18 464.25 42.4
-18 4 -20 444.86 42
4 -20 -18 479.55 61.29
-20 0 -6 205.58 39.6
20 0 -6 179.98 33.8
0 6 -20 154.58 38.9
-20 -2 -6 401.56 51.59
20 2 -6 525.85 54.09
2 6 -20 341.67 52.79
20 -2 -6 412.46 50.29
-2 6 -20 285.77 53.49
-20 2 -6 379.06 53.59
-20 4 6 971.4 103.19
20 4 -6 1042 99.39
4 6 -20 876.31 102.49
-6 20 -4 1066.79 105.89
-4 6 -20 917.11 105.09
-20 4 -6 1099.89 106.19
20 -4 -6 1034.8 99.29
20 6 -6 1142.09 113.49
-20 6 6 1260.47 118.79
6 20 -6 1092.09 307.07
6 6 -20 1148.69 117.19
-6 6 -20 1276.77 120.89
-6 20 -6 1133.69 119.19
6 -6 -20 1074.39 111.59
-20 6 -6 1236.88 120.69
20 8 -6 1025.5 99.39
-20 8 6 978.5 103.99
8 6 -20 1167.98 104.19
-6 20 -8 921.61 107.09
-8 6 -20 1023.8 107.89
-20 8 -6 867.61 105.59
8 -6 -20 933.71 97.09
-20 10 6 408.46 58.19
20 10 -6 340.97 61.29
10 6 -20 397.86 55.69
-10 6 -20 313.77 60.69
10 -6 -20 355.06 48.3
-6 20 -10 380.56 60.19
-20 10 -6 394.76 59.79
-12 -6 -20 93.29 12.3
-20 12 6 95.49 37.9
20 -12 6 100.39 17
12 6 -20 138.89 36.3
-6 -20 -12 76.39 11.5
12 -6 -20 105.19 31.1
-20 12 -6 99.79 41.7
-12 6 -20 -9.7 43.6
-6 20 -12 83.59 42.9
6 -20 -12 68.59 12.4
-14 -6 -20 112.69 16.1
-20 -14 -6 166.48 17.5
20 -14 6 143.49 20.9
-6 -20 -14 151.28 17.6
6 20 -14 105.89 62.89
14 6 -20 128.09 35.8
-20 14 6 113.49 45.7
14 -6 -20 158.28 35.5
-6 20 -14 128.59 49.5
-14 6 -20 130.49 17.7
-20 14 -6 147.19 48.1
6 -20 -14 172.68 19
-14 6 -20 113.29 51.09
-20 -16 -6 395.86 40
-6 -20 -16 524.75 73.49
-16 -6 -20 469.85 40.5
6 20 -16 482.45 70.09
16 6 -20 383.26 65.79
-6 -20 -16 453.65 40.5
-20 16 6 431.36 68.69
20 -16 6 391.26 44.1
20 -16 -6 539.85 54.79
20 -16 -6 416.86 43.1
-16 6 -20 431.46 73.39
6 -20 -16 408.46 40.9
-20 16 -6 467.25 71.59
-16 6 -20 396.96 41
16 -6 -20 499.05 61.79
-6 20 -16 505.55 73.79
16 -6 -20 350.66 82.09
18 6 -20 756.52 72.89
-6 -20 -18 650.83 58.59
-18 -6 -20 644.64 58.59
20 -18 6 742.63 85.49
-20 -18 -6 640.64 58.19
-6 -20 -18 656.43 85.29
20 -18 6 660.73 61.79
20 -18 -6 653.73 66.39
18 -6 -20 634.74 65.69
-18 6 -20 669.43 59.19
6 -20 -18 607.64 74.99
20 -18 -6 638.24 60.69
6 -20 -18 601.54 58.89
-20 0 -8 10.9 30.9
20 0 -8 20.5 23.2
0 8 -20 68.49 33
8 20 -2 29 264.97
-20 -2 -8 122.59 40.6
2 8 -20 74.19 36.8
20 2 -8 155.08 32.5
-8 20 -2 139.39 41.8
20 -2 -8 102.69 30.6
-2 8 -20 139.09 40.3
-20 2 -8 167.08 37.4
4 8 -20 543.65 71.09
20 4 -8 570.04 67.09
20 -4 -8 702.23 67.49
-4 8 -20 532.65 72.49
-8 20 -4 532.65 71.19
-20 4 -8 605.74 74.89
6 8 -20 907.01 104.49
20 6 -8 1043.5 100.29
-20 6 8 1069.79 105.59
20 -6 -8 1092.29 99.79
-20 6 -8 987.8 107.99
-8 20 -6 990.1 107.69
-6 8 -20 861.51 106.89
20 8 -8 803.52 81.89
8 8 -20 638.54 84.49
-20 8 8 732.03 86.39
-20 8 -8 764.32 90.59
-8 8 -20 835.92 92.99
-8 20 -8 736.43 90.09
-20 10 8 205.28 45.5
10 8 -20 231.68 42.8
20 -10 8 206.18 23.6
20 10 -8 150.78 36.5
-8 -20 -10 175.58 20.3
-8 20 -10 150.88 48.1
-20 10 -8 213.68 49.7
-10 8 -20 270.87 51.79
8 -20 -10 192.48 21.9
-8 -20 -12 21.9 7.5
-12 -8 -20 7.2 8.3
12 8 -20 32.3 32.5
-20 -12 -8 6 7.4
-20 12 8 26.6 35.6
20 -12 8 13.7 13.7
8 -20 -12 24.2 9.9
-12 8 -20 -27.1 42.9
-8 20 -12 28.1 43.7
-20 12 -8 46 39.6
12 -8 -20 79.09 30.8
20 -14 8 28.1 15.2
-14 -8 -20 36.8 9.7
-20 14 8 41.3 42.4
-20 -14 -8 62.59 9.4
14 8 -20 47.4 33
-8 -20 -14 32 8.6
-14 8 -20 71.29 48.4
-14 8 -20 42.4 12.3
8 -20 -14 41.5 11.1
-20 14 -8 52.59 42
14 -8 -20 34.6 30.2
-8 20 -14 12.3 44.6
-8 -20 -16 284.07 29.4
-20 -16 -8 362.96 29.5
-20 16 8 231.38 68.59
16 8 -20 270.27 46.5
-16 -8 -20 258.87 29.4
20 -16 8 281.37 34.5
-8 -20 -16 264.97 58.19
20 -16 8 320.27 55.39
20 -16 -8 305.57 37.9
16 -8 -20 272.07 65.79
-16 8 -20 266.37 30.9
16 -8 -20 313.77 62.59
8 -20 -16 326.57 31
-8 -20 -18 499.95 44.9
20 -18 8 499.65 48.9
-18 -8 -20 510.65 44.8
18 8 -20 453.95 60.39
-8 -20 -18 515.85 77.29
-20 -18 -8 476.15 44.3
20 -18 8 402.66 69.49
-18 8 -20 438.06 45.9
18 -8 -20 446.86 49.9
20 -18 -8 502.25 47.2
20 -18 -8 521.75 52.39
20 0 -10 55.49 26.9
-20 0 -10 79.19 34.7
0 10 -20 47.2 36.7
20 2 -10 -1.7 22.7
2 10 -20 -15.1 32.5
-10 20 -2 37.7 34.5
20 -2 -10 30.1 26.6
-20 2 -10 43 34.6
-2 10 -20 -15.5 34.1
4 10 -20 140.79 40.3
20 4 -10 140.29 33.4
20 -4 -10 114.59 31.7
-10 20 -4 132.99 42.7
-4 10 -20 90.69 39.5
-20 4 -10 150.78 43.6
20 6 -10 334.87 48.3
6 10 -20 273.37 50.99
-10 20 -6 320.87 56.59
-6 10 -20 303.27 55.99
-20 6 -10 349.67 57.19
20 -6 -10 424.76 49.9
8 10 -20 180.58 42.5
-20 8 10 205.18 44
-20 -8 -10 165.98 20.3
20 8 -10 215.08 37.9
20 -8 10 195.68 23.3
-10 -20 -8 189.48 20.9
-10 20 -8 145.99 46.9
-20 8 -10 245.58 49.5
20 -8 -10 192.58 35.1
10 -20 -8 188.18 21.3
-8 10 -20 244.78 49.7
-10 -20 -10 -6.3 6.3
10 10 -20 27.5 33.9
20 -10 10 3.2 12.4
-20 10 10 28.9 33.7
20 10 -10 -14.6 25.3
-20 -10 -10 -1.5 6.8
10 -20 10 -4.5 12.5
-10 -10 -20 5.2 7.7
10 -10 20 174.38 181.48
-10 10 -20 36.3 42.1
-20 10 -10 8 38.9
10 -20 -10 -6.8 9.2
-10 20 -10 -16.8 37.5
-20 12 10 44.7 39.3
12 10 -20 85.59 36.2
-12 -10 -20 48.2 10.3
20 -12 10 68.39 15.5
10 -20 12 55.49 15.7
-10 -20 -12 32.6 9.1
-20 -12 -10 70.79 10.1
-10 20 -12 40.7 45.7
10 -20 -12 68.49 12.1
-20 12 -10 48.1 43.4
-12 10 -20 103.99 48.7
-10 -20 -14 2.3 7.1
-14 -10 -20 11.8 8.2
-20 -14 -10 14.6 7.6
20 -14 10 -15.6 13.3
14 10 -20 -31 34.1
10 -20 14 -6 18
-20 14 10 -8.5 41
10 -20 -14 28.5 10.5
-14 10 -20 0 11.9
-20 14 -10 156.68 80.29
-14 10 -20 47.5 50.79
-10 20 -14 -12.8 46.1
16 10 -20 68.59 30.7
-10 -20 -16 28.7 46.4
20 -16 10 62.29 43.7
-16 -10 -20 61.29 10.8
-10 -20 -16 59.39 10.4
20 -16 10 52.09 16.4
-20 -16 -10 47.4 9.8
10 -20 -16 45.8 12.1
-16 10 -20 48.2 13.2
20 -16 -10 46.4 21
18 10 -20 158.68 36.1
-20 -18 -10 192.28 19.6
-10 -20 -18 84.29 59.19
20 -18 10 295.57 58.19
-18 -10 -20 143.89 18.9
20 -18 10 208.78 24.3
-10 -20 -18 157.88 19.1
20 -18 -10 145.39 25.6
-18 10 -20 191.08 21.2
18 -10 -20 140.19 22.3
12 -20 0 161.78 26.9
-12 20 0 177.98 41.8
20 0 -12 145.79 35.1
0 12 -20 156.08 43.7
12 -20 2 50.59 17.1
-20 -2 -12 75.49 13.9
2 12 -20 73.89 40.1
20 2 -12 113.99 30.8
-12 20 -2 54.09 37
12 -20 -2 36.7 16.3
-2 12 -20 -6.3 38.6
-20 2 -12 75.69 15
20 -2 -12 54.89 28.2
-20 2 -12 65.09 37.5
4 12 -20 24 36.3
12 -20 4 20.9 12.2
-20 -4 -12 12.7 7.4
20 4 -12 21.7 25.5
20 -4 -12 2.4 25.2
-4 12 -20 7 36.1
-20 4 -12 11.7 11.5
-20 4 -12 -0.4 37.2
12 -20 -4 3.2 10.8
-12 20 -4 -10.8 36.6
12 -20 6 67.69 14.8
-12 -20 -6 80.99 11.6
20 -6 12 59.59 15.2
20 6 -12 104.99 30.4
6 12 -20 50.29 38.7
-6 -12 -20 73.39 12.5
-20 -6 -12 81.79 11.3
12 -20 -6 96.89 14.1
20 -6 -12 51.49 29
-12 20 -6 20.5 41.1
-6 12 -20 107.09 42.2
-20 6 -12 95.69 42.6
-20 6 -12 77.19 15.1
20 -8 12 24.2 13.2
12 -20 8 22.9 13.5
-8 -12 -20 15.5 8.4
-20 8 12 12.7 33
20 8 -12 53.59 28.8
-20 -8 -12 12.9 7
-12 -20 -8 10.4 7.5
8 12 -20 -27.4 32.7
-12 20 -8 28.8 40.9
-8 12 -20 35.8 41
-20 8 -12 -5.9 39.7
20 -8 -12 60.89 26.7
12 -20 -8 5.1 10.4
12 -20 10 48.6 14.7
20 10 -12 71.09 29.9
-20 10 12 124.59 40.5
-12 -20 -10 39.3 9.1
-20 -10 -12 54.09 9.5
10 12 -20 19.2 37
20 -10 12 36.8 14.3
-10 -12 -20 80.99 11
-12 20 -10 119.19 46
-10 12 -20 63.79 46.2
12 -20 -10 62.09 12.4
-20 10 -12 64.49 42.9
12 12 -20 179.48 44.3
-12 -20 -12 135.59 15.7
12 -20 12 113.69 19.8
20 -12 12 134.39 20.2
-20 12 12 78.09 47.5
-20 -12 -12 137.29 15.8
-12 -12 -20 164.08 17.1
20 12 -12 149.69 42.4
12 -20 -12 113.79 17.2
-12 20 -12 101.99 50.29
-20 12 -12 151.48 53.39
-12 12 -20 173.18 55.89
-12 -20 -14 -33.8 47.5
-14 -12 -20 42.2 9.7
12 -20 14 38.9 15.3
20 -14 12 41.2 14.5
-12 -20 -14 43.7 9.3
-20 -14 -12 64.89 10
12 -20 -14 45.4 11.9
20 -14 -12 16.5 20
-12 -20 -16 -1.5 7.5
12 -20 16 -28.7 14.6
-20 -16 -12 2.9 7.4
20 -16 12 -2.6 13.5
-16 -12 -20 -2.6 7.7
-12 -20 -16 -16.9 49.8
-16 12 -20 23.7 12
-20 -18 -12 34.7 9.4
20 -18 12 20.3 13.9
-18 -12 -20 37.1 9.4
-12 -20 -18 28.8 9.2
-12 -20 -18 61.19 61.49
-18 12 -20 38.1 13.4
20 0 -14 141.29 34.4
0 14 -20 146.89 43.5
14 -20 0 95.39 16.9
-14 20 0 152.68 43.9
-20 0 -14 90.79 13.5
14 -20 2 25.8 12.9
-20 -2 -14 24.7 8.8
2 14 -20 1.6 39
20 2 -14 135.69 31.6
-2 -14 -20 24.6 8.3
-14 20 -2 -22.4 38.7
-20 2 -14 28.4 10.4
20 -2 -14 33.5 28.9
14 -20 -2 41.9 12.6
-2 14 -20 30.2 43.2
20 4 -14 94.99 29.6
4 14 -20 99.19 40.4
-20 -4 -14 42 9.1
14 -20 4 18.2 13.4
-4 -14 -20 46.4 9.8
-14 -20 -4 45.8 9.4
-20 4 -14 52.69 12.9
14 -20 -4 69.79 13.3
-20 4 -14 -7.7 42.6
-4 14 -20 75.19 43.3
20 -4 -14 2.4 28.2
-14 20 -4 98.29 41.4
20 6 -14 189.78 37
-20 -6 -14 120.19 15.4
-14 -20 -6 148.79 15.7
6 14 -20 60.59 42.5
-6 -14 -20 152.58 16.3
14 -20 6 107.39 18.8
-20 6 -14 59.39 47
-20 6 -14 120.99 18.7
-6 14 -20 85.99 48.1
-14 20 -6 93.79 47.8
20 -6 -14 147.89 36.5
14 -20 -6 137.59 18
8 14 -20 41.9 38.8
-8 -14 -20 60.19 10.3
20 -8 14 41.7 14.7
-20 -8 -14 39.9 9
20 8 -14 83.99 32.7
14 -20 8 41.7 14.3
-14 -20 -8 27.3 8.5
-20 8 -14 56.49 13.7
-14 20 -8 110.49 45.1
-8 14 -20 69.39 45.5
-20 8 -14 -9 43.8
14 -20 -8 35.9 12.5
20 -8 -14 80.69 30
14 -20 10 15.4 13.5
-20 -10 -14 17.9 7.7
20 10 -14 30.8 31.2
10 14 -20 40.8 38.3
20 -10 14 3.3 13.3
-10 -14 -20 6.5 8.3
-14 -20 -10 17.5 7.2
-20 10 14 -25.9 39.5
-14 20 -10 -28.4 47.2
-10 14 -20 79.19 63.49
-20 10 -14 19.1 46.5
-20 10 -14 6.5 12.8
14 -20 -10 16.1 11.4
-12 -14 -20 70.69 10.8
-12 -14 -20 92.79 69.89
-20 -12 -14 43.9 10
14 -20 12 61.79 16.1
20 -12 14 44 15.3
-14 -20 -12 57.59 9.7
20 -12 -14 50.19 16
14 -20 -12 41.9 13
14 -20 14 -18.8 14
-14 -20 -14 28.7 8.3
-20 -14 -14 10.8 7.7
-14 -14 -20 22.6 8.7
20 -14 14 32.9 14.1
-14 -20 -16 -5.5 7.7
20 -16 14 11.9 14.6
-16 -14 -20 14.2 8.2
-20 -16 -14 12.1 8.5
14 -20 16 -6 13.8
-16 14 -20 8.8 12.8
-14 -20 -18 35.4 67.69
-20 -18 -14 64.59 10.5
-14 -20 -18 67.49 11.2
20 -18 14 64.89 16.1
14 -20 18 46.2 21.8
-18 -14 -20 66.59 11
-18 14 -20 61.79 14.2
-20 0 -16 6.7 8.2
0 -16 -20 10.4 7.7
16 -20 0 -9.6 12.3
20 0 -16 62.19 32.9
0 16 -20 11.1 41.8
-16 20 0 39.5 42.4
-2 -16 -20 34.2 9.1
-20 -2 -16 45.6 9.8
16 -20 2 34 14.4
2 16 -20 8.1 44
-16 20 2 22.2 54.19
20 2 -16 37.7 32.6
-16 20 -2 52.39 43
20 -2 -16 38.1 30.7
-2 16 -20 73.69 46
16 -20 -2 44.6 13.6
-20 2 -16 58.99 11
4 16 -20 339.77 59.29
16 -20 4 320.17 32.5
20 4 -16 460.65 54.69
-20 -4 -16 265.07 28.3
-4 -16 -20 263.67 28.4
-4 16 -20 295.17 58.79
-20 4 -16 148.49 80.29
-16 20 -4 248.08 59.29
20 -4 -16 276.47 49.2
-20 4 -16 284.37 30.3
16 -20 -4 289.57 31.5
-6 -16 -20 409.66 39.6
-16 -20 -6 403.26 39.1
6 16 -20 436.16 67.89
20 6 -16 466.45 61.89
-20 -6 -16 455.75 39.2
16 -20 6 408.46 42.6
-6 -16 -20 300.67 94.19
16 -20 -6 426.66 41.6
-16 20 -6 386.06 69.19
20 -6 -16 430.06 47.2
-6 16 -20 377.26 72.19
20 -6 -16 507.75 60.99
-20 6 -16 402.16 41.5
16 -20 -6 406.76 54.79
-20 6 -16 288.57 69.69
16 -20 8 210.58 56.09
-20 -8 -16 230.78 26.4
-16 -20 -8 267.97 26.5
-8 -16 -20 301.37 27.7
20 8 -16 294.87 40.8
16 -20 8 249.78 31
-8 -16 -20 370.76 78.29
16 -20 -8 226.58 37.9
20 -8 -16 271.87 33.4
-20 8 -16 282.07 30.6
16 -20 -8 271.87 29.8
20 -10 16 80.89 15.8
-10 -16 -20 77.69 11.6
16 -20 10 50.89 15.2
-16 -20 -10 48.8 9.7
-20 -10 -16 56.29 10.3
-10 -16 -20 97.79 65.79
20 10 -16 47.5 28.9
16 -20 10 -46.2 45.7
16 -20 -10 49.1 13.6
20 -10 -16 42.1 14.9
-20 10 -16 41.3 14.8
-12 -16 -20 1.1 8.1
-16 -20 -12 6.4 7.1
-20 -12 -16 3.5 7.7
16 -20 12 -45 13.1
20 -12 16 5 13.4
-12 -16 -20 59.39 67.39
20 -12 -16 14.3 12.7
-20 12 -16 1 13.1
16 -20 -12 -6 11.5
16 -20 14 15.1 14.8
20 -14 16 -15.6 14.6
-14 -16 -20 16.6 8.6
-20 -14 -16 21.2 7.9
-16 -20 -14 13.5 7.9
-20 14 -16 7.2 13.8
-20 -16 -16 72.49 10.9
-16 -16 -20 74.89 11.2
16 -16 20 66.79 17.9
-16 -20 -16 52.39 10.7
16 -20 16 46.8 15.9
20 -16 16 90.39 16.6
-16 16 -20 74.59 16
-20 -18 -16 223.28 21.7
20 -18 16 212.08 25.2
-16 -20 -18 175.88 21.7
-18 -16 -20 216.68 22
16 -20 18 198.78 24.8
-18 16 -20 187.58 23.7
18 -20 0 43.2 30.7
-18 20 0 49.1 72.19
20 0 -18 47.7 21.8
0 -18 -20 67.49 48.4
0 -18 -20 42.8 9.7
18 -20 0 29.7 13.7
-20 0 -18 35.5 9.9
-18 20 2 92.89 66.49
-2 -18 -20 120.49 16
-2 -18 -20 102.59 53.49
20 2 -18 167.08 30.4
18 -20 2 114.69 38.3
18 -20 2 147.29 20.3
-20 -2 -18 126.39 16.4
2 -18 -20 154.88 17
18 -20 -2 150.58 34.7
-20 2 -18 128.89 16.7
18 -20 -2 154.58 20.2
2 -18 -20 231.68 52.49
20 -2 -18 129.89 26.8
18 -20 4 466.95 64.89
-4 -18 -20 358.96 75.39
20 4 -18 443.76 55.59
-20 -4 -18 425.76 40.8
-4 -18 -20 423.26 40.7
18 -20 4 446.96 44.2
18 -20 -4 438.36 43.5
4 -18 -20 579.34 69.89
-20 4 -18 441.76 41.4
20 -4 -18 428.26 49.1
18 -20 -4 389.06 52.39
-20 -6 -18 659.13 57.79
18 -20 6 608.04 60.29
-18 -20 -6 679.83 57.79
20 6 -18 658.53 71.59
18 -20 6 800.32 88.59
-6 -18 -20 641.64 58.19
-6 -18 -20 509.15 93.19
6 -18 -20 609.94 81.19
20 -6 -18 583.94 64.09
-20 6 -18 666.43 58.99
18 -20 -6 587.24 68.99
18 -20 -6 637.04 60.09
-20 -8 -18 523.95 43.8
20 8 -18 521.15 59.19
-18 -20 -8 441.46 43.3
-8 -18 -20 393.66 84.69
-8 -18 -20 473.65 44.1
18 -20 8 342.87 73.19
18 -20 8 476.15 46.8
18 -20 -8 387.76 53.99
20 -8 -18 441.06 49.2
18 -20 -8 495.75 46.1
-20 8 -18 494.85 45.6
18 -20 10 186.88 23.3
20 10 -18 90.29 32.8
18 -20 10 185.18 53.29
-10 -18 -20 184.68 20.3
-20 -10 -18 134.29 18
-18 -20 -10 148.39 18.6
-10 -18 -20 173.58 68.79
18 -20 -10 178.08 21.1
20 -10 -18 145.89 22.1
-20 10 -18 212.98 21.9
18 -20 -10 143.99 28.8
18 -20 12 31.4 15.5
-18 -20 -12 44.8 9.6
-20 -12 -18 34.8 9.2
-12 -18 -20 -54.49 62.09
-12 -18 -20 54.49 10.2
-20 12 -18 27.1 13.7
18 -20 14 82.49 16.5
-14 -18 -20 76.09 11.8
-14 -18 -20 107.79 73.09
-20 -14 -18 64.79 10.6
20 -14 18 40.2 16.4
-18 -20 -14 65.59 10.8
-20 14 -18 78.79 15.4
18 -20 16 157.28 23.8
20 -16 18 184.38 24.4
16 -18 20 205.18 25.2
-20 -16 -18 180.78 20.8
-16 -18 -20 233.38 21.7
-18 -20 -16 196.28 20.8
-20 16 -18 174.18 23.2
-20 -18 -18 303.17 28
20 -18 18 306.77 32.5
-18 -20 -18 296.17 28.1
-18 -18 -20 269.57 28.1
18 -20 18 322.37 32.4
-18 20 -18 253.57 30.9
-18 18 -20 264.47 31.1
-20 18 -18 235.98 30.8
-20 0 -20 18.5 9.4
0 -20 -20 18.8 46.2
0 -20 -20 31.8 10
20 -20 0 3.3 30.1
20 -20 0 24.4 13.5
20 0 -20 70.19 23.2
-20 -2 -20 66.99 12.5
20 -20 2 100.89 17
-2 -20 -20 119.49 51.99
-2 -20 -20 93.59 12.7
20 -20 2 83.49 35.1
20 2 -20 108.59 26.8
20 -20 -2 63.69 30.8
20 -20 -2 63.99 15.4
2 -20 -20 77.29 47.4
-20 2 -20 62.39 12.2
20 -2 -20 65.49 23.3
2 -20 -20 72.59 13
-20 -4 -20 301.87 29.9
20 -20 4 296.17 34.8
-4 -20 -20 281.67 66.79
-4 -20 -20 272.37 29.3
20 -20 4 324.87 53.69
20 4 -20 339.77 42.8
20 -20 -4 288.87 42.9
20 -20 -4 276.17 32.8
4 -20 -20 349.87 57.59
-20 4 -20 287.37 30.1
20 -4 -20 324.97 39.6
4 -20 -20 287.17 30
-20 -20 -6 453.25 44.1
-20 -6 -20 406.36 40.3
20 -20 6 491.45 69.39
-6 -20 -20 463.75 78.79
-6 -20 -20 414.16 40.4
20 6 -20 465.35 57.09
20 -20 6 454.55 45.2
20 -20 -6 422.86 42.9
-20 6 -20 447.16 41.1
20 -20 -6 404.06 50.99
20 -6 -20 398.96 47.3
6 -20 -20 429.06 65.39
-20 -20 -8 268.07 27.4
-20 -8 -20 280.77 28
20 8 -20 254.67 42.2
-8 -20 -20 203.18 74.39
-8 -20 -20 266.87 28
20 -20 8 314.77 32.5
20 -20 8 321.97 63.89
20 -20 -8 271.77 31
20 -20 -8 264.67 37.7
20 -8 -20 255.27 34.2
-20 -20 -10 68.59 11.5
-20 -10 -20 91.69 12.3
20 10 -20 61.59 30.1
-10 -20 -20 -16.6 60.59
-10 -20 -20 85.99 12.2
20 -20 10 68.89 16.9
20 -20 10 36.6 47.9
20 -20 -10 84.69 21.7
20 -20 -10 82.79 25.6
20 -10 -20 88.79 15.9
-20 10 -20 60.09 13.6
-20 -20 -12 4.3 7.4
-20 -12 -20 14.4 7.9
20 12 -20 -4.5 42.5
-12 -20 -20 -91.09 59.19
-12 -20 -20 6.4 8.1
20 -20 12 19.1 13.5
-20 12 -20 22.1 11.4
-20 -20 -14 36.4 8.7
-20 -14 -20 36.9 9
20 -20 14 35.8 14.4
-14 -20 -20 30.9 64.59
-14 -20 -20 37.7 9.4
-20 14 -20 17.8 11.9
-20 -20 -16 167.38 17.9
-20 -16 -20 159.58 17.8
20 -20 16 135.09 20.5
-16 -20 -20 134.99 16.9
-20 16 -20 130.49 19.1
-20 -20 -18 277.27 24.9
-20 -18 -20 237.28 24.7
20 -20 18 277.97 29.5
-18 -20 -20 243.68 24.9
-20 20 -18 256.27 28
-18 20 -20 198.18 26.1
-20 18 -20 217.48 27.1
-21 -1 -1 507.65 61.29
1 1 -21 499.75 60.79
-1 -1 -21 448.06 58.89
-21 1 1 450.55 59.29
-21 1 -1 397.96 59.39
-1 1 -21 501.65 60.89
1 -1 -21 514.35 62.69
-21 -1 1 486.85 59.59
3 1 -21 20.3 29.5
-3 -1 -21 5.5 31.4
-21 -3 -1 46.4 29.1
-21 3 1 53.49 33.8
3 -1 -21 109.19 30.9
-3 1 -21 34.7 31.7
-21 -3 1 76.79 29.4
-21 3 -1 27.8 31.8
-21 -5 -1 69.99 29.4
-21 5 1 90.19 36.1
-5 -1 -21 93.09 36.5
5 1 -21 60.09 30.3
5 -1 -21 109.49 31.5
-21 -5 1 79.19 30.3
-21 5 -1 58.69 36.7
-5 1 -21 96.29 36.3
7 1 -21 72.29 30.3
-21 7 1 74.89 36
7 -1 -21 78.69 31.4
-7 1 -21 -10.1 35.6
-21 7 -1 20.3 33.4
1 21 -9 162.68 242.38
-21 9 1 20.6 35.1
9 1 -21 31.5 28.6
-9 1 -21 51.39 45.1
9 -1 -21 -2.9 26.6
-21 9 -1 -17.9 33.2
-1 -21 -11 162.48 20.5
-21 11 1 223.38 48.6
11 1 -21 204.08 39.7
1 21 -11 163.48 70.19
-1 21 -11 180.18 45.1
-21 11 -1 226.88 48.2
11 -1 -21 213.58 39.8
1 -21 -11 220.68 21.8
13 1 -21 205.98 40.3
-21 13 1 137.19 45.1
-13 -1 -21 205.08 21.2
-1 -21 -13 152.18 20
21 -13 1 165.18 22.6
1 21 -13 185.28 48.9
-1 21 -13 205.28 49.8
21 -13 -1 178.38 22
1 -21 -13 173.08 20.5
13 -1 -21 214.08 41.5
-13 1 -21 183.68 20.5
-21 13 -1 189.38 48.6
1 21 -15 76.99 45
15 1 -21 51.99 33.1
-21 15 1 21.7 42
21 -15 1 20.8 13.4
-15 -1 -21 47.4 10.5
-1 -21 -15 67.19 10.3
-1 21 -15 -3.5 48.2
21 -15 -1 4.6 13.5
1 -21 -15 40.6 10.2
15 -1 -21 64.89 34.4
-15 1 -21 44.2 10.4
-21 15 -1 32 44.7
21 -17 1 -0.6 13.1
-1 -21 -17 30.8 9.6
-17 -1 -21 18.2 9.4
-1 -21 -17 35.6 42.6
21 -17 1 -23.6 26.9
21 -17 -1 35.4 25.8
21 -17 -1 19.7 13.1
1 -21 -17 35.3 9.8
1 -21 -17 -13.7 39.8
-17 1 -21 14.6 9.2
19 1 -21 52.59 22.8
21 -19 1 37.7 14
21 -19 1 7.2 29.7
-19 -1 -21 30.1 9.9
-1 -21 -19 92.29 44.2
-1 -21 -19 27 9.8
1 -21 -19 11.8 9.8
1 -21 -19 2.6 40.1
21 -19 -1 2.7 27.3
21 -19 -1 33.8 13.6
19 -1 -21 45 22.8
-19 1 -21 17 9.6
-21 1 3 37.5 29.1
21 1 -3 55.89 24.6
-1 -3 -21 93.29 50.79
1 3 -21 13.1 28.6
-21 -1 -3 17.8 30.3
-1 3 -21 7.3 30.4
1 -3 -21 21.2 27.4
-21 1 -3 30.2 31.9
-21 -1 3 57.69 29.8
-21 -3 -3 36.8 29.5
-21 3 3 54.29 31.2
3 3 -21 48.4 31.3
21 3 -3 118.49 26.8
-3 3 -21 8.2 31.4
-21 -3 3 113.09 32.1
-21 3 -3 66.09 34.2
3 -3 -21 101.39 29.9
21 5 -3 359.36 43.9
5 3 -21 292.07 46.7
-21 5 3 245.28 47.8
-5 3 -21 268.27 49.8
-21 5 -3 310.07 50.29
5 -3 -21 267.27 42.8
7 3 -21 375.66 49.8
21 7 -3 280.77 42.1
-21 7 3 250.67 49.9
3 21 -7 245.08 285.07
-7 3 -21 317.47 52.59
-21 7 -3 303.77 52.39
7 -3 -21 309.67 45.4
9 3 -21 94.19 33.4
-21 9 3 46.8 32.8
9 -3 -21 35.4 28.3
-21 9 -3 13.3 37.6
-3 21 -9 45.2 36.8
-9 3 -21 17 38.5
-3 -21 -11 45.1 8.7
11 3 -21 41 29.3
21 -11 3 37.2 14.5
-21 11 3 24.6 36
-3 21 -11 54.89 38.8
-11 3 -21 38.6 42.8
-21 11 -3 36.1 38
3 -21 -11 33.5 9.8
11 -3 -21 68.69 27.9
13 3 -21 31.3 29.7
21 -13 3 61.39 14.8
-21 13 3 43.3 40.3
-13 -3 -21 52.39 10.5
-3 -21 -13 65.69 10.1
-3 21 -13 40.9 43.9
21 -13 -3 0 12.9
3 -21 -13 52.09 10.9
-21 13 -3 -1.5 41.2
13 -3 -21 61.29 33.5
-13 3 -21 61.99 11
3 21 -15 64.19 44.4
-15 -3 -21 37.5 9.9
15 3 -21 54.99 31.2
21 -15 3 28.5 14.4
-21 15 3 -50.19 41
-3 -21 -15 92.39 10.8
21 -15 -3 7 13
15 -3 -21 66.79 38.2
-3 21 -15 65.69 47.1
3 -21 -15 42 10.5
-15 3 -21 26.2 10.1
-21 15 -3 36.2 44.2
21 -17 3 144.89 40.3
-17 -3 -21 149.69 17.9
-3 -21 -17 181.08 19
-3 -21 -17 301.77 53.79
21 -17 3 162.58 21.2
21 -17 -3 129.49 30.4
3 -21 -17 152.08 18.4
3 -21 -17 183.88 45.7
17 -3 -21 317.37 75.29
21 -17 -3 96.09 20.4
-17 3 -21 162.38 18.5
-19 -3 -21 169.58 18.7
21 -19 3 171.48 41.9
19 3 -21 187.28 31.6
21 -19 3 166.88 22.3
-3 -21 -19 169.28 19.4
-3 -21 -19 238.88 54.09
19 -3 -21 157.68 28.1
21 -19 -3 199.98 35.5
3 -21 -19 71.09 43.1
21 -19 -3 140.49 21.1
3 -21 -19 130.49 18.5
-19 3 -21 154.78 18.5
21 1 -5 83.79 25.6
1 5 -21 32.6 31.9
-21 1 5 26.5 30.3
-21 -1 -5 69.19 31.5
21 -1 -5 72.09 26
-1 5 -21 97.59 34.7
-21 1 -5 44.6 30.9
3 5 -21 187.68 42.1
-21 -3 -5 223.98 42
-21 3 5 214.48 43.2
21 3 -5 385.66 45.3
-21 3 -5 200.38 44.5
-3 5 -21 244.88 45.8
21 -3 -5 251.67 38.8
-21 5 5 527.75 71.49
21 5 -5 607.14 68.09
5 5 -21 561.64 73.09
-5 5 -21 636.64 76.89
-21 5 -5 583.44 76.59
5 -5 -21 634.64 67.79
7 5 -21 674.93 76.39
-21 7 5 585.04 77.29
21 7 -5 635.14 71.19
-7 5 -21 614.94 78.09
7 -5 -21 572.94 70.29
-5 21 -7 615.74 77.49
-21 7 -5 746.23 82.49
-21 9 5 237.98 48.5
9 5 -21 331.77 49.6
9 -5 -21 254.17 39.9
-5 21 -9 262.07 51.49
-21 9 -5 231.78 49.7
-9 5 -21 240.08 52.89
11 5 -21 -33.4 28.9
-11 -5 -21 12.8 8.6
21 -11 5 21.6 14
-21 11 5 12.3 35
-5 -21 -11 18.9 7.4
-11 5 -21 15.3 44.1
-5 21 -11 12 41
5 -21 -11 23.5 9.2
11 -5 -21 -10.2 25.7
-21 11 -5 -13.3 37.9
-13 -5 -21 9.5 8.3
-21 13 5 28.7 39.5
21 -13 5 6.5 13.9
13 5 -21 5.3 30.3
-5 -21 -13 39.7 8.3
-13 5 -21 23.8 49.1
13 -5 -21 9.4 30.7
-5 21 -13 21.4 42.5
-13 5 -21 15.7 10.2
-21 13 -5 -9.1 39.7
5 -21 -13 16.4 9.1
-21 15 5 149.19 48.4
21 -15 5 125.99 19.6
15 5 -21 85.59 38.5
-5 -21 -15 318.07 58.49
-15 -5 -21 116.69 15.2
-5 -21 -15 148.09 16.4
-15 5 -21 132.59 72.99
21 -15 -5 60.19 17.3
21 -15 -5 153.38 32.4
-15 5 -21 121.39 15.8
5 -21 -15 196.58 70.39
15 -5 -21 237.38 72.49
15 -5 -21 147.59 40.8
-21 15 -5 117.19 50.29
5 -21 -15 113.99 15.8
-5 21 -15 125.89 53.09
17 5 -21 333.17 49.8
21 -17 5 395.56 39.5
-5 -21 -17 445.36 63.99
-5 -21 -17 355.56 34.5
21 -17 5 455.75 58.89
-17 -5 -21 359.16 34.9
5 -21 -17 389.06 57.09
-17 5 -21 369.26 35.2
21 -17 -5 334.07 37.4
21 -17 -5 349.87 45
5 -21 -17 339.67 35.2
21 -19 5 434.56 40.7
-19 -5 -21 370.56 35.6
21 -19 5 440.16 59.39
19 5 -21 407.26 49.1
-5 -21 -19 351.26 65.89
-5 -21 -19 350.86 35
-19 5 -21 369.66 35.2
21 -19 -5 346.37 45.8
5 -21 -19 296.07 55.89
5 -21 -19 318.87 35.1
19 -5 -21 360.46 42.8
21 -19 -5 341.97 37.5
-21 -1 -7 94.59 32.2
21 1 -7 50.39 25.4
1 7 -21 52.19 34.9
-1 7 -21 48.8 32.3
-21 1 -7 76.79 32.7
21 -1 -7 -1.6 24.8
3 7 -21 188.18 45.2
21 3 -7 308.17 41.9
-21 3 -7 326.77 49
-3 7 -21 247.88 48.7
21 -3 -7 254.57 40.3
-21 5 7 676.63 78.99
21 5 -7 678.93 72.79
5 7 -21 623.94 77.59
-7 21 -5 604.24 77.29
-21 5 -7 572.14 76.49
-5 7 -21 618.34 81.39
21 -5 -7 681.23 71.79
7 7 -21 673.83 79.99
-21 7 7 664.43 80.89
21 7 -7 670.83 75.59
-7 21 -7 635.14 83.69
-21 7 -7 632.84 80.69
-7 7 -21 715.63 84.79
21 -9 7 331.07 33
21 9 -7 308.07 46.7
-7 -21 -9 230.78 28.1
-21 9 7 366.46 53.99
9 7 -21 383.56 52.69
-9 7 -21 306.87 55.69
7 -21 -9 305.27 30.1
-7 21 -9 401.26 58.89
-21 9 -7 368.56 56.79
-21 -11 -7 32.3 8.4
11 7 -21 32.8 33.6
-11 -7 -21 27.4 9.3
-21 11 7 24.4 37.7
21 -11 7 41.2 14.3
-7 -21 -11 20.4 7.7
-7 21 -11 87.09 44.4
7 -21 -11 42.9 10.1
11 -7 -21 27.7 29.7
-21 11 -7 62.49 40.5
-11 7 -21 70.59 46.4
-7 -21 -13 -1.2 7
-21 13 7 25.1 41.2
21 -13 7 -14.2 13.8
-21 -13 -7 21 7.7
-13 -7 -21 0.9 8.2
13 7 -21 47.4 32.9
-21 13 -7 21.9 42.1
13 -7 -21 36 30.4
-13 7 -21 -17.4 47.8
-7 21 -13 2 44.3
7 -21 -13 15.3 9.4
-7 -21 -15 94.39 13.6
-21 -15 -7 132.19 13.8
-15 -7 -21 92.29 13.9
21 -15 7 118.99 19.1
21 -15 7 113.69 41
-7 -21 -15 154.08 50.49
21 -15 -7 114.89 27.4
15 -7 -21 53.09 37.3
7 -21 -15 96.39 39.5
7 -21 -15 117.29 15
15 -7 -21 116.89 59.59
-15 7 -21 86.99 14.7
-15 7 -21 121.89 69.19
21 -17 7 374.06 40.1
-7 -21 -17 349.07 63.89
-7 -21 -17 370.86 35.1
-21 -17 -7 380.36 34.6
-17 -7 -21 392.36 35.5
21 -17 7 381.36 59.39
17 7 -21 381.06 51.79
7 -21 -17 364.86 36.1
21 -17 -7 353.76 45
7 -21 -17 383.66 54.79
21 -17 -7 321.27 37.5
-17 7 -21 339.67 35.8
21 -19 7 449.06 63.99
-21 -19 -7 356.06 34.9
-19 -7 -21 363.96 35.2
21 -19 7 421.66 40.9
-7 -21 -19 404.36 72.49
-7 -21 -19 349.17 35.1
19 7 -21 330.37 49
-19 7 -21 442.46 36.6
7 -21 -19 376.06 56.29
7 -21 -19 381.76 36.2
21 -19 -7 347.17 45
21 -19 -7 322.17 37.7
19 -7 -21 295.27 41.8
1 9 -21 -27 32.7
21 1 -9 17.2 24.6
-21 1 -9 -17.8 31.4
21 -1 -9 35.4 26.5
-1 9 -21 0.6 32.7
21 3 -9 22.9 26.6
3 9 -21 65.79 35.7
9 21 -3 -46 278.67
-21 3 -9 27.1 35.4
21 -3 -9 51.69 28.8
-3 9 -21 23.1 36.4
5 9 -21 248.78 46.1
21 5 -9 213.88 39.2
21 -5 9 171.68 33.1
9 -21 -5 229.48 28.3
-5 9 -21 250.27 49.8
-21 5 -9 190.68 30.7
-21 5 -9 314.77 50.89
21 -5 -9 314.57 40.7
-9 21 -5 242.18 49.6
-21 -7 -9 270.77 27.9
7 9 -21 268.97 51.19
-9 -21 -7 241.98 27.2
21 -7 9 287.37 31.6
21 7 -9 326.87 45.7
-21 7 9 333.67 52.29
9 -21 7 295.37 33.8
9 -21 -7 277.37 29
-7 9 -21 282.27 54.29
-9 21 -7 304.97 52.99
-21 7 -9 337.57 54.59
-21 9 9 72.39 36.5
-21 -9 -9 64.49 12.8
9 -21 9 103.29 16.2
-9 -9 -21 62.89 11.3
21 -9 9 107.59 16.6
-9 -21 -9 68.09 10.9
21 9 -9 90.79 31.9
9 9 -21 51.09 35.4
-9 21 -9 81.49 42.4
9 -21 -9 76.09 13.1
-9 9 -21 80.49 45.9
-21 9 -9 142.99 45
9 -21 11 11.8 13.8
-21 -11 -9 26.3 8
-11 -9 -21 16 8.8
11 9 -21 39.3 34.5
-9 -21 -11 26.1 7.5
21 -11 9 6.9 13.7
-21 11 9 30.7 36.5
-9 21 -11 35.5 45.1
-11 9 -21 95.09 47.9
-21 11 -9 114.39 44
9 -21 -11 4.5 9.9
-21 -13 -9 44.8 9.3
-13 -9 -21 32.5 9.7
13 9 -21 4.4 33.5
-21 13 9 47.8 42.3
-9 -21 -13 50.99 9.1
21 -13 9 40.1 15.2
-21 13 -9 -1.9 51.89
-9 21 -13 25.8 49.4
21 -13 -9 43.5 39.1
9 -21 -13 43.8 11.5
-13 9 -21 78.09 53.69
-9 -21 -15 37.8 43.5
-15 -9 -21 13.3 9
21 -15 9 4.4 15.1
21 -15 9 92.99 43.7
-21 -15 -9 60.19 9.1
-9 -21 -15 22.1 8.7
21 -15 -9 60.29 21.8
-15 9 -21 33.7 11.5
9 -21 -15 59.99 12
15 -9 -21 52.79 54.99
-21 -17 -9 165.88 18.2
21 -17 9 122.59 22
-9 -21 -17 141.69 17.6
17 9 -21 164.78 34.6
21 -17 9 235.88 50.79
-17 -9 -21 150.28 17.6
-9 -21 -17 97.89 53.99
21 -17 -9 124.19 25.3
9 -21 -17 196.58 21
17 -9 -21 102.09 24.5
-17 9 -21 140.79 18.4
-9 -21 -19 178.38 65.79
-21 -19 -9 140.29 17.4
21 -19 9 160.58 22.5
-19 -9 -21 162.08 18.8
-9 -21 -19 123.09 17.1
21 -19 9 284.57 59.29
19 9 -21 128.49 38.1
-19 9 -21 179.38 19.4
19 -9 -21 147.49 23.4
21 -19 -9 155.28 28.7
21 1 -11 235.68 39.2
11 -21 1 222.38 24.9
-21 -1 -11 176.88 22.4
1 11 -21 165.18 45.9
11 -21 -1 193.38 23.3
21 -1 -11 256.57 41.3
-21 1 -11 216.58 24.2
-1 11 -21 204.28 47.6
-21 1 -11 302.07 49.8
-21 -3 -11 51.19 9.2
21 3 -11 19.8 26.4
11 -21 3 30.7 12.4
3 11 -21 40.1 36.8
-11 21 -3 -50.69 38.8
-21 3 -11 53.99 38.8
-3 11 -21 42.7 38.9
-21 3 -11 28.3 11.6
11 -21 -3 17.8 11.3
21 -3 -11 99.29 30.8
-21 -5 -11 10.4 7.4
21 -5 11 0.4 12.7
-11 -21 -5 16.6 7.7
5 11 -21 16.7 35.7
11 -21 5 15.3 12.2
21 5 -11 3.8 26.7
-21 5 -11 2.1 11.9
21 -5 -11 33.4 26.7
11 -21 -5 13.3 10.3
-11 21 -5 26 36.8
-5 11 -21 33.8 39
-21 5 -11 58.39 39.7
-7 -11 -21 17.4 8.4
7 11 -21 17.9 36.5
21 7 -11 90.19 32
-11 -21 -7 25.5 17.7
11 -21 7 24.6 13.1
21 -7 11 22.9 13.8
-21 -7 -11 29.1 8.1
-21 7 11 22.4 34.7
21 -7 -11 39.1 26.6
-21 7 -11 43.5 13.5
-11 21 -7 -13.3 41.3
-21 7 -11 24.7 39.8
11 -21 -7 25.3 10.6
-7 11 -21 23 41.1
9 11 -21 55.79 35.3
11 -21 9 8.2 13.2
21 -9 11 1.3 13.2
-21 9 11 36.9 37.5
21 9 -11 58.99 29.6
-11 -21 -9 31 7.7
-9 -11 -21 14.4 8.5
-21 -9 -11 19.8 7.5
-21 9 -11 11.2 42.7
11 -21 -9 3.3 10.1
-9 11 -21 16.4 41.9
-11 21 -9 21.2 41.8
11 -21 11 219.28 25.4
21 -11 11 198.18 25.4
-21 11 11 168.38 50.19
-11 -21 -11 222.48 21.8
-21 -11 -11 190.28 21.7
21 11 -11 214.38 44.8
-11 -11 -21 198.48 22.4
11 11 -21 249.58 49.1
-21 11 -11 300.97 57.09
11 -21 -11 184.18 23.5
-11 21 -11 176.78 55.49
-11 11 -21 276.27 58.89
-11 -21 -13 206.88 20.2
-21 -13 -11 176.28 20
-13 -11 -21 172.68 20.5
21 -13 11 187.68 23.4
-11 -21 -13 283.97 57.79
11 -21 13 125.19 22.7
21 -13 -11 215.98 30.3
11 -21 -13 161.68 20.6
15 11 -21 34.9 32.1
-11 -21 -15 48.1 9.5
-21 -15 -11 50.09 9.1
21 -15 11 59.49 15.9
-11 -21 -15 45.7 48.9
-15 -11 -21 29 9.6
11 -21 15 25.1 23.1
21 -15 -11 30 20.4
11 -21 -15 32.4 11.3
-15 11 -21 42 13.7
-21 -17 -11 21.6 8.2
-17 -11 -21 5.3 8.5
17 11 -21 48.2 30.9
-11 -21 -17 78.99 53.39
-11 -21 -17 7.1 8
21 -17 11 -5.1 64.49
21 -17 11 12.4 14.7
-17 11 -21 7.7 10.8
21 -17 -11 9.2 16.7
-21 -19 -11 21.9 8.3
21 -19 11 -60.29 48.9
-11 -21 -19 -71.69 56.69
-19 -11 -21 33.9 8.9
19 11 -21 34.2 28.9
21 -19 11 17.4 13.9
-11 -21 -19 8.2 8.1
-19 11 -21 3.6 10.2
21 1 -13 145.29 37.6
1 13 -21 191.68 47.8
13 -21 1 146.79 21.9
-21 -1 -13 190.68 20.5
-21 1 -13 180.78 21.6
21 -1 -13 156.18 38.9
-1 13 -21 175.28 46.3
13 -21 -1 216.98 24
3 13 -21 16.2 39.3
-3 -13 -21 52.99 10.1
13 -21 3 36.8 13.8
21 3 -13 104.49 32.2
-21 -3 -13 50.29 9.6
-3 13 -21 -10 41.5
21 -3 -13 59.49 31.4
-21 3 -13 54.99 12.4
-21 3 -13 42.3 42.1
13 -21 -3 38.9 12.4
-13 21 -3 30.7 41.6
21 5 -13 97.29 31.8
5 13 -21 -13.4 35.6
-21 -5 -13 13.7 8.1
-13 -21 -5 20.8 7.7
13 -21 5 12.1 12.5
-5 -13 -21 13.9 8.6
21 -5 -13 -17.6 27.8
-5 13 -21 48.8 42.8
-21 5 -13 9 41.5
13 -21 -5 19.2 11.2
-21 5 -13 7.4 12
-13 21 -5 -58.99 41.9
13 -21 7 5.3 12.9
21 7 -13 61.39 32
-21 -7 -13 12.1 7.3
21 -7 13 22 13.8
-13 -21 -7 -3.3 6.7
-7 -13 -21 30.2 8.9
7 13 -21 -13.7 38.1
-21 7 -13 6.9 12.1
-21 7 -13 5.5 43.4
13 -21 -7 -2.4 11
21 -7 -13 51.79 28.5
-7 13 -21 -32.3 41.9
-13 21 -7 -45.4 40.4
21 9 -13 60.79 31.7
-9 -13 -21 70.19 10.8
21 -9 13 42.9 14.9
-21 -9 -13 54.49 9.5
13 -21 9 43.1 14.9
-13 -21 -9 47.2 9.2
9 13 -21 42.6 39
-21 9 13 29.4 40.7
-13 21 -9 -6.6 46.1
-21 9 -13 -7.3 47
-9 13 -21 24.9 44.8
21 -9 -13 10.5 23
-21 9 -13 13.8 13.5
13 -21 -9 45.5 12.6
-11 -13 -21 208.78 78.59
-21 -11 -13 176.98 20.9
-13 -21 -11 210.18 21
-11 -13 -21 185.68 21.6
21 -11 13 178.28 24.2
13 -21 11 153.08 24.2
13 -21 -11 223.58 32.5
21 -11 -13 220.38 26.2
13 -21 -11 199.68 22.6
-21 -13 -13 188.68 20.1
-13 -13 -21 163.08 20.1
21 -13 13 171.48 23.1
-13 -21 -13 166.08 19.8
13 -21 13 169.18 23.7
13 -21 -13 186.08 21.7
21 -13 -13 209.18 27.9
-13 -21 -15 38.9 10.1
-13 -21 -15 24.1 52.29
-15 -13 -21 32.7 10.1
21 -15 13 41.3 16
-21 -15 -13 32.6 9.2
13 -21 15 54.69 15.8
13 -21 -15 27.3 16.1
-13 -21 -17 -12.1 7.2
-17 -13 -21 -2.8 7.3
-13 -21 -17 15.5 59.99
21 -17 13 11.8 13.8
-21 -17 -13 6.7 7.4
-17 13 -21 -5.3 11.7
-19 -13 -21 11 7.7
-21 -19 -13 0.3 7.4
21 -19 13 6.1 13.4
-13 -21 -19 -41 61.19
-13 -21 -19 -4.7 7.6
-19 13 -21 -1.9 10.4
-21 -1 -15 29.9 9.8
1 15 -21 7.9 43
-1 -15 -21 58.09 9.5
21 1 -15 75.29 34.4
15 -21 1 51.19 14.5
-21 1 -15 33.6 10.2
21 -1 -15 55.89 32.7
-15 21 -1 19.2 45.7
15 -21 -1 51.19 14
-1 15 -21 81.09 45.3
15 -21 3 22.3 13.6
-3 -15 -21 36.6 9.4
21 3 -15 119.59 36.5
3 15 -21 38.3 43.2
-21 -3 -15 46.2 9.6
15 -21 -3 69.79 14.1
-15 21 -3 38.6 44.7
-3 15 -21 -46.2 44.3
21 -3 -15 -17.5 30.3
-21 3 -15 38.6 11.3
-21 -5 -15 121.49 14.9
21 5 -15 182.68 40.8
-5 -15 -21 41.6 68.49
5 15 -21 96.29 46.2
-15 -21 -5 116.99 14.5
-5 -15 -21 118.29 15.3
15 -21 5 107.99 18.8
-21 5 -15 119.89 50.49
15 -21 -5 119.49 17.7
21 -5 -15 146.19 38.4
-21 5 -15 107.99 17.2
21 -5 -15 122.09 24
-5 15 -21 107.49 50.49
-15 21 -5 83.49 52.69
5 -15 -21 328.87 84.39
15 -21 -5 94.09 34.4
15 -21 7 85.09 16.9
-7 -15 -21 94.69 13.6
-7 -15 -21 55.99 68.19
-21 -7 -15 91.39 12.5
-15 -21 -7 84.09 12.3
21 7 -15 65.89 28.5
15 -21 7 49.5 44.5
21 -7 -15 83.69 19.2
7 -15 -21 117.69 49
15 -21 -7 118.69 29.2
-15 21 -7 122.79 65.09
-21 7 -15 75.99 72.79
15 -21 -7 95.89 15.6
-21 7 -15 98.69 16.4
21 -9 15 11.5 13.8
-15 -21 -9 22.3 8.1
-9 -15 -21 50.79 66.69
15 -21 9 20.4 42.7
15 -21 9 6.9 13.3
-21 -9 -15 2.8 7.6
21 9 -15 1.3 24.8
-9 -15 -21 54.19 10.3
15 -21 -9 13.6 23.1
15 -21 -9 25.2 11.9
21 -9 -15 23.3 15.3
-21 9 -15 -0.5 13.5
21 -11 15 41 15.4
-21 -11 -15 47.1 9.8
-11 -15 -21 63.99 10.9
-11 -15 -21 54.89 71.79
15 -21 11 27.7 15.1
-15 -21 -11 30.2 8.9
21 -11 -15 56.19 16.3
15 -21 -11 48.9 12.9
-21 11 -15 51.19 14.9
-13 -15 -21 43.6 11.3
-21 -13 -15 44 9.7
21 -13 15 34.8 15.4
-13 -15 -21 44.6 74.39
15 -21 13 30.4 15.8
-15 -21 -13 37.1 9.3
-21 13 -15 41.5 16.3
15 -21 -13 42.9 12.5
21 -15 15 22.4 14
-15 -21 -15 6 7.5
-21 -15 -15 13.3 7.5
-15 -15 -21 9.3 8.1
15 -21 15 -14.7 14.5
21 -17 15 36.4 14.7
-21 -17 -15 37.4 8.7
-17 -15 -21 47.6 9.5
-15 -21 -17 36.4 9.4
15 -21 17 48 15.4
-17 15 -21 22 12.8
-19 -15 -21 56.79 10.2
21 -19 15 50.19 14.8
-15 -21 -19 -15.3 88.19
-21 -19 -15 60.19 10.2
-15 -21 -19 44.8 10.1
-19 15 -21 56.09 12.9
-1 -17 -21 24.9 8.4
21 1 -17 36.3 21
-1 -17 -21 62.09 55.49
17 -21 1 48.8 14.4
17 -21 1 -22.1 33
-21 -1 -17 21 9.1
1 -17 -21 133.89 53.79
21 -1 -17 12.8 18.5
1 -17 -21 39.2 9.7
-17 21 -1 12.6 68.99
17 -21 -1 32 13.5
-21 1 -17 4.3 9.2
17 -21 -1 11.5 31.2
-3 -17 -21 62.39 63.79
21 3 -17 260.87 33.9
17 -21 3 91.59 46.3
-21 -3 -17 141.29 17.4
17 -21 3 149.29 21.5
-3 -17 -21 132.09 16.9
21 -3 -17 130.79 26
3 -17 -21 371.36 59.49
-21 3 -17 163.28 18.4
17 -21 -3 131.09 37.4
17 -21 -3 169.68 21
17 -21 5 291.17 62.39
-17 -21 -5 368.36 34.3
17 -21 5 344.27 37.6
-5 -17 -21 298.67 78.39
-5 -17 -21 332.57 34
-21 -5 -17 347.57 33.9
21 5 -17 362.36 47
21 -5 -17 354.56 42.1
17 -21 -5 340.97 36.8
17 -21 -5 283.77 48
-21 5 -17 393.86 35.7
5 -17 -21 468.35 67.59
21 7 -17 332.17 46.2
-17 -21 -7 351.46 32.9
17 -21 7 348.97 62.79
-7 -17 -21 327.07 82.99
17 -21 7 380.16 37.2
-7 -17 -21 351.56 33.7
-21 -7 -17 321.27 32.9
-21 7 -17 330.77 35.4
17 -21 -7 333.47 45.9
17 -21 -7 318.77 35.6
7 -17 -21 395.46 61.69
21 -7 -17 321.87 39.4
17 -21 9 136.89 20.7
-9 -17 -21 165.18 17.6
17 -21 9 85.39 49.2
-21 -9 -17 132.99 16.5
-17 -21 -9 122.99 15.8
21 9 -17 139.39 33.2
-9 -17 -21 127.19 73.79
21 -9 -17 128.89 21.3
17 -21 -9 151.88 19.5
17 -21 -9 106.39 28.9
-21 9 -17 143.79 19.4
21 11 -17 2.7 27.8
-17 -21 -11 5.1 7.8
17 -21 11 -4.1 15.9
-11 -17 -21 18.7 9.4
-21 -11 -17 6.6 8.5
-11 -17 -21 53.79 67.89
17 -21 11 11.2 46.9
17 -21 -11 18.2 12.2
21 -11 -17 15.4 15
-21 11 -17 12.1 13.3
-13 -17 -21 -62.09 67.39
17 -21 13 2.9 13.3
-17 -21 -13 -0.2 6.9
-13 -17 -21 0.6 8.1
-21 -13 -17 14.9 7.7
21 -13 17 12 14
-21 13 -17 2.5 12.7
17 -21 15 50.99 14.8
-21 -15 -17 38.6 9
-17 -21 -15 34.7 8.9
21 -15 17 19 14.4
-15 -17 -21 34.3 9.5
-21 15 -17 32.9 13.3
-17 -17 -21 139.39 15.3
-21 -17 -17 116.39 14.4
-17 -21 -17 128.09 15
21 -17 17 113.19 19.1
17 -21 17 84.69 18.5
-17 17 -21 122.39 21.7
-21 17 -17 114.79 18
17 -21 19 152.18 21.7
-19 -17 -21 155.68 18.8
-21 -19 -17 196.58 18.6
-17 -21 -19 162.18 18.5
21 -19 17 161.98 21.8
-19 17 -21 150.18 19.8
-17 21 -19 133.59 20.3
-21 19 -17 160.68 20.9
-21 -1 -19 44.7 10.3
19 -21 1 42.9 34.4
-1 -19 -21 14.9 9.2
19 -21 1 43.9 14.8
21 1 -19 40.6 21.8
-1 -19 -21 54.59 55.09
19 -21 -1 44.2 14.2
1 -19 -21 28.8 10
1 -19 -21 25.4 52.09
19 -21 -1 24.6 30.7
21 -1 -19 60.79 21.4
-21 1 -19 18.8 9.5
19 -21 3 165.08 22.8
19 -21 3 139.49 45.7
-3 -19 -21 162.08 19.5
21 3 -19 185.68 31.9
-21 -3 -19 176.18 20.5
-3 -19 -21 149.29 63.79
-21 3 -19 150.98 19.2
21 -3 -19 146.09 27.4
19 -21 -3 155.38 21.9
19 -21 -3 138.79 35.1
3 -19 -21 286.27 57.99
3 -19 -21 179.08 21.2
19 -21 5 361.06 38.4
-5 -19 -21 312.67 75.99
21 5 -19 369.56 46.4
19 -21 5 370.76 64.29
-5 -19 -21 359.96 34
-21 -5 -19 375.26 34.6
21 -5 -19 246.88 40.2
-21 5 -19 390.86 35
5 -19 -21 359.06 64.69
19 -21 -5 342.47 37.2
19 -21 -5 300.67 46.9
19 -21 7 282.97 63.19
-7 -19 -21 349.96 34.4
21 7 -19 384.56 48.3
19 -21 7 428.06 39.1
-21 -7 -19 346.97 33.9
-7 -19 -21 343.37 79.99
-19 -21 -7 350.86 33.8
-21 7 -19 401.36 35.6
7 -19 -21 310.87 60.09
19 -21 -7 302.97 46.3
21 -7 -19 317.17 41.1
19 -21 -7 302.37 37.3
21 9 -19 157.18 36.5
19 -21 9 112.59 56.09
-9 -19 -21 148.19 17.7
-9 -19 -21 96.29 68.49
19 -21 9 152.78 21.6
-21 -9 -19 153.58 18.2
-19 -21 -9 146.99 17.3
-21 9 -19 164.58 19.5
19 -21 -9 137.99 30.3
21 -9 -19 133.39 22.6
19 -21 -9 147.29 20.6
-19 -21 -11 21.1 8.1
19 -21 11 20.2 46
19 -21 11 36.5 14.6
-11 -19 -21 81.99 66.89
-21 -11 -19 31.2 8.7
21 11 -19 11.3 27.8
-11 -19 -21 24 9.2
-21 11 -19 4.5 11.3
19 -21 -11 -14.7 13.1
21 -11 -19 5.8 13.9
19 -21 13 3.2 12.8
-21 -13 -19 14.1 7.6
-13 -19 -21 3.5 8.1
-19 -21 -13 5 7.4
-13 -19 -21 -35.3 65.29
-21 13 -19 -8.8 10.9
19 -21 15 60.89 15.5
-19 -21 -15 40.7 9.7
-15 -19 -21 89.69 96.89
-21 -15 -19 38.1 9.4
-15 -19 -21 84.29 11.1
-21 15 -19 62.19 13.5
-21 -17 -19 163.68 18.7
-19 -21 -17 181.98 19.2
-17 -19 -21 174.28 19.4
19 -21 17 166.98 22.2
-21 17 -19 152.18 20.9
-21 -1 -21 -13.9 8.3
21 -21 1 -13.2 12.7
-1 -21 -21 -5.6 51.39
-1 -21 -21 4.6 10.1
21 -21 1 -9.1 31.6
21 1 -21 -11.3 20
21 -21 -1 9.6 29.6
21 -21 -1 -6 12.1
1 -21 -21 37.9 50.79
-21 1 -21 5.9 8.9
21 -1 -21 -22.4 18.5
1 -21 -21 6.2 9.6
-21 -3 -21 38.2 9.8
21 -21 3 24.2 14.1
-3 -21 -21 32.5 55.39
-3 -21 -21 29.3 9.6
21 -21 3 -7.8 36.3
21 3 -21 33.2 22.8
21 -21 -3 19.9 28
21 -21 -3 13.6 13.1
3 -21 -21 50.09 48.7
-21 3 -21 6.7 9.3
21 -3 -21 40 19.3
3 -21 -21 37.9 10.7
-21 -5 -21 125.19 15.5
21 -21 5 126.39 19.8
-5 -21 -21 110.99 60.49
-5 -21 -21 112.39 15
21 -21 5 -15.9 43.7
21 5 -21 156.88 30.1
21 -21 -5 112.69 31.2
21 -21 -5 125.49 18.5
5 -21 -21 126.09 49.8
-21 5 -21 117.59 15.5
21 -5 -21 123.59 23.2
5 -21 -21 115.69 24.3
-21 -21 -7 130.99 15.3
-21 -7 -21 114.79 15.1
21 -21 7 134.69 48.9
-7 -21 -21 114.09 61.99
-7 -21 -21 109.89 14.7
21 7 -21 101.09 30.1
21 -21 7 154.68 20.3
21 -21 -7 89.79 17.3
-21 7 -21 126.99 15.4
21 -21 -7 80.59 29.3
21 -7 -21 106.89 22
7 -21 -21 67.69 44.6
-21 -21 -9 39.5 9.2
-21 -9 -21 34.6 9.5
21 9 -21 24.3 26.2
-9 -21 -21 51.79 59.19
-9 -21 -21 17.4 8.6
21 -21 9 60.89 15.6
21 -21 9 25.1 43.7
21 -21 -9 31.4 12.9
21 -21 -9 32.4 23
21 -9 -21 16.2 13.8
-21 9 -21 54.99 10.7
-21 -21 -11 -4.7 7.1
-21 -11 -21 4.5 7.8
21 -21 11 -0.6 12.7
-11 -21 -21 -81.89 58.79
-11 -21 -21 -4.8 7.3
21 -21 11 16 42.3
21 11 -21 15.4 25.7
-21 11 -21 -10.2 8.8
-21 -21 -13 -3.5 7.1
-21 -13 -21 11 7.7
21 -21 13 -9.9 12.5
-13 -21 -21 -11.7 59.29
-13 -21 -21 -4.4 7.2
-21 13 -21 -19.5 8.9
-21 -21 -15 25.8 7.9
-21 -15 -21 21.5 8.1
21 -21 15 13.4 13.1
-15 -21 -21 -8 64.09
-15 -21 -21 19.4 8.1
-21 15 -21 10.9 9.6
-22 0 0 986 105.79
0 0 -22 1067.19 105.79
2 0 -22 459.95 60.79
-2 0 -22 496.75 63.19
-22 2 0 457.85 63.59
-22 -2 0 498.05 61.29
-22 4 0 9.2 33.1
-22 -4 0 43.7 30.4
4 0 -22 70.89 30.8
-4 0 -22 -2.2 35.4
-22 6 0 -24.6 33.6
6 0 -22 16.6 28.8
0 -22 -8 24 10.3
-22 8 0 25.4 35.1
8 0 -22 6.9 28.9
10 0 -22 282.17 45.7
-22 10 0 334.87 55.19
0 -22 -10 254.77 27.5
22 -10 0 282.87 32.3
22 -12 0 407.66 37
12 0 -22 368.76 54.89
0 -22 -12 313.17 33.3
-12 0 -22 331.57 33.5
-22 12 0 331.27 62.09
-14 0 -22 236.98 22.1
-22 14 0 204.48 52.29
0 22 -14 290.97 69.19
14 0 -22 176.98 42.2
22 -14 0 152.78 23.1
0 -22 -14 163.38 20.4
-16 0 -22 60.39 11.6
22 -16 0 34.4 30.3
22 -16 0 13.5 14.4
0 -22 -16 98.99 44.3
16 0 -22 62.29 76.69
0 -22 -16 68.09 11.8
18 0 -22 7.5 24.7
22 -18 0 12.3 28
0 -22 -18 -4.8 38.8
22 -18 0 14.1 13.5
0 -22 -18 23.9 9.9
-18 0 -22 -13.1 8.7
20 0 -22 30.2 21.7
22 -20 0 -18.1 12.2
22 -20 0 10.4 29.8
0 -22 -20 17.3 46.2
0 -22 -20 9.5 9.8
-20 0 -22 3.9 9
-22 0 2 482.75 63.59
-22 0 -2 540.55 67.89
0 -2 -22 513.15 63.39
0 2 -22 483.15 63.79
-22 2 2 266.17 46.7
-22 -2 -2 336.37 47.3
2 2 -22 257.07 47.1
2 -2 -22 360.86 48
-2 2 -22 212.38 46.9
-22 -2 2 322.97 46.1
-22 2 -2 284.67 50.69
4 2 -22 31.6 31.3
-22 4 2 45.5 33.5
-22 -4 -2 38.9 30.5
4 -2 -22 47.8 29.3
-4 2 -22 13.6 33.4
-22 4 -2 30.1 31.8
-22 -4 2 32.6 28.7
6 2 -22 20.4 29.7
-22 6 2 31.7 34.2
-6 2 -22 7.8 36.5
-22 6 -2 13 35
-22 -6 2 73.89 30.2
6 -2 -22 75.89 31.1
-22 8 2 7.3 34.6
8 2 -22 7.1 30.2
-2 -22 -8 3.7 8.2
-22 8 -2 -21.6 34.6
2 -22 -8 -6 8.7
8 -2 -22 0.3 28.3
-8 2 -22 -25.8 37.7
-2 -22 -10 102.89 14.4
-22 10 2 193.28 47.2
10 2 -22 131.49 36.1
22 -10 2 137.69 19
10 -2 -22 116.19 35.6
-22 10 -2 145.39 44.4
2 -22 -10 125.99 15.7
-12 -2 -22 238.48 24.7
-2 -22 -12 209.68 23.7
22 -12 2 234.88 26.9
-22 12 2 227.48 51.79
12 2 -22 201.28 42.1
22 -12 -2 203.78 25.9
-22 12 -2 290.07 55.29
-2 22 -12 218.88 56.89
2 -22 -12 250.07 24.7
12 -2 -22 190.98 40.7
14 2 -22 142.79 37.4
-2 -22 -14 170.28 17.7
-14 -2 -22 117.89 15.7
-2 -22 -14 102.09 57.39
22 -14 2 139.39 19.5
-22 14 2 92.69 47.2
2 -22 -14 205.28 68.19
22 -14 -2 98.19 43.3
-2 22 -14 53.49 49.6
22 -14 -2 82.89 18.1
-14 2 -22 129.19 16.1
-22 14 -2 127.59 49.8
2 -22 -14 117.49 15.9
14 -2 -22 180.58 42.2
14 -2 -22 335.67 95.39
22 -16 2 26.7 31.1
16 2 -22 62.29 85.59
-2 -22 -16 182.28 49.2
22 -16 2 15.1 14.4
-2 -22 -16 66.89 11
22 -16 -2 64.79 26.9
2 -22 -16 139.59 42.6
16 -2 -22 182.28 75.09
2 -22 -16 11.9 9.8
-16 2 -22 23.7 9.8
-2 -22 -18 31.6 10
-2 -22 -18 92.19 43.5
22 -18 2 29.2 15
22 -18 2 55.69 33.8
-18 -2 -22 25.6 9.5
18 2 -22 -18.2 24.5
2 -22 -18 14.4 9.7
22 -18 -2 32.2 26.8
22 -18 -2 -15.5 12.5
2 -22 -18 27.3 39.4
-18 2 -22 22.3 9.8
22 -20 2 0.7 13.3
20 2 -22 -16.4 20.8
-2 -22 -20 32.1 46.9
-20 -2 -22 5.6 9
-2 -22 -20 6.6 9.2
22 -20 2 -29.1 30.3
22 -20 -2 -11.7 12.2
20 -2 -22 8.4 18.9
-20 2 -22 -0.4 8.5
2 -22 -20 -5.2 44.1
22 -20 -2 -12.9 26.3
2 -22 -20 7.2 10.3
-22 0 4 52.69 34.1
-22 0 -4 94.79 33.6
0 4 -22 89.19 35.2
2 4 -22 29.7 31.3
-22 -2 -4 61.59 30.9
-22 2 4 23 30.2
22 2 -4 21.2 24.7
-22 2 -4 45 34.4
-2 4 -22 -2.6 31.4
-22 -2 4 43.8 31.8
4 4 -22 77.99 34.9
22 4 -4 102.69 29.4
-22 4 4 91.89 35.9
-22 4 -4 84.89 36.6
-4 4 -22 102.39 37.7
4 -4 -22 125.19 34.5
-22 6 4 134.79 42.5
22 6 -4 330.57 41.6
6 4 -22 178.18 42.3
-6 4 -22 210.78 48
6 -4 -22 276.57 41.4
-22 6 -4 195.58 47.7
-4 -22 -8 71.79 11.6
8 4 -22 142.29 37.5
-22 8 4 82.99 37.9
22 -8 4 81.29 18.6
-22 8 -4 147.29 42.1
-8 4 -22 93.39 42.7
4 -22 -8 108.09 13.6
8 -4 -22 118.59 32.6
10 4 -22 -6.6 30.3
22 -10 4 26.4 14.3
-10 -4 -22 9.6 8.5
-22 10 4 12.7 36.1
-4 -22 -10 8.3 6.6
10 -4 -22 -12.8 25.9
-4 22 -10 17 43
4 -22 -10 -7.1 8.3
-22 10 -4 36.8 39.9
-10 4 -22 -70.29 42.3
22 -12 4 62.39 16.3
12 4 -22 54.69 33.8
-12 -4 -22 83.49 12
-4 -22 -12 68.09 10.7
-22 12 4 119.99 43.3
12 -4 -22 77.89 32.5
4 -22 -12 53.69 11.9
-12 4 -22 28.9 51.89
-22 12 -4 41 44
-4 22 -12 95.89 46.3
-14 -4 -22 20.6 9.4
-4 -22 -14 194.48 51.79
22 -14 4 57.09 39.2
14 4 -22 -4.9 91.19
-4 -22 -14 54.39 9.6
14 4 -22 15.4 40.3
22 -14 4 46.5 15
-22 14 4 76.19 46.8
4 -22 -14 14.2 9.7
14 -4 -22 39.6 36.5
22 -14 -4 68.69 28.5
-22 14 -4 80.79 59.99
-14 4 -22 34.7 10.1
-4 22 -14 3 47.5
4 -22 -14 86.89 41.8
22 -14 -4 -1.9 13.1
14 -4 -22 160.08 69.39
-4 -22 -16 186.08 49.1
22 -16 4 122.99 37.7
-4 -22 -16 79.69 11.5
22 -16 4 85.49 17.6
-16 -4 -22 70.99 11.9
16 -4 -22 240.88 70.59
22 -16 -4 67.99 28
22 -16 -4 3.5 14.2
-16 4 -22 68.29 12.2
4 -22 -16 137.09 43.7
4 -22 -16 54.79 12
-18 -4 -22 180.28 20.8
18 4 -22 151.58 35
-4 -22 -18 135.79 50.39
-4 -22 -18 197.78 20.4
22 -18 4 158.08 23.4
22 -18 4 199.88 44.9
4 -22 -18 161.18 43.5
-18 4 -22 148.99 18.9
18 -4 -22 199.78 32.4
22 -18 -4 143.19 21.4
22 -18 -4 153.38 30.8
4 -22 -18 153.88 19.2
22 -20 4 77.19 16.6
20 4 -22 132.69 27.1
-4 -22 -20 80.29 12
22 -20 4 90.49 39.2
-20 -4 -22 51.69 11.4
-4 -22 -20 32.5 51.49
-20 4 -22 60.09 11.6
20 -4 -22 78.49 21
22 -20 -4 50.09 14.6
4 -22 -20 84.89 45.9
4 -22 -20 56.79 12.1
22 -20 -4 70.59 28.1
-22 0 -6 21.7 31.3
0 6 -22 2.5 32.7
22 0 -6 37.3 24.2
-22 -2 -6 49 52.29
-22 2 6 29.6 32.2
2 6 -22 -5.8 33.2
22 2 -6 35.7 26.5
22 -2 -6 35.4 25.2
-22 2 -6 24.5 33.6
-2 6 -22 45.6 34.6
4 6 -22 167.68 43.4
-22 4 6 177.08 42.3
22 4 -6 317.27 43.7
-22 4 -6 175.38 43.2
-4 6 -22 237.68 47.4
6 6 -22 261.57 50.39
-22 6 6 338.87 51.99
22 -6 6 308.47 40
22 6 -6 333.07 47.9
-6 6 -22 325.77 55.79
6 -22 -6 280.57 31.2
-22 6 -6 407.56 56.19
22 8 -6 221.48 39.9
-22 8 6 165.18 44.9
22 -8 6 198.48 23.5
8 6 -22 232.78 44.2
-6 -22 -8 154.28 19.7
6 -22 -8 200.18 22
-6 22 -8 235.28 58.29
-8 6 -22 192.38 49.4
-22 8 -6 213.08 47
10 6 -22 16.6 31.4
-10 -6 -22 12.3 8.5
22 -10 6 14.9 13.8
-22 10 6 -32.5 35.3
-22 -10 -6 2 7.1
-6 -22 -10 3 6.3
-10 6 -22 23.3 45.3
6 -22 -10 11.6 9.1
-6 22 -10 -25.5 41.8
-22 10 -6 56.69 41.1
10 -6 -22 29.6 39.2
-6 -22 -12 21.9 7.7
-22 12 6 -36.2 37.8
-22 -12 -6 12.7 7.9
22 -12 6 -0.7 14.3
12 6 -22 44 33
-12 -6 -22 11.7 8.7
12 -6 -22 -32.3 30.2
6 -22 -12 -4.4 9.3
-6 22 -12 22.5 44.3
-12 6 -22 11.4 48.6
-22 12 -6 7.2 42.5
-6 -22 -14 11.8 7.7
22 -14 6 -2.5 14.4
14 6 -22 45.1 85.09
-22 -14 -6 6.4 7.6
22 -14 6 56.09 33.9
-6 -22 -14 5.7 48
-14 -6 -22 13.2 8.6
6 -22 -14 18.2 9.7
-6 22 -14 30.3 51.29
14 -6 -22 57.59 60.89
6 -22 -14 44.6 37.8
-14 6 -22 24 10.9
-14 6 -22 39.9 56.39
22 -14 -6 17.1 24.4
14 -6 -22 20.3 36.1
22 -16 6 126.49 20.7
-16 -6 -22 119.99 16.1
-6 -22 -16 135.49 16.1
22 -16 6 181.48 45.4
-6 -22 -16 107.79 48.3
6 -22 -16 169.98 17.7
16 -6 -22 142.09 66.59
-16 6 -22 106.99 16.3
6 -22 -16 208.58 44
22 -16 -6 162.88 30.5
22 -16 -6 111.49 18.9
22 -18 6 238.58 51.29
22 -18 6 291.77 32.8
-6 -22 -18 314.07 59.69
18 6 -22 178.98 39.2
-6 -22 -18 272.87 26.2
-18 -6 -22 255.27 26
6 -22 -18 276.87 27
18 -6 -22 221.78 35.1
6 -22 -18 277.07 46.3
-18 6 -22 268.87 26.6
22 -18 -6 193.68 26.8
22 -18 -6 193.58 34.9
22 -20 6 197.98 47.4
22 -20 6 174.38 21.8
-20 -6 -22 133.59 16.7
-6 -22 -20 126.19 16
20 6 -22 85.49 30.1
-6 -22 -20 122.89 58.39
22 -20 -6 121.59 29.4
6 -22 -20 109.79 17.1
-20 6 -22 199.88 18.8
20 -6 -22 131.59 23.6
6 -22 -20 114.19 45
22 -20 -6 120.59 18.8
-22 0 -8 -9.2 31.6
22 0 -8 0.9 27.4
8 -22 0 30.9 17.4
0 8 -22 -3.8 35.1
22 2 -8 12.9 26.8
2 8 -22 -6.6 33.7
8 -22 2 5.8 16.9
-2 8 -22 0.3 34.2
22 -2 -8 -12.6 24.6
-22 2 -8 -29.2 32.1
8 -22 -2 -12.8 10.1
4 8 -22 98.49 36.9
-22 4 8 93.39 37.4
22 4 -8 123.89 32.2
8 -22 4 83.29 16.9
22 -4 8 83.79 16.5
8 -22 -4 86.89 13.7
-22 4 -8 67.09 38.4
-4 8 -22 66.29 41.4
22 -4 -8 96.79 29.9
-22 4 -8 100.59 17.4
-22 -6 -8 208.18 22
22 -6 8 234.68 25
8 -22 6 187.58 23.6
22 6 -8 198.58 41
6 8 -22 191.78 45.7
-8 -22 -6 175.18 21.6
-22 6 8 243.58 46.5
8 -22 -6 211.08 23.8
-22 6 -8 256.67 49.4
-6 8 -22 209.38 50.09
-8 -22 -8 104.19 12.8
-22 8 8 105.29 39.4
8 -22 8 99.59 17.1
-22 -8 -8 104.39 13.1
22 8 -8 97.49 34.7
22 -8 8 89.39 17.6
8 8 -22 62.99 36
-8 -8 -22 100.79 13.5
-8 22 -8 127.59 48.4
8 -22 -8 96.79 14.7
-22 8 -8 168.88 46.9
-8 8 -22 101.19 45.2
10 8 -22 46.1 35.4
-22 -10 -8 -2 6.9
22 -10 8 17.9 14.1
-10 -8 -22 -4.5 7.8
8 -22 10 11.7 13.3
-8 -22 -10 6.3 6.6
-22 10 8 -12.4 36.3
-8 22 -10 43.8 46.6
8 -22 -10 -1.8 9.6
-10 8 -22 -50.19 42.5
-22 10 -8 4.8 41.7
-22 -12 -8 58.39 9.9
-22 12 8 59.89 41.8
-8 -22 -12 46.8 9.4
12 8 -22 54.29 38.3
-12 -8 -22 48 10.9
22 -12 8 45.2 15.8
8 -22 -12 47.3 11.8
-22 12 -8 90.79 50.19
-8 22 -12 80.09 50.89
-12 8 -22 56.29 50.79
12 -8 -22 23.2 79.69
22 -12 -8 48.4 24.9
-8 -22 -14 29.1 8.3
-14 -8 -22 27.8 9.7
22 -14 8 31.5 39
-22 -14 -8 39.4 9.1
14 8 -22 37.2 91.59
22 -14 8 15.3 15.1
-8 -22 -14 81.99 45.5
8 -22 -14 92.69 38
8 -22 -14 43.7 11.6
14 -8 -22 -61.39 54.89
22 -14 -8 -0.7 22
-16 -8 -22 45.9 10.5
16 8 -22 49.7 31.6
22 -16 8 1.1 39.4
-8 -22 -16 34.2 9.6
-8 -22 -16 -35.7 42.9
-22 -16 -8 54.69 9.7
22 -16 8 22 16.2
-16 8 -22 54.29 11.2
8 -22 -16 54.09 12.4
16 -8 -22 2 58.79
22 -16 -8 52.09 23.6
8 -22 -16 25.8 37.1
-18 -8 -22 133.19 18
22 -18 8 217.08 52.19
22 -18 8 209.78 23.8
-22 -18 -8 188.68 19
-8 -22 -18 70.29 55.79
-8 -22 -18 152.48 18.7
18 8 -22 135.59 35.4
8 -22 -18 203.18 21.9
22 -18 -8 131.89 27.7
8 -22 -18 42 42.2
18 -8 -22 117.29 24.8
-18 8 -22 182.08 20.6
22 -20 8 77.19 49
-8 -22 -20 62.09 11
20 8 -22 79.09 28.6
-20 -8 -22 63.69 11.4
-8 -22 -20 36.7 56.59
-22 -20 -8 73.39 11.4
22 -20 8 51.99 16.6
-20 8 -22 68.79 11.8
20 -8 -22 55.09 17.6
22 -20 -8 70.79 14.5
22 -20 -8 65.29 23.6
22 0 -10 343.97 46.8
0 10 -22 263.57 51.39
-22 0 -10 266.07 27.9
10 -22 0 242.58 29
10 -22 2 110.99 16.6
2 10 -22 102.29 41
22 2 -10 106.69 34
-22 -2 -10 113.79 14.3
-22 2 -10 108.39 16.7
-2 10 -22 84.19 41.1
10 -22 -2 120.89 16.5
22 -2 -10 131.69 34.7
-22 2 -10 134.59 43.4
4 10 -22 51.89 37.2
-22 -4 -10 -6.5 8.1
-10 -22 -4 7.6 6.9
22 4 -10 10 27.8
10 -22 4 -4.8 12.4
10 -22 -4 6.9 9.7
22 -4 -10 19 26.1
-22 4 -10 -8 38.3
-22 4 -10 3 11.6
-4 10 -22 -2.4 38.1
-6 -10 -22 16.7 8.4
22 6 -10 -27.1 27.9
-22 -6 -10 9.9 7.7
22 -6 10 4.8 13.5
6 10 -22 -36 34.7
-10 -22 -6 20.6 7.1
-22 6 10 -21.4 33.3
10 -22 6 15.4 12.3
10 -22 -6 16.4 10.1
22 -6 -10 12.6 27.4
-22 6 -10 62.19 42.6
-6 10 -22 26.4 41.8
-10 22 -6 38.5 42.3
-22 6 -10 4.3 12
-10 -22 -8 7.8 6.8
-22 -8 -10 -5.7 6.7
8 10 -22 44.9 37.2
22 -8 10 22.8 14.3
-22 8 10 36.6 35.7
22 8 -10 -6.4 29.3
10 -22 8 5.5 12.7
-8 -10 -22 -5.2 8.1
-8 10 -22 55.29 44.5
-10 22 -8 -22.2 42.6
10 -22 -8 6.6 9.4
-22 8 -10 -2.8 40.3
22 10 -10 124.99 40.7
-10 -10 -22 146.29 16.4
22 -10 10 102.89 20.1
-22 -10 -10 138.89 15.8
-10 -22 -10 145.89 16.5
10 -22 10 152.68 20.4
10 10 -22 138.29 44
-22 10 10 78.89 45.6
-22 10 -10 95.49 47.8
-10 10 -22 110.39 52.09
-10 22 -10 118.79 54.59
10 -22 -10 136.29 17.3
10 -22 12 256.07 31.9
-22 -12 -10 306.17 29.2
-10 -22 -12 342.97 29.1
22 -12 10 279.57 33.8
-12 -10 -22 271.57 29.2
-10 -22 -12 254.27 63.99
10 -22 -12 266.77 30.3
10 -22 -12 285.87 46.1
22 -12 -10 316.07 38.9
12 -10 -22 350.46 64.79
22 -14 10 188.28 24.7
-10 -22 -14 309.17 56.39
-14 -10 -22 177.38 21.1
22 -14 10 199.28 75.79
-22 -14 -10 208.58 20.6
-10 -22 -14 194.18 20.5
10 -22 -14 155.88 20.6
14 -10 -22 50.59 57.09
22 -14 -10 139.09 30.6
10 -22 -14 191.08 42.8
-22 -16 -10 15.6 8.5
16 10 -22 13.6 28.8
-10 -22 -16 26 47.4
22 -16 10 8.3 15.3
22 -16 10 26.3 45.1
-16 -10 -22 21.3 9.3
-10 -22 -16 23.5 9.5
10 -22 -16 36.8 11
22 -16 -10 7.2 20.1
-16 10 -22 37.5 10.9
-18 -10 -22 17.2 8.4
22 -18 10 14.6 14.6
-10 -22 -18 18.1 8
-10 -22 -18 -28.8 51.59
22 -18 10 -13.4 48.3
-22 -18 -10 7.1 7.7
18 10 -22 38.3 29.9
18 -10 -22 23.7 14.4
-18 10 -22 11.7 9.8
22 -18 -10 20.3 18.9
-22 -20 -10 4.9 7.5
20 10 -22 12.1 24.5
22 -20 10 -8.6 42
-20 -10 -22 10.4 8.2
-10 -22 -20 -41.5 55.49
-10 -22 -20 0 7.2
22 -20 10 19.1 13.8
-20 10 -22 13.6 9.2
22 -20 -10 -31.2 20.5
22 0 -12 375.56 53.99
-22 0 -12 354.56 34.2
12 -22 0 341.67 36.2
0 12 -22 345.67 60.09
-22 -2 -12 227.78 25
2 12 -22 237.58 51.19
22 2 -12 210.18 44.4
12 -22 2 215.68 26.7
-2 12 -22 227.88 53.49
12 -22 -2 273.17 27.7
22 -2 -12 328.77 47
-22 2 -12 250.37 27.2
-22 -4 -12 43.3 10.1
22 4 -12 35.4 31.5
4 12 -22 100.59 41.4
-12 -22 -4 72.99 9.9
-4 -12 -22 50.39 15
12 -22 4 54.99 14.3
-22 4 -12 64.69 44.8
22 -4 -12 17.4 31.4
-4 12 -22 -18.9 42.7
12 -22 -4 73.69 14
-22 4 -12 58.19 13.7
-12 -22 -6 1.9 6.7
12 -22 6 18.9 12.8
-6 -12 -22 -1.1 8.4
22 6 -12 29.2 31.8
6 12 -22 24.5 42.4
-22 -6 -12 14.6 7.8
22 -6 -12 35.9 28.1
-22 6 -12 -8.5 12.1
-12 22 -6 -72.79 43.2
-22 6 -12 29.7 44.9
12 -22 -6 -1.6 10.6
-6 12 -22 58.29 45
12 -22 8 58.69 15.1
-22 8 12 49.3 40.7
-22 -8 -12 53.19 9.6
-8 -12 -22 61.89 11
22 -8 12 25 15.2
-12 -22 -8 38.2 8.9
8 12 -22 -6.8 40.8
22 8 -12 59.59 32.6
-22 8 -12 55.09 14.5
-22 8 -12 85.39 47
12 -22 -8 52.99 12.6
22 -8 -12 45.3 19.1
-8 12 -22 -0.7 46.5
-12 22 -8 85.59 47.6
12 -22 -8 8.4 44.8
-10 -12 -22 373.46 87.89
-22 -10 -12 282.77 28
12 -22 10 268.77 65.79
12 -22 10 319.57 33.3
-10 -12 -22 265.77 28.6
22 -10 12 208.38 30.6
-12 -22 -10 323.27 28.1
12 -22 -10 342.27 41.8
12 -22 -10 265.57 30.2
10 -12 -22 368.76 61.99
22 -10 -12 266.47 33.5
-12 -12 -22 394.06 100.19
-12 -12 -22 392.06 39.6
-12 -22 -12 655.13 80.69
12 -22 12 428.56 43.3
-12 -22 -12 432.06 39.1
22 -12 12 452.25 43.5
-22 -12 -12 405.76 39.1
22 -12 -12 421.66 47.8
12 -22 -12 385.36 40.5
-12 -22 -14 216.58 24.4
22 -14 12 289.47 30
-14 -12 -22 239.08 24.9
-22 -14 -12 212.88 23.9
-12 -22 -14 152.88 60.89
12 -22 14 222.88 27.8
12 -22 -14 223.88 26.1
22 -14 -12 238.68 33.5
-16 -12 -22 48.1 10
22 -16 12 69.69 16.2
-12 -22 -16 29.1 9.3
-22 -16 -12 53.19 10.1
-12 -22 -16 -36.1 52.99
-16 12 -22 50.19 17.3
22 -16 -12 20.3 19.9
12 -22 -16 42.7 12.7
22 -18 12 -1.8 13.4
-18 -12 -22 13.9 7.9
-22 -18 -12 0.6 7.2
-12 -22 -18 1.6 58.09
18 12 -22 -26.4 29.4
-12 -22 -18 -8.3 7.1
-18 12 -22 -17.5 9.4
-20 -12 -22 13.8 7.7
22 -20 12 -26.5 12.5
-12 -22 -20 -11.4 58.59
-12 -22 -20 1.5 7.2
-22 -20 -12 3.6 7.4
22 -20 12 6.7 50.39
20 12 -22 -32.2 27.2
-20 12 -22 7.2 9.2
14 -22 0 199.08 23.9
22 0 -14 168.88 44.2
0 14 -22 235.28 53.79
-22 0 -14 202.38 22.4
22 2 -14 221.78 43.6
-22 -2 -14 133.09 15.8
-2 -14 -22 203.08 83.09
14 -22 2 122.59 18.7
2 14 -22 199.18 50.49
14 -22 -2 166.28 49.8
2 -14 -22 284.07 90.79
22 -2 -14 103.59 38.1
22 -2 -14 128.99 31
14 -22 -2 126.39 18.6
-2 14 -22 146.99 48.9
-22 2 -14 100.79 16
-22 -4 -14 19.3 9.1
-4 -14 -22 24.8 9.3
-14 -22 -4 43.3 8.9
14 -22 4 18.3 39.1
-4 -14 -22 -11.6 59.99
4 14 -22 45.9 49.8
22 4 -14 133.39 43.7
14 -22 4 36.6 14.2
22 4 -14 187.28 32.9
-22 4 -14 43 12
-14 22 -4 -96.79 47.4
22 -4 -14 13.9 40.2
-4 14 -22 4.3 79.79
4 -14 -22 202.98 55.89
22 -4 -14 29 17.7
14 -22 -4 49.1 13
-22 4 -14 -83.99 65.89
14 -22 -4 61.49 29.8
14 -22 6 -15.1 39.1
-14 -22 -6 4.7 7.3
-6 -14 -22 4 63.59
-6 -14 -22 10.6 8.6
14 -22 6 10.9 13.2
-22 -6 -14 6.9 7.9
22 6 -14 47.7 24.1
-22 6 -14 -124.99 53.89
6 -14 -22 84.39 50.89
22 -6 -14 -19.6 15.8
14 -22 -6 11.3 11.4
-22 6 -14 7.7 12.1
14 -22 -6 22.2 25.9
-14 22 -6 -9.2 48.6
14 -22 8 34.6 14.2
-14 -22 -8 25.4 8
-8 -14 -22 19.1 9.7
-8 -14 -22 -27.3 70.29
22 8 -14 32.6 24.5
14 -22 8 -36.9 41.1
-22 -8 -14 26 8.7
-22 8 -14 32.2 14
22 -8 -14 71.29 16.7
8 -14 -22 93.59 49.4
14 -22 -8 21.8 11.9
14 -22 -8 26.5 25.5
22 10 -14 257.67 38.9
-10 -14 -22 215.18 80.09
-10 -14 -22 187.18 21.3
14 -22 10 218.58 52.79
-22 -10 -14 169.78 20.2
-14 -22 -10 178.48 19.7
22 -10 14 166.98 23.6
14 -22 10 175.38 23.7
14 -22 -10 145.99 21.4
14 -22 -10 194.28 34.2
-22 10 -14 176.78 23
22 -10 -14 177.18 25.6
14 -22 12 236.08 28.6
-12 -14 -22 290.27 86.19
-12 -14 -22 250.97 26.1
-22 -12 -14 236.08 25.3
22 -12 14 283.07 31
-14 -22 -12 217.58 24.9
22 -12 -14 277.87 33.4
14 -22 -12 211.08 26.2
-22 12 -14 271.87 30.7
-22 -14 -14 167.88 17.9
-14 -22 -14 130.49 16.9
-14 -14 -22 181.58 19.1
14 -22 14 90.49 22.2
22 -14 14 158.08 21.6
22 -14 -14 168.38 31.6
14 -22 -14 161.18 20.2
-22 -16 -14 9.3 7.8
-14 -22 -16 14.6 8.2
-16 -14 -22 33.1 9
-14 -22 -16 29.2 63.09
14 -22 16 9.8 14.2
22 -16 14 25 14.6
-22 -18 -14 6.8 7.3
-18 -14 -22 11.7 8
-14 -22 -18 -3.3 7.1
-14 -22 -18 6.4 60.39
22 -18 14 -5.4 13
-18 14 -22 0.3 9.9
-20 -14 -22 4 7.4
-22 -20 -14 -1.9 7.2
22 -20 14 5.5 13.1
-14 -22 -20 -52.99 61.09
-14 -22 -20 2 7.1
-20 14 -22 -8 8.9
-22 0 -16 41.1 10.9
22 0 -16 75.49 22.5
0 -16 -22 163.78 59.09
16 -22 0 60.29 15
16 -22 0 89.89 34
-2 -16 -22 57.19 60.79
22 2 -16 104.79 24.8
-2 -16 -22 22.1 8.5
16 -22 2 11.6 14.1
-22 -2 -16 14.9 9
16 -22 2 6.2 35
22 -2 -16 52.19 20.1
16 -22 -2 140.59 33.7
-22 2 -16 17.5 9.6
2 -16 -22 225.78 56.69
16 -22 -2 50.49 13.4
-4 -16 -22 71.19 11.6
16 -22 4 76.79 16.5
16 -22 4 26.2 42.1
22 4 -16 146.19 29.1
-4 -16 -22 -61.19 62.09
-22 -4 -16 53.19 11.5
22 -4 -16 63.09 19.9
-22 4 -16 74.59 13.1
4 -16 -22 299.87 56.79
16 -22 -4 67.29 15
16 -22 -4 91.69 31.6
-16 -22 -6 139.39 15.3
22 6 -16 119.69 30.3
16 -22 6 140.59 19.6
-6 -16 -22 -49 71.09
16 -22 6 83.99 47.3
-22 -6 -16 91.89 14.7
-6 -16 -22 133.79 16.1
6 -16 -22 214.78 55.49
16 -22 -6 133.69 32.4
22 -6 -16 119.69 22.2
16 -22 -6 123.89 18.5
-22 6 -16 117.79 17.3
16 -22 8 -19.6 43.6
16 -22 8 52.89 15.5
-8 -16 -22 58.29 10.8
-8 -16 -22 5.2 67.29
22 8 -16 16.7 25.6
-16 -22 -8 38.8 9.1
-22 -8 -16 22.4 9.1
-22 8 -16 17.7 13.1
8 -16 -22 164.18 49.5
16 -22 -8 1.3 24.3
22 -8 -16 38 16.6
16 -22 -8 41.9 13.7
16 -22 10 5.1 15
-10 -16 -22 25.6 9.8
-10 -16 -22 -17.4 69.09
16 -22 10 -38 43.6
22 10 -16 -19.3 24.3
-22 -10 -16 14.4 9
-16 -22 -10 10.1 7.8
-22 10 -16 28.7 14.2
16 -22 -10 1.6 23.8
16 -22 -10 5.8 12.4
22 -10 -16 19.5 16.3
22 -12 16 60.19 15.7
-22 -12 -16 37.7 9.4
-16 -22 -12 34.7 9
-12 -16 -22 73.99 74.59
16 -22 12 25 15.7
-12 -16 -22 63.69 11.1
-22 12 -16 32.7 14.7
16 -22 -12 45.5 13.9
22 -12 -16 34.1 19
16 -22 14 -15.4 13.9
-16 -22 -14 30.4 8.2
-22 -14 -16 25.5 8.1
-14 -16 -22 15.3 8.8
22 -14 16 7.6 14
-14 -16 -22 -80.49 78.49
-22 14 -16 17.7 12.9
-22 -16 -16 2.2 7.4
22 -16 16 24 13.6
-16 -22 -16 2.6 7.3
16 -22 16 -1.8 13.2
-16 -16 -22 28.8 8.6
-22 16 -16 14.3 12.6
22 -18 16 25.1 14.2
-16 -22 -18 35.6 8.8
-22 -18 -16 31.6 8.5
16 -22 18 37.8 14.9
-18 -16 -22 55.19 9.6
-18 16 -22 26.1 11.9
-22 18 -16 21.5 12.9
22 -20 16 31.9 14.3
-20 -16 -22 50.49 9.2
-22 -20 -16 31.3 8.4
-16 -22 -20 18.8 8
-20 16 -22 24.6 10
-22 20 -16 40 13.1
18 -22 0 11.8 14
0 -18 -22 7.2 8.7
22 0 -18 2.5 19.5
18 -22 0 -19.5 32.9
0 -18 -22 33.3 55.09
-22 0 -18 -1.2 9.2
22 2 -18 56.89 24.2
18 -22 2 15 14.5
-2 -18 -22 -125.99 55.39
-2 -18 -22 30.4 8.9
18 -22 2 0.3 36
-22 -2 -18 6 9.8
22 -2 -18 29.7 20.2
18 -22 -2 27.1 14.7
18 -22 -2 23.7 32.3
-22 2 -18 39.2 10.7
2 -18 -22 118.79 54.99
-4 -18 -22 134.49 17.6
18 -22 4 165.58 47.1
18 -22 4 151.48 22.1
22 4 -18 193.78 33.4
-4 -18 -22 41.4 65.99
-22 -4 -18 179.78 20
22 -4 -18 150.88 26.7
4 -18 -22 247.78 58.79
18 -22 -4 149.79 37.2
-22 4 -18 160.48 19.1
18 -22 -4 161.08 21.8
-6 -18 -22 223.98 25.5
-22 -6 -18 257.87 25.6
22 6 -18 305.47 40.8
-18 -22 -6 239.08 24.7
-6 -18 -22 64.79 74.99
18 -22 6 220.58 28.5
18 -22 6 134.89 55.19
22 -6 -18 244.58 31.4
18 -22 -6 195.48 39.4
6 -18 -22 248.08 58.69
-22 6 -18 302.87 27.6
18 -22 -6 215.78 27
-8 -18 -22 168.88 76.59
-18 -22 -8 144.89 17.9
-22 -8 -18 153.38 18.5
18 -22 8 132.19 51.09
-8 -18 -22 186.98 20.1
18 -22 8 196.98 22.5
22 8 -18 116.99 33.1
22 -8 -18 120.39 23.5
18 -22 -8 137.69 32.1
-22 8 -18 213.28 22.4
18 -22 -8 130.89 21.4
18 -22 10 -31.4 44.6
-18 -22 -10 1.9 7.2
18 -22 10 25.4 14.5
22 10 -18 -27 26.3
-10 -18 -22 34.5 9.4
-10 -18 -22 51.19 67.89
-22 -10 -18 16.6 8.3
18 -22 -10 15.3 22
-22 10 -18 4.1 11.1
18 -22 -10 9.4 12.3
22 -10 -18 13.3 15.7
-12 -18 -22 -134.79 62.69
-12 -18 -22 3.9 8.1
-22 -12 -18 6.3 7.7
-18 -22 -12 -6.6 6.9
18 -22 12 18.5 13.8
18 -22 -12 -16.7 11.4
-22 12 -18 10.2 11.9
-18 -22 -14 -1 7.2
-14 -18 -22 -15.6 66.99
-14 -18 -22 -0.2 7.9
-22 -14 -18 -2.6 7
18 -22 14 -12.3 12.7
-22 14 -18 -4.4 11.6
-16 -18 -22 38.8 9.7
-22 -16 -18 48.2 9.2
18 -22 16 36.4 14.6
-18 -22 -16 38.1 9
-22 16 -18 53.09 13.4
-18 -22 -18 88.59 11.9
18 -22 18 88.99 17.2
-22 -18 -18 87.29 11.9
-18 -18 -22 79.59 12
-18 22 -18 67.39 15
-22 18 -18 96.09 15.5
0 -20 -22 -6.9 9
0 -20 -22 -47.2 51.99
20 -22 0 15.9 12.9
20 -22 0 -19.8 32
-22 0 -20 -5.7 8.5
22 0 -20 22.2 20.2
-2 -20 -22 -6.3 9.6
22 2 -20 3.5 21
-22 -2 -20 -3.4 8.1
20 -22 2 13.9 13.1
-2 -20 -22 1.2 54.09
20 -22 2 -33.8 34.7
22 -2 -20 -1.4 18.5
2 -20 -22 -25.5 51.19
20 -22 -2 -43.5 29.2
20 -22 -2 -1.3 12.1
-22 2 -20 -4.1 8.3
2 -20 -22 -12.8 8.8
20 -22 4 85.69 41.1
-4 -20 -22 73.29 11.4
22 4 -20 70.09 25.4
-4 -20 -22 10.8 58.49
-22 -4 -20 53.09 11.6
20 -22 4 77.89 16.6
20 -22 -4 48.8 30.7
20 -22 -4 79.39 15.6
-22 4 -20 59.29 11.8
22 -4 -20 62.09 20.6
4 -20 -22 111.39 51.59
-6 -20 -22 106.89 16.3
-6 -20 -22 71.29 65.29
22 6 -20 117.19 31
-22 -6 -20 166.18 18.2
20 -22 6 193.18 22.2
20 -22 6 221.28 48
6 -20 -22 154.08 49.9
20 -22 -6 130.69 31.9
22 -6 -20 111.29 23.6
20 -22 -6 112.69 19.7
-22 6 -20 196.98 19.3
-22 -8 -20 71.69 11.6
-8 -20 -22 24.6 63.99
-8 -20 -22 51.19 11
22 8 -20 65.49 27.2
-20 -22 -8 71.79 10.8
20 -22 8 91.89 45.7
20 -22 8 54.29 16.4
20 -22 -8 61.49 14.5
20 -22 -8 43.4 24.7
-22 8 -20 78.09 12.5
22 -8 -20 67.19 16.8
20 -22 10 20.4 43.2
-20 -22 -10 -11.9 6.5
-10 -20 -22 1.4 62.29
-22 -10 -20 4.6 7.9
22 10 -20 -23 23.3
20 -22 10 22.5 13.8
-10 -20 -22 -2.5 7.9
20 -22 -10 6.2 19.8
20 -22 -10 -0.3 11.8
22 -10 -20 17.8 13.9
-22 10 -20 7.8 9.6
-22 -12 -20 3.2 7.4
-20 -22 -12 -14.4 6.5
-12 -20 -22 -98.09 60.19
20 -22 12 5.5 12.5
20 -22 12 -4.6 42.3
-12 -20 -22 -2 7.6
22 12 -20 -2.5 25.6
-22 12 -20 -0.6 9.9
20 -22 14 14.1 13.3
-14 -20 -22 -62.69 62.39
-14 -20 -22 -5.7 7.4
-22 -14 -20 0.2 7.4
-20 -22 -14 5.2 7.1
-22 14 -20 -6.1 9.6
-20 -22 -16 47.5 8.9
-16 -20 -22 39.6 9.3
20 -22 16 36 14.4
-22 -16 -20 42.4 9.1
-22 16 -20 31.9 11.3
-22 0 -22 66.49 12.3
0 -22 -22 124.99 57.69
0 -22 -22 94.49 13.6
22 -22 0 68.19 35.4
22 -22 0 76.99 16.3
22 0 -22 72.39 22.9
-22 -2 -22 32.8 10.1
22 -22 2 33.7 14.6
-2 -22 -22 84.79 57.69
-2 -22 -22 32.4 10.5
22 -22 2 32.3 36.3
22 2 -22 77.39 22.9
22 -22 -2 47.5 32.5
22 -22 -2 31.8 13.7
2 -22 -22 9.5 52.49
-22 2 -22 33.3 10
22 -2 -22 47.3 20.3
2 -22 -22 28.7 10.5
-22 -4 -22 5.9 8.7
22 -22 4 19 14.3
-4 -22 -22 -19.4 53.39
-4 -22 -22 -6.1 8.5
22 -22 4 24.6 37
22 4 -22 16.2 21.7
22 -22 -4 10.6 28.1
22 -22 -4 -6 11.7
4 -22 -22 -16.4 47
-22 4 -22 20.6 8.8
22 -4 -22 12.2 17.5
4 -22 -22 0.2 9.3
-22 -6 -22 21 8.9
22 -22 6 19 37.1
-6 -22 -22 -72.49 53.29
-6 -22 -22 12.7 8.4
22 6 -22 0.1 22.3
22 -22 6 5 14
22 -22 -6 20.3 12.1
-22 6 -22 16.8 8.8
22 -22 -6 3.5 24.7
22 -6 -22 27.2 16.3
6 -22 -22 4.3 40.9
-22 -22 -8 0.3 7.1
-22 -8 -22 -3.7 8.1
22 8 -22 -7.5 23.3
-8 -22 -22 4.5 59.49
-8 -22 -22 -9.1 7.3
22 -22 8 -6.7 13.4
22 -22 8 -16.2 39.1
22 -22 -8 -3.6 11.4
22 -22 -8 1.3 22.3
22 -8 -22 11.7 13.3
-22 8 -22 0.8 8.4
-22 -22 -10 15.9 7.6
-22 -10 -22 26.9 8.7
22 -22 10 45.1 14.1
-10 -22 -22 75.79 60.79
-10 -22 -22 8.4 7.8
22 -22 10 70.69 42.6
22 10 -22 16.2 25.2
-22 10 -22 17.7 8.9
-22 -22 -12 68.19 10.2
-22 -12 -22 60.99 10.3
22 -22 12 55.79 15.2
-12 -22 -22 -25.8 58.69
-12 -22 -22 53.79 9.9
22 -22 12 45.7 42.4
22 12 -22 39.3 27.5
-22 12 -22 64.19 11
-23 -1 -1 1018.3 100.99
1 1 -23 900.11 99.59
-1 -1 -23 1002.2 101.69
-23 1 1 935.81 100.59
-23 1 -1 914.81 101.39
-1 1 -23 901.31 100.59
1 -1 -23 932.51 99.39
-23 -1 1 864.11 99.59
-23 -3 -1 365.06 52.59
3 1 -23 303.27 53.69
-23 3 1 343.67 54.79
-3 1 -23 290.27 54.59
-23 -3 1 295.57 49.99
-23 3 -1 360.06 56.09
3 -1 -23 386.06 52.59
-1 -23 -5 38.7 11.1
5 1 -23 80.69 33.4
-23 5 1 73.19 35.1
-23 -5 1 59.09 32.6
1 -23 -5 15.9 9.8
-23 5 -1 46.3 36.4
-5 1 -23 68.39 38.7
5 -1 -23 134.09 34.2
7 1 -23 71.89 33.1
-1 -23 -7 39.7 9.8
-23 7 1 12.6 36.3
-23 7 -1 1.8 35.9
1 -23 -7 41.3 10.1
7 -1 -23 91.79 33.2
-1 -23 -9 197.58 23.1
-23 9 1 270.37 50.89
9 1 -23 213.38 42.9
23 -9 1 272.47 28.6
1 -23 -9 209.08 23.7
9 -1 -23 228.98 42.8
-23 9 -1 249.58 51.39
23 -9 -1 199.18 25.3
-23 11 1 478.15 67.69
-1 -23 -11 383.76 38.7
23 -11 1 397.46 42.3
11 1 -23 365.66 57.19
11 -1 -23 454.35 60.89
23 -11 -1 500.45 42.2
-23 11 -1 336.17 63.19
1 -23 -11 386.16 38.9
13 1 -23 440.66 99.09
-1 -23 -13 418.06 64.89
23 -13 1 382.76 40
23 -13 1 387.06 54.99
13 1 -23 360.96 58.19
-13 -1 -23 397.76 36.6
-1 -23 -13 367.76 36.4
-23 13 1 288.87 85.09
13 -1 -23 355.96 57.19
1 -23 -13 454.75 63.59
1 -23 -13 360.16 36.7
13 -1 -23 330.07 88.49
23 -13 -1 433.46 54.39
-13 1 -23 374.46 36.6
23 -13 -1 350.26 39.7
-1 -23 -15 183.68 20.2
-1 -23 -15 210.58 51.29
-15 -1 -23 151.38 18.4
23 -15 1 168.08 37.1
23 -15 1 147.09 21.8
15 1 -23 203.28 82.59
23 -15 -1 122.89 21.4
-15 1 -23 146.19 18.5
15 -1 -23 141.19 75.39
23 -15 -1 142.09 36.4
1 -23 -15 207.68 49.99
1 -23 -15 154.18 18.6
23 -17 1 23.4 30
23 -17 1 21.5 14.7
-1 -23 -17 52.89 11.4
-17 -1 -23 24.6 10.1
-1 -23 -17 61.89 45
-17 1 -23 17.6 10.1
23 -17 -1 11.8 14.8
1 -23 -17 83.19 43.5
1 -23 -17 24.9 10.5
23 -17 -1 25 26.6
-1 -23 -19 16.1 9.8
23 -19 1 -35.2 29
23 -19 1 -13.2 13.5
19 1 -23 17.2 21.9
-1 -23 -19 -41.4 41.3
-19 -1 -23 8.1 8.9
23 -19 -1 26.3 28.3
-19 1 -23 -3 8.7
1 -23 -19 2.5 9.2
23 -19 -1 -8.1 13
19 -1 -23 -6.5 21
1 -23 -19 -43.6 39.1
23 -21 1 40.8 32.9
21 1 -23 35.7 22
-1 -23 -21 42.4 11.3
23 -21 1 55.49 15.5
-1 -23 -21 92.69 53.89
-21 -1 -23 27.4 10.4
1 -23 -21 52.39 11.3
21 -1 -23 71.69 21.8
23 -21 -1 46.1 14.4
1 -23 -21 82.59 52.69
23 -21 -1 48 30.9
-21 1 -23 47.3 10.8
-23 1 3 254.27 48.1
-23 -1 -3 285.97 47.9
1 3 -23 306.77 49.4
-23 -1 3 325.17 48.6
-1 3 -23 231.48 49.8
-23 1 -3 281.07 48.7
3 3 -23 125.59 39.2
-23 -3 -3 95.29 42.3
-23 3 3 82.69 37.3
-23 -3 3 172.38 37.8
-3 3 -23 108.19 43.1
3 -3 -23 151.48 47.3
-23 3 -3 139.89 40.5
5 3 -23 -28.4 30.9
-23 5 3 13.7 34.4
-3 -23 -5 35.1 9.7
-23 -5 3 62.59 32.8
3 -23 -5 6.2 9
-23 5 -3 29.1 37.1
5 -3 -23 79.29 31.7
-5 3 -23 -6.3 35.5
-23 7 3 -2.4 34.6
-3 -23 -7 18.8 8.2
23 -7 3 -6.2 13
7 3 -23 -6.5 31.6
-7 3 -23 -98.09 39.1
7 -3 -23 22.2 28.8
-23 7 -3 -26.2 36.6
3 -23 -7 -9.2 8.4
-23 9 3 37.8 39.3
23 -9 3 51.39 15.5
9 3 -23 74.79 35.2
-3 -23 -9 50.89 10
-9 3 -23 34.7 50.19
9 -3 -23 51.39 32.4
3 -23 -9 49 11
-23 9 -3 63.39 40.9
-3 -23 -11 150.38 17.9
11 3 -23 202.28 41.4
-11 -3 -23 166.08 18.8
23 -11 3 170.88 22.2
-23 11 3 75.39 44.2
11 -3 -23 164.78 38.7
-23 11 -3 197.18 50.89
3 -23 -11 164.18 18.9
23 -13 3 145.39 42.2
-3 -23 -13 202.98 22.3
23 -13 3 186.88 24.8
-3 -23 -13 227.28 57.99
-13 -3 -23 235.38 23.1
13 3 -23 87.29 87.19
23 -13 -3 216.28 24.2
13 -3 -23 254.87 78.39
3 -23 -13 157.38 21.3
3 -23 -13 258.87 51.79
23 -13 -3 274.97 38.7
13 -3 -23 153.58 43.6
-3 -23 -15 239.28 50.49
23 -15 3 75.79 16.7
15 3 -23 -36.4 84.69
-3 -23 -15 98.99 12.6
23 -15 3 67.89 33.8
-15 -3 -23 68.09 12.4
-15 3 -23 65.69 12.3
3 -23 -15 125.39 43.8
23 -15 -3 60.29 29.1
3 -23 -15 66.99 12.6
15 -3 -23 217.88 75.89
23 -15 -3 26.8 16.1
23 -17 3 44 34.8
-17 -3 -23 -2.4 9
-3 -23 -17 111.29 45.7
23 -17 3 37.3 16.4
-3 -23 -17 75.09 12
23 -17 -3 5.6 13.2
3 -23 -17 17.9 10.1
23 -17 -3 28.1 26.2
3 -23 -17 2 41.2
-17 3 -23 12.8 9.4
-3 -23 -19 7.8 9.3
-3 -23 -19 9.7 44.5
23 -19 3 10 14.6
19 3 -23 -11.4 22.1
23 -19 3 -6.4 32.7
-19 -3 -23 21.4 9.5
3 -23 -19 26.6 10.1
19 -3 -23 19.6 20.1
23 -19 -3 -21.1 12.4
23 -19 -3 30.5 25.8
3 -23 -19 -10.1 38.7
-19 3 -23 9.8 9
23 -21 3 12.5 14
23 -21 3 -36.5 33.4
21 3 -23 21 21.2
-3 -23 -21 5 51.89
-21 -3 -23 9.4 8.8
-3 -23 -21 3.8 9.1
23 -21 -3 1.1 12.6
-21 3 -23 7.3 8.6
23 -21 -3 -8 25.9
3 -23 -21 24.5 46.7
3 -23 -21 -10.4 8.6
21 -3 -23 -5.7 17.9
-23 -1 -5 19.9 33
23 1 -5 25.2 26.4
1 5 -23 26.1 34.2
-23 1 5 44.6 34.9
-23 -1 5 30.4 33.7
-1 5 -23 23.9 36.9
-23 1 -5 -2.9 33.1
5 -23 -1 41.9 13.2
-23 3 5 27 31
3 5 -23 26.7 33.7
23 3 -5 42.7 26.8
-23 -3 5 37.2 34.6
5 -23 -3 3 9.5
-3 5 -23 -14.4 35.2
-23 3 -5 22.3 36.2
23 -5 5 53.19 15.3
5 5 -23 19.4 35.5
5 -23 5 15.4 16.6
23 5 -5 98.29 31
-23 5 5 3.6 32.7
-5 -23 -5 70.99 10.7
-5 5 -23 59.89 41.3
-23 5 -5 49.3 36.6
5 -23 -5 56.09 11.7
23 7 -5 103.99 33
7 5 -23 99.69 37.8
-5 -23 -7 90.99 11.6
-23 -7 -5 73.99 12.1
5 -23 7 73.79 14.9
-23 7 5 37.6 38.2
23 -7 5 66.39 16.4
-23 7 -5 48.7 41.2
-7 5 -23 12.4 43.6
5 -23 -7 68.09 12.5
-5 -23 -9 0.3 6.6
9 5 -23 38.9 34.8
23 -9 5 -4.6 13.3
-23 9 5 -6.9 36.7
-23 -9 -5 -1.5 11.3
-9 5 -23 9.5 43.1
-23 9 -5 36.8 40
5 -23 -9 -6.5 8.7
-23 11 5 6.2 42.2
-5 -23 -11 27.4 7.9
-11 -5 -23 27.7 9.4
23 -11 5 16.9 14.6
11 5 -23 46.1 34.3
11 -5 -23 -11.7 32.4
-23 11 -5 23 44
-11 5 -23 96.69 53.09
5 -23 -11 28.1 10.2
-13 -5 -23 64.59 12.5
23 -13 5 5.4 36.2
-5 -23 -13 59.69 48.1
13 5 -23 -30.1 85.09
-5 -23 -13 86.29 11.7
23 -13 5 80.19 17.3
23 -13 -5 98.69 28.9
-5 23 -13 64.69 54.49
13 -5 -23 200.78 69.49
5 -23 -13 82.69 13.3
13 -5 -23 122.09 59.69
5 -23 -13 82.49 41.3
-5 -23 -15 53.99 9.3
-5 -23 -15 38.3 47.4
23 -15 5 5.4 14.9
23 -15 5 24.2 33.6
15 5 -23 -37.5 83.19
-15 -5 -23 20 9
23 -15 -5 -18.4 13.3
15 -5 -23 113.59 69.29
5 -23 -15 37.4 40.6
5 -23 -15 12.8 9.8
23 -15 -5 -14.1 25.8
-15 5 -23 5.9 9.4
23 -17 5 66.29 40
-5 -23 -17 138.09 47.1
-5 -23 -17 91.79 12.6
23 -17 5 109.49 18.8
17 5 -23 83.99 32.8
-17 -5 -23 63.69 12.7
23 -17 -5 105.29 27.7
5 -23 -17 85.59 13.7
5 -23 -17 139.69 44.3
-17 5 -23 72.59 12.9
23 -17 -5 45.8 15.6
-19 -5 -23 59.39 11.8
19 5 -23 67.09 27.8
-5 -23 -19 82.19 12.4
23 -19 5 76.59 39.3
23 -19 5 82.89 17.5
-5 -23 -19 75.79 47.2
5 -23 -19 49.3 40.5
23 -19 -5 66.09 15.6
19 -5 -23 55.69 21
5 -23 -19 80.39 13.2
-19 5 -23 86.09 12.5
23 -19 -5 97.99 27.5
23 -21 5 -15.3 38
-5 -23 -21 87.29 56.09
-5 -23 -21 17.5 9
-21 -5 -23 7 8.7
23 -21 5 19.9 14.4
21 5 -23 47.8 23.1
21 -5 -23 21.4 17.3
5 -23 -21 12.4 44.1
5 -23 -21 -0.3 9.5
23 -21 -5 23.5 12.3
23 -21 -5 10 25
-21 5 -23 11 8.5
23 1 -7 41.2 28.6
-23 1 7 4.8 32
7 -23 1 36.3 11.5
-23 -1 -7 33.4 10.6
1 7 -23 47.3 36.7
-23 1 -7 42.7 12.4
-23 1 -7 40.9 34.9
7 -23 -1 45.6 11.2
-1 7 -23 61.49 39.8
23 -1 -7 57.39 28.2
-23 3 7 -28 32.9
23 3 -7 27.5 30.7
-7 -23 -3 5.5 8.8
-23 -3 -7 -1.6 7.8
3 7 -23 7.5 32.8
7 -23 3 -17.8 10.3
-3 7 -23 118.19 39
7 -23 -3 -5.5 9.4
-23 3 -7 19.6 11.6
-23 3 -7 43 35.3
-7 -23 -5 73.59 12.6
23 -5 7 47.2 15.3
-23 -5 -7 61.49 10.2
23 5 -7 97.49 34.4
-23 5 7 96.19 38.5
7 -23 5 47.3 16.2
5 7 -23 40.5 35.8
-23 5 -7 36.6 14.6
-23 5 -7 59.29 39.5
7 -23 -5 70.99 12.4
-5 7 -23 25.9 41.2
-7 -23 -7 80.39 10.9
7 -23 7 36.8 14.5
23 7 -7 84.49 35
-23 7 7 80.79 40.4
23 -7 7 82.79 16.5
7 7 -23 63.89 38
-23 -7 -7 95.39 11.7
-7 7 -23 138.99 46.3
7 -23 -7 68.79 13.4
-23 7 -7 79.39 42.1
-7 -23 -9 2.1 6.5
7 -23 9 20.4 13.1
-23 -9 -7 -0.9 7
9 7 -23 4.8 36.6
23 -9 7 -7.1 13.6
-9 -7 -23 0 8.3
-23 9 7 13.7 37.2
7 -23 -9 -8.5 9.6
-23 9 -7 25.3 42.1
-9 7 -23 41.7 46.6
-23 11 7 2.8 55.39
-7 -23 -11 33.3 63.49
-11 -7 -23 13.7 9.4
11 7 -23 -7.4 53.39
23 -11 7 32.2 14.6
-23 -11 -7 37.4 8.8
-7 -23 -11 22.1 8
11 -7 -23 -0.1 59.29
7 -23 -11 54.19 35.3
7 -23 -11 25.5 10.8
-7 23 -11 25.8 50.49
-11 7 -23 20.5 51.39
23 -11 -7 24.9 25.1
23 -13 7 98.99 38.9
-7 -23 -13 58.29 11.2
13 7 -23 31.2 90.19
-13 -7 -23 74.89 12.7
23 -13 7 43.1 17.1
-7 -23 -13 35.6 50.39
-23 -13 -7 98.89 12.1
23 -13 -7 99.39 27.6
7 -23 -13 114.29 41.4
13 -7 -23 122.89 61.59
7 -23 -13 88.69 14.1
-7 -23 -15 -13.4 43.5
-7 -23 -15 26.2 8.8
23 -15 7 30.8 38.3
-23 -15 -7 45.7 8.7
-15 -7 -23 13.5 9.2
23 -15 7 -6.7 15.3
23 -15 -7 13.6 24.8
7 -23 -15 2.8 39.1
15 -7 -23 -73.49 59.69
7 -23 -15 49.9 11.9
-15 7 -23 12.1 14.2
17 7 -23 79.39 34.1
23 -17 7 73.69 44.5
-7 -23 -17 11.9 51.59
23 -17 7 78.09 17.9
-7 -23 -17 66.49 11.7
-23 -17 -7 82.29 11.9
-17 -7 -23 78.79 12.7
7 -23 -17 108.49 14.9
-17 7 -23 59.99 12.7
7 -23 -17 35.4 38.9
23 -17 -7 67.09 25.7
-7 -23 -19 84.09 12.1
23 -19 7 124.19 43.7
-7 -23 -19 55.59 50.89
19 7 -23 88.69 29.7
23 -19 7 73.89 18
-19 -7 -23 71.39 12.6
-19 7 -23 92.19 13.2
23 -19 -7 55.59 24.6
7 -23 -19 25.9 38.1
19 -7 -23 85.49 20.3
23 -19 -7 72.29 15.6
7 -23 -19 109.39 14.4
21 7 -23 38.1 24
23 -21 7 0.5 14.4
-7 -23 -21 14.2 8
-7 -23 -21 87.29 55.99
23 -21 7 35 39.2
-21 -7 -23 2.4 8.2
23 -21 -7 -19.4 23.6
21 -7 -23 26.4 15.8
23 -21 -7 12.5 12.5
-21 7 -23 21.5 8.7
-23 -1 -9 183.68 23.1
23 1 -9 176.38 42.1
9 -23 1 204.88 24.8
1 9 -23 213.58 46.4
-1 9 -23 131.79 45.9
23 -1 -9 248.88 41.5
9 -23 -1 205.48 24.9
-23 1 -9 258.37 25
-23 1 -9 179.88 49.7
-9 -23 -3 57.29 10.2
-23 3 9 59.89 36.2
23 3 -9 14.3 29.2
3 9 -23 64.89 39
-23 -3 -9 57.19 10.5
9 -23 3 49.8 13.1
-23 3 -9 61.29 13.6
9 -23 -3 39.6 12
-3 9 -23 85.79 41.5
23 -3 -9 90.69 30.3
-23 3 -9 144.99 45.4
-23 -5 -9 11.1 7.4
23 -5 9 -21.2 13.1
5 9 -23 42.7 39.3
-23 5 9 -46.9 33.4
-9 -23 -5 -3.7 6.4
23 5 -9 6.8 29.8
9 -23 5 -9.1 11.2
-23 5 -9 13 39.9
9 -23 -5 0 9.8
-5 9 -23 -14.1 42.1
-23 5 -9 -1.3 11.8
23 -7 9 -3.1 14.1
-9 -23 -7 10.3 6.9
7 9 -23 19.3 39.2
-23 -7 -9 3.5 7.5
-23 7 9 -19.8 36.3
-7 -9 -23 -1.5 12.4
9 -23 7 -6.4 12.6
23 7 -9 -7.5 30.8
-23 7 -9 -0.7 13.1
-7 9 -23 -7.2 44.7
-23 7 -9 15.3 42.6
9 -23 -7 9.1 9.7
-23 9 9 -5.4 39.3
-9 -23 -9 44.2 8.7
-23 -9 -9 48.4 9.4
23 -9 9 52.09 15.5
23 9 -9 -24.3 35.9
9 9 -23 41.7 41
-9 -9 -23 55.49 10.3
9 -23 9 41.7 14.7
9 -23 -9 54.59 42.5
9 -9 -23 55.99 66.09
23 -9 -9 17 21.1
-23 9 -9 17.5 45.3
-9 9 -23 62.29 49.6
9 -23 -9 31.8 11
-9 23 -9 49 72.79
-23 -11 -9 171.58 20.2
-11 -9 -23 170.18 20.7
-9 -23 -11 181.48 19.9
9 -23 11 186.18 24
-9 -23 -11 251.07 60.09
11 9 -23 118.89 99.99
23 -11 9 165.38 24.1
-11 -9 -23 415.66 152.78
9 -23 -11 195.38 22.7
9 -23 -11 184.68 42
23 -11 -9 200.78 32.1
11 -9 -23 247.18 65.79
-9 -23 -13 291.97 27.2
13 9 -23 242.98 105.19
-9 -23 -13 286.47 62.99
-23 -13 -9 268.47 27.2
23 -13 9 249.38 30.7
-13 -9 -23 266.47 27.8
23 -13 9 273.77 55.39
9 -23 -13 246.88 50.19
13 -9 -23 279.17 68.69
23 -13 -9 277.57 40.4
9 -23 -13 268.27 29.2
23 -15 9 104.89 20
-9 -23 -15 124.49 52.89
-15 -9 -23 100.39 14.3
-23 -15 -9 110.99 13.3
-9 -23 -15 80.19 12.9
23 -15 9 35 45.7
15 9 -23 106.59 35.4
9 -23 -15 98.69 40.3
15 -9 -23 110.79 58.59
23 -15 -9 129.19 28.4
9 -23 -15 97.69 15.3
23 -17 9 5.1 15
-9 -23 -17 -57.09 44.2
17 9 -23 72.49 30.7
-17 -9 -23 -8.2 8
-23 -17 -9 25.9 8.7
-9 -23 -17 18.7 8
23 -17 9 1.9 43.1
23 -17 -9 4 19.6
9 -23 -17 21.6 10.7
-17 9 -23 20.2 9.7
17 -9 -23 -8.8 17.3
23 -19 9 36.3 14.7
19 9 -23 23.2 27.6
-9 -23 -19 10 7.8
23 -19 9 40.9 44.8
-19 -9 -23 23.8 8.8
-9 -23 -19 0.3 51.59
-23 -19 -9 2.8 7.8
9 -23 -19 3 9.8
23 -19 -9 -30.7 19.2
-19 9 -23 19.4 9.2
19 -9 -23 16.9 14.6
21 9 -23 -1.3 24.8
-9 -23 -21 25.7 57.59
-21 -9 -23 10.7 8.3
23 -21 9 4.8 40.3
23 -21 9 17.6 13.6
-9 -23 -21 -0.4 7.3
-23 -21 -9 -1.5 7.1
23 -21 -9 -20.7 21.4
21 -9 -23 -1.9 11.8
-21 9 -23 2.1 8.5
11 -23 1 400.26 40.4
1 11 -23 451.55 65.79
23 1 -11 398.66 57.29
-23 -1 -11 421.56 38.6
23 -1 -11 430.86 59.39
-1 11 -23 277.17 60.59
-23 1 -11 370.66 39.3
11 -23 -1 471.35 40.7
23 3 -11 172.38 42.5
11 -23 3 174.28 20.9
-23 -3 -11 145.39 17.7
-11 -23 -3 146.99 17.8
3 11 -23 156.08 47.2
-23 3 -11 211.98 49.8
-3 11 -23 195.48 49.4
23 -3 -11 154.18 36.6
-23 3 -11 155.98 20.3
11 -23 -3 168.68 20.1
11 -23 5 43.7 13.2
5 11 -23 53.79 43
23 5 -11 -7.5 31.8
-23 5 11 -28.1 35.2
-11 -23 -5 22.9 8.2
-23 -5 -11 40.2 9.2
-23 5 -11 127.89 46.9
23 -5 -11 51.29 31.4
-5 11 -23 33.6 46.8
-23 5 -11 39.9 13.8
11 -23 -5 29.1 11.5
11 -23 7 21.1 13.5
23 -7 11 23.9 15.1
-7 -11 -23 41.4 9.8
23 7 -11 78.09 35.2
-11 -23 -7 31.6 8.3
-7 -11 -23 23.5 89.89
-23 -7 -11 30.9 8.9
-7 11 -23 9.6 52.59
-23 7 -11 38.2 13.8
-23 7 -11 24.7 48.1
11 -23 -7 12.9 31.4
7 -11 -23 -29.8 55.29
23 -7 -11 51.49 19.4
11 -23 -7 36.6 11.7
-23 -9 -11 170.18 20
-11 -23 -9 249.38 69.79
-9 -11 -23 251.47 86.19
-9 -11 -23 196.08 21.3
11 -23 9 214.38 54.49
-11 -23 -9 183.78 19.7
23 -9 11 137.19 23.5
11 -23 9 170.08 23.3
-23 9 -11 168.38 23
11 -23 -9 246.68 38.1
23 -9 -11 173.78 27.6
11 -23 -9 170.48 20.9
9 -11 -23 345.77 63.59
-11 -11 -23 348.67 103.39
-11 -11 -23 438.16 42.8
23 -11 11 432.86 46.4
11 -23 11 455.55 45.9
-11 -23 -11 476.95 42.4
-11 -23 -11 721.53 87.29
-23 -11 -11 453.35 42.5
11 -23 -11 423.76 43.7
23 -11 -11 450.05 52.19
11 -23 -11 480.85 58.99
11 -11 -23 693.43 79.89
-11 -23 -13 702.93 82.49
-23 -13 -11 514.85 45.9
-13 -11 -23 462.95 46.2
-11 -23 -13 572.74 46.4
11 -23 13 502.05 49.4
23 -13 11 486.35 49.4
23 -13 -11 507.35 56.79
11 -23 -13 571.44 66.79
13 -11 -23 346.47 74.99
11 -23 -13 426.26 46.9
-15 -11 -23 207.38 21.8
23 -15 11 206.28 25.6
-23 -15 -11 188.08 21.1
-11 -23 -15 196.58 20.9
15 11 -23 183.98 41.5
-11 -23 -15 139.59 61.99
15 -11 -23 107.89 60.79
23 -15 -11 191.38 32.9
11 -23 -15 170.48 22
-11 -23 -17 30.6 49.99
-17 -11 -23 26.8 8.9
-23 -17 -11 37.2 9
23 -17 11 25.7 50.09
23 -17 11 57.39 16.2
-11 -23 -17 21.6 8.1
17 11 -23 54.29 31.2
-17 11 -23 35.7 10.7
11 -23 -17 25.1 11.1
23 -17 -11 18.9 17.5
23 -19 11 -58.19 44
-11 -23 -19 0.3 7
-19 -11 -23 0.3 7.4
23 -19 11 10.3 13.8
-23 -19 -11 12.1 7.8
-11 -23 -19 -12.7 56.39
19 11 -23 -8.5 25.7
-19 11 -23 4.6 8.6
23 -21 11 35.1 14.1
-11 -23 -21 42.8 60.19
-23 -21 -11 44.5 9.1
21 11 -23 68.49 27.7
-11 -23 -21 28 8.6
23 -21 11 0.3 41
-21 -11 -23 41 8.9
-21 11 -23 35.1 9.6
23 1 -13 380.26 45.1
13 -23 1 372.96 54.09
13 -23 1 369.06 38.5
-1 -13 -23 428.86 79.19
-23 -1 -13 355.56 36
23 -1 -13 456.55 82.49
-1 13 -23 448.06 99.99
13 -23 -1 509.25 58.19
-23 1 -13 318.27 36.2
13 -23 -1 385.46 38.3
1 -13 -23 362.96 74.59
23 -1 -13 441.76 45
13 -23 3 207.58 45.4
-23 -3 -13 227.08 22.3
23 3 -13 206.38 32.2
-3 -13 -23 195.48 67.79
13 -23 3 153.38 23.3
23 -3 -13 151.58 28
13 -23 -3 232.48 25.2
3 -13 -23 369.66 67.29
-23 3 -13 186.18 22.7
13 -23 -3 251.47 39.3
-23 -5 -13 54.69 11.1
-5 -13 -23 -18.6 68.49
13 -23 5 95.99 15.9
-5 -13 -23 59.59 11.7
-13 -23 -5 85.09 11.2
23 5 -13 67.69 23.9
13 -23 5 87.49 39.6
-23 5 -13 83.59 77.89
-23 5 -13 72.29 15.1
13 -23 -5 59.69 14.1
13 -23 -5 54.49 29.9
5 -13 -23 126.19 58.09
23 -5 -13 77.69 19.4
-13 -23 -7 72.69 10.8
-7 -13 -23 97.69 12.9
13 -23 7 81.89 42.5
-7 -13 -23 25.5 73.29
23 7 -13 88.59 24.8
-23 -7 -13 53.99 10.9
13 -23 7 78.99 16.2
13 -23 -7 64.69 30.4
7 -13 -23 85.79 55.29
-23 7 -13 43.2 15.2
23 -7 -13 76.19 20.3
13 -23 -7 50.29 14.1
13 -23 9 287.47 31.7
-9 -13 -23 255.37 27.5
23 9 -13 314.57 40
-9 -13 -23 300.27 89.39
-23 -9 -13 258.47 26.6
23 -9 13 203.18 29.9
-13 -23 -9 282.17 26.4
13 -23 9 223.78 56.39
9 -13 -23 306.47 62.79
13 -23 -9 249.68 29.5
23 -9 -13 249.97 32.9
-23 9 -13 275.07 31.7
13 -23 -9 295.17 41
23 -11 13 517.65 49.6
13 -23 11 554.24 49.1
-13 -23 -11 509.65 45.1
-23 -11 -13 467.55 45.2
-11 -13 -23 450.85 45.6
-11 -13 -23 387.46 100.39
23 -11 -13 507.15 52.19
-23 11 -13 537.85 49.2
13 -23 -11 444.66 46.9
13 -23 -11 514.15 60.09
11 -13 -23 417.26 71.59
23 -13 13 534.65 47.4
13 -23 13 458.45 48.2
-13 -13 -23 474.15 43.9
-13 -13 -23 301.87 119.59
-13 -23 -13 550.14 85.89
-13 -23 -13 446.36 43.1
-23 -13 -13 457.95 43.4
13 -23 -13 443.46 45.4
-23 13 -13 511.85 47.2
23 -13 -13 444.26 53.39
-15 -13 -23 193.08 21.4
-13 -23 -15 166.68 64.09
-13 -23 -15 172.68 20.4
-23 -15 -13 191.88 20.5
13 -23 15 168.98 24.9
23 -15 13 181.88 24.2
23 -15 -13 154.08 28.1
13 -23 -15 211.08 22.5
-17 -13 -23 37.4 9.6
-13 -23 -17 35.6 9
-13 -23 -17 -16.4 55.39
23 -17 13 63.69 15.3
-23 -17 -13 44.2 9.5
-13 -23 -19 -38.7 56.79
-19 -13 -23 10.5 8
23 -19 13 15.4 13.5
-13 -23 -19 2.3 7.2
-23 -19 -13 3 7.4
-19 13 -23 14.2 9.1
-13 -23 -21 145.39 63.69
-23 -21 -13 51.19 9.2
23 -21 13 27.2 13.8
-13 -23 -21 48.1 9
-21 -13 -23 42.3 9.2
21 13 -23 61.29 44
-21 13 -23 31.2 9.3
-1 -15 -23 164.68 63.99
15 -23 1 158.58 41.9
15 -23 1 135.69 21.5
23 1 -15 186.48 29.5
-23 -1 -15 166.68 19.5
23 -1 -15 161.08 27.1
15 -23 -1 177.28 21.6
-23 1 -15 143.09 18.6
15 -23 -1 180.88 38.1
1 -15 -23 291.77 64.09
15 -23 3 50.19 39.7
15 -23 3 89.09 16.4
-23 -3 -15 57.09 11.2
-3 -15 -23 97.29 65.59
-3 -15 -23 59.39 10.9
23 3 -15 109.39 25.7
23 -3 -15 74.59 19.8
15 -23 -3 77.89 15.2
-23 3 -15 49.3 12.6
3 -15 -23 299.17 61.39
15 -23 -3 93.09 31.8
-5 -15 -23 -30.7 65.19
15 -23 5 37.3 14
-15 -23 -5 35.8 8.3
15 -23 5 24.2 42
23 5 -15 36.1 22.9
-23 -5 -15 8.6 8.4
-5 -15 -23 15.2 8.6
23 -5 -15 27.8 17.3
15 -23 -5 61.09 28.1
5 -15 -23 76.29 54.29
15 -23 -5 37.3 13.2
-23 5 -15 3.4 11.4
15 -23 7 9.9 39.9
23 7 -15 -12.7 22.2
15 -23 7 -4.2 13.7
-7 -15 -23 -48.4 69.79
-7 -15 -23 38.5 9.9
-23 -7 -15 6.3 8.5
-15 -23 -7 3.3 7.4
7 -15 -23 -0.9 50.99
23 -7 -15 21.8 16.4
15 -23 -7 20 27.1
15 -23 -7 -7.8 12
-23 7 -15 0.5 13
15 -23 9 69.69 45.6
-9 -15 -23 36.6 72.69
-15 -23 -9 112.79 13.8
-9 -15 -23 107.19 15
-23 -9 -15 98.99 14
15 -23 9 115.89 19.8
23 9 -15 119.69 29.3
15 -23 -9 94.59 17.1
-23 9 -15 111.49 19
15 -23 -9 148.49 31.3
23 -9 -15 70.99 21
9 -15 -23 105.69 49.7
-11 -15 -23 253.07 91.29
15 -23 11 150.58 53.19
-11 -15 -23 186.98 22.1
15 -23 11 180.88 24.3
-23 -11 -15 183.58 20.6
-15 -23 -11 188.18 20.5
15 -23 -11 165.78 23
23 -11 -15 191.18 28.9
-23 11 -15 196.28 23.9
15 -23 13 121.19 24.4
-13 -15 -23 203.38 22
-23 -13 -15 205.98 21
-13 -15 -23 221.38 87.29
-15 -23 -13 192.88 20.8
23 -13 15 221.38 24.8
23 -13 -15 176.18 28.8
-23 13 -15 199.38 24
15 -23 -13 175.38 22.7
-23 -15 -15 56.19 10.7
23 -15 15 84.09 16.4
15 -23 15 41.5 16.2
-15 -23 -15 66.69 10.6
-15 -15 -23 71.69 11.5
-23 15 -15 58.89 15.4
15 -23 -15 63.89 19.7
-23 -17 -15 19.5 7.8
23 -17 15 20.4 13.6
-17 -15 -23 -0.3 7.8
-15 -23 -17 1 7.4
15 -23 17 -3.4 13.4
-23 17 -15 0.8 12.1
-23 -19 -15 5.9 7.2
-15 -23 -19 43.9 63.09
-15 -23 -19 -2.7 6.8
-19 -15 -23 1.7 7.4
23 -19 15 3.8 12.7
-19 15 -23 -10.3 8.4
-23 19 -15 17.5 12.3
17 -23 1 31.4 34.1
17 -23 1 22.4 14.5
-23 -1 -17 26.7 10
-1 -17 -23 19.2 59.49
-1 -17 -23 43.4 10.1
23 1 -17 58.89 22.5
23 -1 -17 42.8 20.8
17 -23 -1 68.39 33.1
17 -23 -1 61.49 15.5
-23 1 -17 15.3 10.1
1 -17 -23 123.39 58.69
17 -23 3 13.9 14.4
-23 -3 -17 22.8 9.5
-3 -17 -23 -2.8 65.79
17 -23 3 5.4 38.1
23 3 -17 80.49 25.5
-3 -17 -23 21.6 8.6
3 -17 -23 173.78 57.89
-23 3 -17 25.7 10.7
17 -23 -3 7.4 14.5
17 -23 -3 61.19 31.4
23 -3 -17 9.7 19
-23 -5 -17 66.69 11.8
-5 -17 -23 67.69 11.5
23 5 -17 119.69 29.2
17 -23 5 0.4 40.4
17 -23 5 92.29 17.5
-5 -17 -23 -135.19 67.09
5 -17 -23 214.88 57.69
17 -23 -5 47.4 30.8
23 -5 -17 61.39 19.8
-23 5 -17 65.49 13.1
17 -23 -5 59.89 15.9
-23 -7 -17 55.79 10.8
23 7 -17 63.49 27.5
-7 -17 -23 52.59 11.9
17 -23 7 45.9 15.7
-17 -23 -7 57.19 10.4
17 -23 7 -7.2 46.1
-7 -17 -23 49.6 76.19
17 -23 -7 59.69 15
17 -23 -7 28.4 27.5
7 -17 -23 74.19 52.09
23 -7 -17 62.59 18.7
-23 7 -17 60.19 13.1
17 -23 9 10.9 13.8
-9 -17 -23 5.3 69.09
-23 -9 -17 1.7 8
-9 -17 -23 9.2 9.3
-17 -23 -9 -0.2 7.3
17 -23 9 71.99 46.6
23 9 -17 21.6 25.6
17 -23 -9 14.6 12.5
23 -9 -17 22 17.1
-23 9 -17 0 11.1
17 -23 -9 -2.5 24.4
-11 -17 -23 26 9.8
17 -23 11 -11.2 42.5
17 -23 11 19.5 15.1
-17 -23 -11 19 8
23 11 -17 24.2 25.6
-23 -11 -17 25.1 8.9
-11 -17 -23 95.59 70.69
17 -23 -11 26.1 12.6
23 -11 -17 40.6 17.1
-23 11 -17 34.3 13
17 -23 13 35.9 15.4
-13 -17 -23 38.7 10.3
-13 -17 -23 47.7 74.39
-17 -23 -13 39.3 9
-23 -13 -17 49.9 9.4
17 -23 -13 32.5 12.6
-23 13 -17 44 13.8
-15 -17 -23 6.7 8.2
17 -23 15 18.9 13.6
-17 -23 -15 6.4 7.2
-23 -15 -17 2.4 7.7
-23 15 -17 8.4 12.3
-17 -23 -17 7.4 7
-17 -17 -23 9.3 8.1
-23 -17 -17 9.3 7.6
17 -23 17 8.4 13.3
-23 17 -17 3.8 11.7
19 -23 1 29.7 34
-1 -19 -23 -25 54.79
-1 -19 -23 7.7 9.3
23 1 -19 1.8 20.5
-23 -1 -19 -2.5 8.3
19 -23 1 11.3 12.9
1 -19 -23 -33.8 52.99
19 -23 -1 -26.8 29.4
19 -23 -1 4.5 12.7
23 -1 -19 -2.6 18.9
-23 1 -19 5.2 8.5
-3 -19 -23 78.79 61.89
19 -23 3 -4.4 35.5
19 -23 3 13.2 13.4
-23 -3 -19 21.1 9
-3 -19 -23 22.7 8.8
23 3 -19 11.9 21.3
23 -3 -19 17.9 18
19 -23 -3 25.4 28.9
-23 3 -19 15.8 9.3
19 -23 -3 3.4 12.2
3 -19 -23 31.7 51.69
-5 -19 -23 16.8 62.09
19 -23 5 8.6 40.3
23 5 -19 97.39 26.6
-23 -5 -19 69.29 11.8
19 -23 5 75.09 16.4
-5 -19 -23 70.89 11.7
5 -19 -23 97.49 51.69
19 -23 -5 41.5 14.8
-23 5 -19 88.99 12.7
19 -23 -5 21.7 28.4
23 -5 -19 61.69 18.4
-7 -19 -23 69.89 11.7
-19 -23 -7 76.19 11.3
19 -23 7 40.9 42.5
23 7 -19 54.39 26.6
-7 -19 -23 -5.6 64.59
19 -23 7 91.79 17.2
-23 -7 -19 64.29 12
19 -23 -7 92.29 26.5
-23 7 -19 104.79 13.6
19 -23 -7 64.89 15.8
7 -19 -23 83.39 46.6
23 -7 -19 69.39 17.8
19 -23 9 12.8 13.9
-9 -19 -23 13.7 8.6
23 9 -19 22.3 24.7
-23 -9 -19 0.8 8
-19 -23 -9 13 7.5
19 -23 9 6 41
-9 -19 -23 -26.8 62.89
19 -23 -9 14.4 12.9
23 -9 -19 -3.4 15
-23 9 -19 17.3 10.1
19 -23 -9 -17.2 22.1
23 11 -19 -12.3 23.3
-19 -23 -11 3 7.1
19 -23 11 -4.6 13.1
-23 -11 -19 23.2 8.2
-11 -19 -23 -51.59 64.19
-11 -19 -23 5.3 8.2
19 -23 11 31 41.4
23 -11 -19 21.6 14.7
-23 11 -19 3.5 10.3
19 -23 -11 -18.6 11.4
-19 -23 -13 2.6 7
-13 -19 -23 -32.7 63.49
-23 -13 -19 21.2 7.8
-13 -19 -23 12.6 8.5
19 -23 13 31.3 13.5
-23 13 -19 5.9 10.7
-15 -19 -23 27.8 68.69
-23 -15 -19 6.9 7.1
-15 -19 -23 -5.5 7.4
19 -23 15 -0.1 12.8
-19 -23 -15 -3 6.6
-23 15 -19 -3 10.3
-1 -21 -23 47.3 11
21 -23 1 59.69 34.3
23 1 -21 59.39 21.9
-23 -1 -21 22.7 9.8
-1 -21 -23 11.8 58.59
21 -23 1 11.1 13.5
1 -21 -23 58.29 11
1 -21 -23 99.49 56.69
-23 1 -21 33.6 9.9
21 -23 -1 31.9 13.4
23 -1 -21 28.2 20.3
21 -23 -1 34.3 31.7
-3 -21 -23 61.79 60.49
21 -23 3 8.4 35.1
21 -23 3 11.2 13.6
-3 -21 -23 -2.5 8.8
23 3 -21 -20.4 19.6
-23 -3 -21 15.6 8.8
3 -21 -23 13.4 49.3
21 -23 -3 -1.7 27.6
23 -3 -21 12.9 17.6
-23 3 -21 -2.8 8.6
21 -23 -3 1.2 12.3
-23 -5 -21 31.3 9.3
23 5 -21 -10.8 20.3
21 -23 5 7.7 13.9
-5 -21 -23 12.2 8.7
-5 -21 -23 22.4 57.89
21 -23 5 62.59 37.9
5 -21 -23 19.6 45.4
21 -23 -5 16.5 12.5
21 -23 -5 7.5 25.2
23 -5 -21 6.3 15.7
-23 5 -21 21.2 9.1
21 -23 7 14.4 13.9
23 7 -21 25.2 23.1
-7 -21 -23 6.6 8
-23 -7 -21 1.2 8.2
-7 -21 -23 63.39 61.19
21 -23 7 45.1 39.2
21 -23 -7 11.4 12.2
-23 7 -21 19.8 9.4
23 -7 -21 8.4 14.4
21 -23 -7 19.1 22.9
-21 -23 -9 -2.5 6.9
21 -23 9 -13.9 13.2
-9 -21 -23 -10.7 7.4
23 9 -21 -2.3 23.5
-23 -9 -21 12.2 8.3
21 -23 9 -25.7 39.4
-9 -21 -23 -10.8 59.79
23 -9 -21 -10.9 13.9
21 -23 -9 -5.9 11.7
-23 9 -21 4.8 8.6
21 -23 -9 -28 20.7
-21 -23 -11 29.7 8.1
-11 -21 -23 31.6 8.9
-11 -21 -23 -35.6 60.79
21 -23 11 67.19 41
21 -23 11 39.9 14.3
23 11 -21 54.89 26.7
-23 -11 -21 45.2 9.3
-23 11 -21 38.6 10
21 -23 -11 24.6 20.3
21 -23 13 48.5 14.2
-13 -21 -23 32.5 8.6
-23 -13 -21 58.99 9.8
-13 -21 -23 39.7 64.49
-21 -23 -13 36.7 8.4
-23 13 -21 34.8 10
-23 -1 -23 295.87 32.1
23 -23 1 332.77 35
-1 -23 -23 545.55 81.49
-1 -23 -23 330.27 32.6
23 -23 1 351.06 52.89
23 1 -23 425.36 44.1
23 -23 -1 302.57 49.6
23 -23 -1 319.37 34.7
1 -23 -23 351.86 72.29
-23 1 -23 327.37 32
23 -1 -23 314.47 41.3
1 -23 -23 291.77 32.5
-23 -3 -23 122.39 16.4
23 -23 3 127.49 20.2
-3 -23 -23 144.99 65.49
-3 -23 -23 151.28 17.3
23 -23 3 151.18 41.1
23 3 -23 164.68 28.6
23 -23 -3 118.99 34.6
23 -23 -3 103.99 18.5
3 -23 -23 127.09 55.59
-23 3 -23 142.79 16.5
23 -3 -23 136.49 24.4
3 -23 -23 119.89 16.7
-23 -5 -23 28.8 9.9
23 -23 5 46.3 36.3
-5 -23 -23 2.8 59.29
-5 -23 -23 42.4 10.6
23 5 -23 53.09 23.5
23 -23 5 52.99 15.6
23 -23 -5 37.1 13.5
-23 5 -23 54.99 10.1
23 -23 -5 50.19 27
23 -5 -23 49 16.5
5 -23 -23 27.7 46
-23 -7 -23 30.4 9.1
23 7 -23 17 23.2
-7 -23 -23 -0.7 58.29
-7 -23 -23 41.3 9.7
23 -23 7 4.8 13.7
23 -23 7 23.7 37.5
23 -23 -7 7 11.6
23 -23 -7 33.2 22.9
23 -7 -23 27.6 13.9
-23 7 -23 32.1 9
-23 -23 -9 75.49 10.7
-23 -9 -23 65.89 11.4
23 9 -23 65.39 26.5
-9 -23 -23 59.79 62.99
-9 -23 -23 80.89 11.2
23 -23 9 51.59 15.5
23 -23 9 66.39 41.1
23 -23 -9 49.3 13.5
23 -23 -9 45 22.9
23 -9 -23 63.19 15.6
-23 9 -23 81.49 11.4
-24 0 0 1351.36 131.19
0 -24 0 1227.28 113.99
0 0 -24 1413.46 131.79
2 0 -24 848.92 91.29
-24 2 0 924.51 94.19
-2 0 -24 767.32 109.69
0 -24 -2 766.32 71.69
-24 -2 0 795.72 92.69
4 0 -24 280.67 49
-24 -4 0 248.38 60.79
-24 4 0 276.57 52.49
0 -24 -4 269.17 27.8
0 -24 -6 134.39 16.7
6 0 -24 172.08 41.8
-24 6 0 198.68 46.7
0 -24 -8 216.58 24.7
24 -8 0 247.38 26.9
8 0 -24 190.78 43.5
-24 8 0 240.98 51.59
-24 10 0 323.57 61.69
10 0 -24 327.57 54.19
0 -24 -10 337.97 34.6
24 -10 0 398.76 37.8
24 -12 0 591.04 56.59
24 -12 0 665.03 73.89
0 -24 -12 594.64 54.09
0 -24 -12 559.74 80.29
12 0 -24 370.36 102.19
24 -14 0 411.66 52.49
-14 0 -24 350.76 35.7
14 0 -24 315.97 93.39
24 -14 0 341.57 38.6
0 -24 -14 431.26 63.09
0 -24 -14 384.16 36.3
24 -16 0 152.58 34.2
16 0 -24 86.89 83.49
0 -24 -16 111.19 16.3
-16 0 -24 132.59 16
24 -16 0 92.39 19.7
0 -24 -16 90.19 47.9
24 -18 0 11.7 14.5
-18 0 -24 26.8 10
24 -18 0 -8.9 28.5
0 -24 -18 105.89 41.5
0 -24 -18 39.8 10.8
18 0 -24 46.8 26.4
0 -24 -20 43.1 47.2
0 -24 -20 12.9 9.9
-20 0 -24 20.6 9.4
24 -20 0 69.99 30.9
24 -20 0 24.4 14.2
20 0 -24 36.5 21.4
0 -24 -22 257.97 28
24 -22 0 207.28 46.9
0 -24 -22 303.17 68.59
24 -22 0 246.78 30.5
22 0 -24 347.97 39.2
-22 0 -24 254.47 26.8
-2 -24 0 838.22 73.79
-24 0 -2 885.21 92.69
0 2 -24 817.72 92.29
-24 0 2 714.33 90.89
2 -24 0 740.43 71.09
-24 2 2 522.95 69.39
2 2 -24 443.36 66.59
-2 -24 -2 501.95 47.6
2 -24 2 512.75 48.6
-24 -2 -2 521.15 68.09
-24 2 -2 536.45 67.89
-2 2 -24 561.34 71.09
-24 -2 2 524.05 67.49
2 -24 -2 526.05 48.2
24 -4 2 224.08 25.1
4 2 -24 162.78 43.3
2 -24 4 225.18 24.7
-2 -24 -4 171.48 22.8
-24 4 2 193.98 46.5
4 -2 -24 247.98 44.8
-24 -4 2 158.38 42.7
2 -24 -4 182.58 23.1
-4 2 -24 227.28 50.19
-24 4 -2 330.37 50.89
2 -24 -4 244.38 177.08
-24 4 -2 222.28 24.7
2 -24 6 39.2 15.4
-2 -24 -6 56.69 10.5
6 2 -24 71.09 37.2
24 -6 2 52.09 15.2
-24 6 2 49.9 38.5
-24 6 -2 71.79 41
-6 2 -24 10.6 66.99
6 -2 -24 118.99 34.5
2 -24 -6 45.8 10.7
24 -8 2 113.09 19.8
-2 -24 -8 120.89 15.6
-24 8 2 83.69 46.2
8 2 -24 163.48 41.6
-24 8 -2 150.48 49.3
8 -2 -24 62.59 35.2
2 -24 -8 135.39 16.3
-24 10 2 255.97 53.59
24 -10 2 228.68 28.4
10 2 -24 237.18 46.7
-2 -24 -10 275.27 26.4
-24 10 -2 233.28 54.79
2 -24 -10 232.88 26.5
10 -2 -24 258.57 46.9
24 -10 -2 279.07 36.8
24 -12 2 443.56 59.59
12 2 -24 426.66 105.09
-2 -24 -12 396.46 40.2
-2 -24 -12 442.76 70.29
24 -12 2 437.36 43.4
-12 -2 -24 383.26 41.9
24 -12 -2 473.35 43.3
12 -2 -24 314.77 88.39
2 -24 -12 404.76 40.4
2 -24 -12 504.85 67.89
24 -12 -2 524.85 59.69
24 -14 2 262.07 45.8
14 2 -24 165.98 90.89
-2 -24 -14 256.67 27.5
24 -14 2 259.77 30.2
-14 -2 -24 275.87 28
-2 -24 -14 276.17 59.09
24 -14 -2 302.27 44.3
24 -14 -2 225.28 29.5
2 -24 -14 295.57 28.3
2 -24 -14 353.66 56.39
-14 2 -24 246.28 28.6
14 -2 -24 241.28 85.69
-2 -24 -16 74.29 46.6
24 -16 2 108.79 18.6
-2 -24 -16 107.29 14.3
24 -16 2 105.39 34.1
16 2 -24 101.49 85.19
-16 -2 -24 63.79 12.7
2 -24 -16 71.89 13.7
-16 2 -24 90.19 13.7
16 -2 -24 40.9 80.59
2 -24 -16 50.89 44.5
24 -16 -2 49.9 17.3
24 -16 -2 80.69 30.6
-2 -24 -18 22.9 42.1
24 -18 2 7.2 14.3
-18 -2 -24 18.6 9.5
18 2 -24 -2.7 24.2
24 -18 2 -0.7 31.1
-2 -24 -18 34.9 10
-18 2 -24 11.3 9.3
2 -24 -18 -4.8 9.1
24 -18 -2 4.4 13.8
18 -2 -24 41.8 24.2
2 -24 -18 0.7 37.7
24 -18 -2 26.6 26.1
-20 -2 -24 13.1 9.3
-2 -24 -20 3.9 9.6
20 2 -24 -12.3 21
24 -20 2 12.6 14.3
24 -20 2 17 31.1
-2 -24 -20 18.6 47
-20 2 -24 9.6 9.2
2 -24 -20 23 43.4
20 -2 -24 4.9 18.9
24 -20 -2 16.9 27.6
2 -24 -20 17.3 9.7
24 -20 -2 3.4 13
-22 -2 -24 144.59 18.7
-2 -24 -22 202.48 21.1
-2 -24 -22 288.97 68.19
24 -22 2 127.49 42.9
22 2 -24 188.28 30.8
24 -22 2 151.08 22.7
2 -24 -22 152.08 58.59
22 -2 -24 184.48 28.2
24 -22 -2 164.78 39.3
2 -24 -22 148.59 19.6
-22 2 -24 180.98 20
24 -22 -2 163.68 21.6
4 -24 0 273.57 28.6
-24 0 -4 247.58 28.7
-24 0 4 292.97 48.9
-24 0 -4 299.17 48.4
0 4 -24 194.98 48.9
-4 -24 0 260.17 30.6
-4 -24 -2 199.68 21.9
2 4 -24 162.48 44.9
-24 2 4 151.88 43.7
4 -24 2 214.08 22.3
-24 -2 -4 131.19 24.7
-24 2 -4 202.88 45.6
-24 2 -4 214.88 24.1
4 -24 -2 167.98 21.2
-24 -2 4 251.87 46
-2 4 -24 224.98 47.1
4 -24 -2 116.39 179.28
24 -4 4 29.5 14
-24 -4 -4 13.1 11.4
4 4 -24 -31.9 34.9
4 -24 4 11.9 11.4
-4 -24 -4 33.8 10.2
-24 4 4 64.89 36.6
-24 4 -4 3.4 37
-4 4 -24 -25.6 38.6
-24 4 -4 21.5 12
4 -24 -4 22.6 9.8
-24 -4 4 0.3 33.5
4 -24 6 -31.6 11.4
6 4 -24 -3.9 34.6
-4 -24 -6 9.8 8.2
-24 6 4 26.3 37.8
24 -6 4 -10.7 12.9
-6 4 -24 -5.1 42.5
4 -24 -6 2.4 9
-24 6 -4 -8.9 38
-24 -6 4 -14.8 48.5
8 4 -24 9.7 35.6
-4 -24 -8 15.8 8.2
24 -8 4 0.9 14.5
-24 8 4 34.7 39.9
-24 8 -4 43.1 40.9
-8 4 -24 -17.5 45.7
4 -24 -8 5.4 9.2
24 -10 4 69.39 16.7
-24 10 4 23.4 47.2
10 4 -24 14.5 36
-4 -24 -10 55.39 11
-4 -24 -10 152.98 61.89
10 -4 -24 -17.7 67.09
-24 10 -4 127.69 56.39
4 -24 -10 111.89 44.2
4 -24 -10 59.79 12.2
24 -10 -4 99.69 32.3
10 -4 -24 70.39 36.3
-12 -4 -24 162.38 19.8
-4 -24 -12 206.68 56.09
24 -12 4 204.28 24
12 4 -24 111.09 91.09
24 -12 4 205.68 45.8
-4 -24 -12 181.78 20.5
4 -24 -12 149.19 19.9
4 -24 -12 271.67 50.69
24 -12 -4 190.48 35.8
12 -4 -24 282.97 73.49
24 -14 4 135.89 20.3
14 4 -24 242.68 98.89
24 -14 4 131.99 38.4
-14 -4 -24 101.39 15.5
-4 -24 -14 139.69 51.89
-4 -24 -14 132.29 16
24 -14 -4 121.89 32.8
24 -14 -4 91.09 19.8
4 -24 -14 271.17 48.8
14 -4 -24 236.98 77.29
4 -24 -14 125.39 16.3
24 -16 4 27.9 16.1
-16 -4 -24 16.4 9.7
-4 -24 -16 98.79 47.5
24 -16 4 -15 32.2
-4 -24 -16 53.79 10.5
24 -16 -4 2.7 13.8
4 -24 -16 12.6 10.4
-16 4 -24 21.5 9.9
24 -16 -4 18 26.6
4 -24 -16 27.8 41.8
16 -4 -24 79.79 74.09
18 4 -24 -8.6 25.5
-4 -24 -18 22 9.5
24 -18 4 17.2 35.5
-4 -24 -18 44.4 43.2
-18 -4 -24 11.2 9
24 -18 4 4.6 14.4
4 -24 -18 59.39 37.7
24 -18 -4 -24.6 13.2
18 -4 -24 41.7 23.1
4 -24 -18 13.5 9.9
24 -18 -4 -4.2 22.6
-18 4 -24 32.3 10
20 4 -24 19.4 23.3
-4 -24 -20 1.1 8.6
-20 -4 -24 -8.5 8.1
24 -20 4 29.4 14.7
24 -20 4 49.99 34.4
-4 -24 -20 -0.8 47
4 -24 -20 1.7 9.2
20 -4 -24 23.6 18.5
-20 4 -24 -1.3 8.5
24 -20 -4 5.1 12.6
4 -24 -20 -40.4 40.4
24 -20 -4 8.7 25.1
-4 -24 -22 69.89 11.6
-4 -24 -22 109.29 57.59
24 -22 4 65.89 16.3
24 -22 4 103.49 38.8
22 4 -24 20.9 22.8
-22 -4 -24 38.5 10.5
22 -4 -24 54.79 19.5
-22 4 -24 48.3 10.9
24 -22 -4 14.5 28.6
24 -22 -4 47.9 14.2
4 -24 -22 34.4 47
4 -24 -22 42.6 11.5
6 -24 0 124.49 18
-6 -24 0 157.98 17.8
0 6 -24 162.78 45.2
-24 0 -6 202.48 44
-24 0 6 125.29 41.2
-24 0 -6 143.09 18.1
24 2 -6 149.09 33.6
-24 -2 -6 55.29 10
-24 2 6 66.79 36.7
2 6 -24 37.4 37.9
6 -24 2 34.8 12.3
-6 -24 -2 51.09 10.8
-24 2 -6 54.49 14.4
-24 -2 6 46.8 37.7
-2 6 -24 19.4 39.3
6 -24 -2 46.9 11.6
-24 2 -6 64.39 39.8
24 4 -6 2.4 29
6 -24 4 -26.1 11.2
-24 4 6 16.5 34.8
4 6 -24 55.49 37.1
-24 -4 -6 7.2 7.8
-6 -24 -4 5.7 7.9
-24 -4 6 -46.2 34.8
-24 4 -6 -26.2 36.7
6 -24 -4 -3.4 9.3
-24 4 -6 4 11.7
-4 6 -24 24.9 39.8
-6 -24 -6 34.7 8.7
24 6 -6 77.39 32.8
-24 6 6 -21.2 39
24 -6 6 6.1 14
6 -24 6 17.6 11.9
6 6 -24 82.19 38.6
-24 -6 -6 11.6 8.2
-24 6 -6 -2.1 13
-24 6 -6 -35.1 39.1
-6 6 -24 -55.29 42
6 -24 -6 17.6 10.2
6 -24 8 18.5 13
-24 -8 -6 0.6 7.1
8 6 -24 -16.8 35.4
24 -8 6 4 14
-24 8 6 15.8 39.9
-6 -24 -8 -2.5 7
-8 6 -24 -60.69 46.8
6 -24 -8 -8.6 9.5
-24 8 -6 6.1 41.6
-6 -24 -10 -45.6 49.99
24 -10 6 5.8 14.7
24 -10 6 -42.3 47.5
10 6 -24 -35 90.29
-10 -6 -24 9.2 9.1
-24 -10 -6 33.3 8.8
-6 -24 -10 11.3 7.5
10 -6 -24 47.5 65.39
-10 6 -24 53.19 56.69
6 -24 -10 -8.7 9.8
24 -10 -6 35.6 27.7
6 -24 -10 41.1 37.8
-6 -24 -12 112.19 13.6
24 -12 6 117.99 19.6
12 6 -24 101.19 91.29
-6 -24 -12 125.39 51.99
-24 -12 -6 106.49 16.8
-12 -6 -24 95.09 14.5
24 -12 6 98.49 38.9
24 -12 -6 80.99 30.1
12 -6 -24 47.1 67.69
6 -24 -12 75.39 43.1
6 -24 -12 100.19 15.3
-6 -24 -14 84.69 12.8
24 -14 6 93.19 19.1
24 -14 6 106.79 37.2
-6 -24 -14 103.99 51.39
-14 -6 -24 87.39 13.3
14 6 -24 83.69 95.49
14 -6 -24 20.2 65.69
6 -24 -14 107.59 14.8
6 -24 -14 66.59 42.5
24 -14 -6 59.49 28.7
24 -16 6 31.8 39.9
-6 -24 -16 82.29 46.6
-6 -24 -16 11.5 8
-16 -6 -24 3.7 9.3
24 -16 6 7.8 14.3
6 -24 -16 42 40.1
16 -6 -24 -8 64.59
-16 6 -24 19.6 9.8
24 -16 -6 -30.9 23.2
6 -24 -16 10.3 11
24 -18 6 72.69 16.7
-6 -24 -18 65.29 11
-18 -6 -24 57.49 11.1
24 -18 6 93.39 40.4
-6 -24 -18 24.3 45.4
18 6 -24 61.19 27.2
6 -24 -18 34.6 36.2
24 -18 -6 22.5 14.3
18 -6 -24 56.99 20.6
-18 6 -24 48.3 10.8
24 -18 -6 46.8 23.5
6 -24 -18 72.29 12.8
-6 -24 -20 56.69 51.79
-20 -6 -24 6.6 8.9
24 -20 6 54.39 15.2
24 -20 6 95.99 40.6
-6 -24 -20 28.9 9.4
20 6 -24 24.5 24.9
24 -20 -6 92.19 26.3
-20 6 -24 42.2 9.6
20 -6 -24 34.9 17.3
24 -20 -6 21.2 13.4
6 -24 -20 -13.3 40.2
6 -24 -20 11.7 10.4
24 -22 6 16.2 14.1
24 -22 6 82.69 39.2
-22 -6 -24 14.5 8.7
22 6 -24 -5.4 22.7
-6 -24 -22 24.6 9.2
-6 -24 -22 -3.6 55.29
22 -6 -24 28.5 15.3
24 -22 -6 2 11.9
-22 6 -24 13.2 8.3
24 -22 -6 -6.4 24.7
0 8 -24 168.28 46.9
-24 0 -8 207.98 23
24 0 -8 205.58 41.4
8 -24 0 185.28 22.4
-24 0 8 242.68 49.1
24 2 -8 88.99 35.1
-24 -2 -8 119.69 15.1
-8 -24 -2 119.79 15.3
-24 2 8 140.69 43.1
8 -24 2 107.09 16.8
2 8 -24 125.89 43.4
24 -2 -8 148.19 35
8 -24 -2 109.09 16.4
-2 8 -24 143.09 46.8
-24 2 -8 127.09 17.3
-24 2 -8 109.49 43.9
-8 -24 -4 4.9 8
8 -24 4 8.9 11.5
-24 -4 -8 15 8.1
-24 4 8 14.3 36.1
4 8 -24 -35.5 36.8
24 4 -8 -13.1 31.3
-4 8 -24 40.3 42.1
-24 4 -8 11.3 40.6
-24 4 -8 27.7 12.8
8 -24 -4 -5.3 9.3
6 8 -24 -16.2 36.5
-24 -6 -8 8.6 7.9
8 -24 6 3.3 12.2
-24 6 8 3.5 37.7
-8 -24 -6 -4.9 7.1
24 -6 8 -5.8 13.3
24 6 -8 -32.5 33.8
-24 6 -8 9.7 12.4
-24 6 -8 -33.1 42.1
-6 8 -24 -54.69 43.3
8 -24 -6 8 9.7
24 8 -8 1.1 48
8 -24 8 -0.5 13
-8 -24 -8 2.4 6.7
-24 -8 -8 0.9 7.3
24 -8 8 1.4 14.1
24 -8 -8 10.8 22.3
8 -24 -8 -12.4 9.3
-8 8 -24 -39.5 54.39
-24 8 -8 3.3 64.09
8 -24 -8 -5.2 35
8 -8 -24 17.9 62.09
24 -10 8 50.69 41.5
-10 -8 -24 39.2 10.1
-8 -24 -10 48.5 54.29
-10 -8 -24 46.2 87.29
24 -10 8 77.99 16.6
8 -24 10 52.89 15.6
-8 -24 -10 42.5 9.1
10 8 -24 12 93.99
-24 -10 -8 52.59 9.9
24 -10 -8 70.89 26.1
10 -8 -24 6.7 63.89
8 -24 -10 19.9 35.8
8 -24 -10 37.3 12.1
-24 -12 -8 189.78 21
-8 -24 -12 146.49 57.29
24 -12 8 175.18 25.2
12 8 -24 200.58 100.69
-8 -24 -12 170.38 20.6
-12 -8 -24 206.18 21.8
24 -12 8 197.18 45.8
12 -8 -24 256.57 69.49
24 -12 -8 196.38 35.7
8 -24 -12 176.68 21.9
8 -24 -12 284.37 48.4
24 -14 8 160.98 24.8
-8 -24 -14 173.88 20
-24 -14 -8 188.28 19.6
-8 -24 -14 145.59 55.99
24 -14 8 167.28 48.9
-14 -8 -24 181.18 20.8
8 -24 -14 159.18 20.6
24 -14 -8 159.48 33.1
14 -8 -24 158.98 68.99
8 -24 -14 110.79 46
-16 -8 -24 22.4 9
-8 -24 -16 47.2 45.9
24 -16 8 -7.7 14.5
-8 -24 -16 11.8 8
16 8 -24 53.79 33.9
-24 -16 -8 25 8.9
24 -16 8 -11 41.9
24 -16 -8 -6.4 23.2
8 -24 -16 21.1 11
16 -8 -24 82.39 60.79
8 -24 -16 13.1 36.4
-18 -8 -24 20.9 8.7
24 -18 8 32.9 15.2
-8 -24 -18 9.7 7.6
18 8 -24 25.2 27.2
24 -18 8 4.9 39.2
-8 -24 -18 69.99 47.4
-24 -18 -8 -1.7 7.5
18 -8 -24 6.7 15.8
24 -18 -8 -9.7 20.3
-18 8 -24 14.4 8.7
8 -24 -18 18 10.1
24 -20 8 -24.1 42.1
24 -20 8 -2.3 13.8
20 8 -24 4.9 24
-20 -8 -24 12.9 8.3
-8 -24 -20 8.2 7.7
-8 -24 -20 46.1 54.79
24 -20 -8 10.7 22.2
-20 8 -24 10.4 8.4
8 -24 -20 -1.6 9
20 -8 -24 4.4 14.4
24 -22 8 74.19 40.1
22 8 -24 28.2 24.7
-8 -24 -22 55.99 9.9
-8 -24 -22 -17.1 56.19
-22 -8 -24 21.9 9.1
24 -22 8 43.4 14.9
-22 8 -24 32.6 8.9
24 -22 -8 23.5 22.7
22 -8 -24 18.6 13.1
24 -22 -8 50.49 12.9
0 10 -24 411.66 64.99
10 -24 0 370.66 38.1
24 0 -10 402.46 56.29
-24 0 -10 376.16 37
-24 -2 -10 256.37 26.6
-24 2 10 201.58 49.7
-10 -24 -2 261.27 27.3
10 -24 2 257.47 28.9
24 2 -10 267.97 51.19
2 10 -24 242.28 52.29
10 -24 -2 262.77 28.8
24 -2 -10 239.48 45.1
-2 10 -24 201.28 53.89
-24 2 -10 279.37 28.7
4 10 -24 59.29 47.6
24 4 -10 78.09 36.8
-24 -4 -10 71.69 11
10 -24 4 59.59 14.4
-10 -24 -4 46.9 10.3
-24 4 10 0.6 41
-4 -10 -24 39.6 93.89
-4 10 -24 115.79 48.1
4 -10 -24 25.5 65.09
10 -24 -4 65.19 13.2
-24 4 -10 49.3 13.9
10 -24 -4 9 36.8
24 -4 -10 46.5 43.4
24 -4 -10 64.19 22.4
-24 4 -10 140.29 47.3
-24 -6 -10 8.6 7.7
24 6 -10 47.3 37.1
10 -24 6 4.3 13.1
-10 -24 -6 16.4 7.3
10 -24 6 12.5 43.7
-6 -10 -24 -83.69 75.49
24 6 -10 -14.5 24.5
10 -24 -6 20.1 11.1
24 -6 -10 11.2 19
10 -24 -6 38.2 31.7
-24 6 -10 33.2 60.29
6 -10 -24 -33.6 59.99
-24 6 -10 34.3 13.7
10 -24 8 86.69 50.89
-10 -24 -8 46.8 9.7
24 8 -10 58.09 25.7
-10 -24 -8 44.3 59.09
24 -8 10 60.99 16.5
-8 -10 -24 59.49 11
-8 -10 -24 17.8 78.99
-24 -8 -10 56.19 10.3
10 -24 8 56.09 15.6
24 -8 -10 49.4 21.5
10 -24 -8 44.1 12.3
8 -10 -24 85.59 60.19
10 -24 -8 54.79 34.2
-24 8 -10 53.09 15.3
-24 -10 -10 170.08 19.8
-10 -10 -24 91.29 92.19
-10 -10 -24 205.48 21
-10 -24 -10 159.28 19.3
-10 -24 -10 235.48 62.79
10 -24 10 181.38 23.2
24 -10 10 151.28 23.6
24 -10 -10 178.28 31.4
10 -24 -10 144.19 42.4
10 -24 -10 137.89 19.9
10 -10 -24 255.47 67.79
-24 10 -10 188.08 23.5
-10 -24 -12 554.24 80.09
10 -24 12 401.36 44.1
-12 -10 -24 410.16 40.5
-24 -12 -10 429.06 40.1
24 -12 10 429.96 45.2
-10 -24 -12 433.06 39.9
12 10 -24 311.07 143.99
10 -24 -12 389.96 41.3
24 -12 -10 436.36 53.59
12 -10 -24 685.83 81.79
10 -24 -12 490.45 60.59
-14 -10 -24 320.87 34.2
-10 -24 -14 392.46 68.89
-24 -14 -10 345.07 34.4
24 -14 10 409.96 39.1
-10 -24 -14 396.96 34.3
24 -14 10 430.86 71.79
24 -14 -10 354.66 45.7
10 -24 -14 343.57 35.8
10 -24 -14 301.07 56.19
14 -10 -24 217.48 72.99
-10 -24 -16 157.48 53.79
16 10 -24 62.09 32.5
-10 -24 -16 99.39 13.2
-16 -10 -24 124.69 14.1
24 -16 10 99.59 19.4
-24 -16 -10 97.29 13.5
24 -16 10 99.79 48
10 -24 -16 87.39 15
24 -16 -10 83.89 25.4
18 10 -24 -15.5 25.8
-24 -18 -10 -3.1 7.2
-18 -10 -24 0 7.7
-10 -24 -18 -0.1 51.49
-10 -24 -18 -0.5 7
24 -18 10 -2.2 13.9
24 -18 10 20.4 43.3
10 -24 -18 12.8 10
-18 10 -24 2.7 8.6
24 -18 -10 -5.4 19.3
24 -20 10 82.19 42.9
-24 -20 -10 5.4 7.6
-10 -24 -20 -38.6 52.49
-20 -10 -24 3.4 7.6
-10 -24 -20 32.9 8.1
20 10 -24 -6.6 25.5
24 -20 10 6 13.7
-20 10 -24 10.4 8.2
24 -20 -10 -16 21.5
12 -24 0 580.04 73.79
12 -24 0 614.54 55.89
0 -12 -24 617.54 95.19
-24 0 -12 580.24 54.19
24 0 -12 589.94 61.99
-2 -12 -24 414.16 85.89
12 -24 2 450.75 60.79
12 -24 2 376.16 41
24 2 -12 427.36 49
-24 -2 -12 413.16 38.8
-24 2 -12 394.06 39.7
12 -24 -2 453.75 40.9
2 -12 -24 358.56 81.69
24 -2 -12 399.16 46.1
12 -24 -2 386.36 55.79
12 -24 4 177.98 22.7
24 4 -12 143.79 29.3
12 -24 4 152.48 46
-24 -4 -12 178.48 20.7
-12 -24 -4 176.48 19.7
-4 -12 -24 105.69 78.29
4 -12 -24 132.69 65.19
-24 4 -12 180.88 22.1
12 -24 -4 202.98 41.5
12 -24 -4 194.68 22
24 -4 -12 178.18 27.4
-6 -12 -24 64.99 75.39
-6 -12 -24 113.59 15.2
-12 -24 -6 109.09 13.8
12 -24 6 79.29 45.3
12 -24 6 103.29 18
-24 -6 -12 105.39 14.4
24 6 -12 71.29 25.1
12 -24 -6 133.69 36.3
12 -24 -6 106.29 16.9
-24 6 -12 111.59 18.3
24 -6 -12 163.88 24.8
6 -12 -24 81.79 60.99
-8 -12 -24 186.38 21.3
-12 -24 -8 159.48 19.9
24 8 -12 144.09 31.8
-8 -12 -24 176.78 83.49
12 -24 8 218.28 24.3
-24 -8 -12 165.58 20.5
12 -24 8 133.99 51.89
-24 8 -12 203.28 23.9
12 -24 -8 177.08 22.1
12 -24 -8 237.78 38.8
24 -8 -12 190.98 28.7
8 -12 -24 252.17 63.59
12 -24 10 373.36 73.39
24 -10 12 363.96 44.2
-12 -24 -10 461.25 40.2
12 -24 10 447.46 44.3
-10 -12 -24 316.97 99.99
-10 -12 -24 435.16 40.9
-24 -10 -12 405.16 40.3
12 -24 -10 418.56 42.4
12 -24 -10 533.95 59.29
-24 10 -12 420.36 44.3
10 -12 -24 654.43 78.19
24 -10 -12 437.96 49.7
12 -24 12 844.92 69.49
-12 -24 -12 1015 106.59
-12 -12 -24 672.83 66.09
24 -12 12 687.93 68.69
-12 -12 -24 584.14 122.79
-24 -12 -12 680.93 65.79
-12 -24 -12 799.02 65.69
24 -12 -12 716.53 75.79
12 -24 -12 790.62 83.29
-24 12 -12 788.52 68.79
12 -12 -24 625.04 94.09
12 -24 -12 705.13 67.29
-24 -14 -12 491.75 44.5
-14 -12 -24 454.95 44.9
-12 -24 -14 578.04 83.09
12 -24 14 415.36 48.4
24 -14 12 542.75 48.7
-12 -24 -14 493.75 44.4
24 -14 -12 504.85 54.39
12 -24 -14 473.75 46.1
-16 -12 -24 171.28 19.8
-12 -24 -16 147.29 18.6
-24 -16 -12 174.38 19.1
16 12 -24 183.68 42.7
24 -16 12 181.58 23.1
-12 -24 -16 209.98 59.39
24 -16 -12 125.99 25.8
12 -24 -16 163.48 20.4
-12 -24 -18 18.5 55.09
-24 -18 -12 58.79 9.8
18 12 -24 8.8 28.8
-18 -12 -24 51.29 10
-12 -24 -18 28.3 8.9
24 -18 12 19.8 14.5
-20 -12 -24 36.1 9.2
-24 -20 -12 40.8 8.8
-12 -24 -20 80.89 57.59
20 12 -24 15 28.2
24 -20 12 95.19 45.2
24 -20 12 38.2 14.4
-12 -24 -20 37.6 8.6
-20 12 -24 31.1 9.4
14 -24 0 343.67 36.4
14 -24 0 400.56 52.89
-24 0 -14 331.67 34
0 -14 -24 242.78 73.79
24 0 -14 367.96 42.2
14 -24 2 263.27 31.2
-2 -14 -24 363.26 78.99
24 2 -14 210.68 35.6
14 -24 2 331.07 49.99
-24 -2 -14 269.97 27.9
-24 2 -14 262.07 28.7
2 -14 -24 333.57 72.79
14 -24 -2 268.67 44.6
24 -2 -14 306.77 37.2
14 -24 -2 280.57 31
24 4 -14 122.49 26.9
-4 -14 -24 86.89 72.19
-14 -24 -4 166.58 16.9
14 -24 4 118.49 42.4
14 -24 4 128.89 19.4
-24 -4 -14 118.89 15.8
-24 4 -14 111.89 17.2
4 -14 -24 249.08 64.79
14 -24 -4 114.99 18.7
14 -24 -4 137.69 35
24 -4 -14 113.79 23.5
14 -24 6 68.89 16.4
24 6 -14 68.49 24.9
-14 -24 -6 76.29 10.9
14 -24 6 39.1 41.7
-6 -14 -24 6.7 74.59
-6 -14 -24 49.8 11.5
-24 -6 -14 64.69 11.5
14 -24 -6 53.29 14.6
-24 6 -14 76.19 15.1
14 -24 -6 58.69 32
24 -6 -14 72.69 20.4
6 -14 -24 101.19 58.09
14 -24 8 183.18 49.2
-24 -8 -14 159.18 18.5
24 8 -14 143.79 31.1
-8 -14 -24 184.28 20.4
-8 -14 -24 254.77 83.79
-14 -24 -8 147.49 18.5
14 -24 8 180.38 22.9
24 -8 -14 145.19 26.5
14 -24 -8 175.28 35.8
8 -14 -24 162.18 58.39
-24 8 -14 140.99 21.7
14 -24 -8 161.38 21
14 -24 10 384.76 39.3
-10 -14 -24 394.76 99.09
-10 -14 -24 333.37 36.5
-14 -24 -10 427.66 35.5
-24 -10 -14 343.17 35.3
14 -24 10 426.46 69.09
24 10 -14 434.46 51.49
14 -24 -10 364.36 37.9
-24 10 -14 362.66 39.3
24 -10 -14 368.86 44.1
10 -14 -24 297.07 66.49
14 -24 -10 365.16 49.99
-12 -14 -24 470.25 43.8
-14 -24 -12 516.45 43
14 -24 12 425.26 46.9
-24 -12 -14 433.06 42.9
-12 -14 -24 505.85 107.69
24 -12 14 477.45 47.3
14 -24 -12 453.85 44.9
24 -12 -14 442.26 52.39
-24 12 -14 479.65 46.4
24 -14 14 404.96 36.9
-14 -14 -24 365.76 32.7
14 -24 14 294.87 36.7
-14 -24 -14 296.77 31.5
-24 -14 -14 309.87 31.8
-24 14 -14 355.76 35.6
24 -14 -14 335.97 41.1
14 -24 -14 327.27 34
14 -24 16 88.69 18.9
-24 -16 -14 110.19 13.8
-16 -14 -24 124.09 14.6
-14 -24 -16 59.19 62.59
-14 -24 -16 91.99 13.3
24 -16 14 120.09 19
14 -24 -16 130.09 18.1
-24 16 -14 104.89 17.9
24 -18 14 29.5 13.7
-14 -24 -18 19.6 7.5
-14 -24 -18 3.6 56.59
-18 -14 -24 23.4 8.8
-24 -18 -14 25.4 8.1
-24 18 -14 30.2 12.9
16 -24 0 157.08 37.9
-24 0 -16 111.59 15.7
16 -24 0 112.79 19.3
24 0 -16 115.39 24.8
0 -16 -24 301.57 70.19
16 -24 2 101.09 38.6
-2 -16 -24 70.79 68.29
16 -24 2 80.09 17.4
24 2 -16 107.09 25.1
-24 -2 -16 76.99 13.2
2 -16 -24 166.68 63.39
-24 2 -16 100.89 14.6
24 -2 -16 89.29 22.3
16 -24 -2 86.79 17.3
16 -24 -2 103.99 34.5
16 -24 4 27.1 38.4
24 4 -16 42.9 22.3
-4 -16 -24 -13.4 66.19
16 -24 4 5.2 13.8
-4 -16 -24 12.3 8.1
-24 -4 -16 -4.2 8.5
4 -16 -24 90.89 58.39
24 -4 -16 11.6 18.2
16 -24 -4 -6.8 29
16 -24 -4 12.9 14
-24 4 -16 6.9 10.4
-16 -24 -6 -10.8 7.1
24 6 -16 11.6 23
-6 -16 -24 -2.9 8.9
-6 -16 -24 87.29 75.59
16 -24 6 -11 40.8
-24 -6 -16 -11.1 7.7
16 -24 6 7.9 13.6
24 -6 -16 -9.5 16.3
-24 6 -16 -9.4 10.3
16 -24 -6 1.6 28.1
6 -16 -24 -75.99 51.69
16 -24 -6 -14.4 12.1
16 -24 8 -12.5 44
16 -24 8 8.8 14.3
-8 -16 -24 70.19 73.69
-8 -16 -24 14.5 9.7
-24 -8 -16 22.5 8.6
-16 -24 -8 11.4 7.7
24 8 -16 17.1 23.5
8 -16 -24 24 48.6
16 -24 -8 12.7 26.9
24 -8 -16 25.1 17.5
16 -24 -8 15.1 12.6
-24 8 -16 1.2 11.2
-10 -16 -24 127.89 15.3
-10 -16 -24 142.29 78.09
-16 -24 -10 90.19 12.9
16 -24 10 52.79 45.5
16 -24 10 80.99 18.6
24 10 -16 103.99 28.3
-24 -10 -16 125.79 14.4
16 -24 -10 139.49 18
24 -10 -16 90.59 22.2
16 -24 -10 119.29 30.8
-24 10 -16 89.29 17.1
-12 -16 -24 93.19 79.09
16 -24 12 146.39 22.8
-12 -16 -24 188.78 20.8
-16 -24 -12 154.18 18.7
-24 -12 -16 183.48 19.3
24 -12 -16 153.48 27.6
16 -24 -12 161.88 20.8
-24 12 -16 177.18 21.9
16 -24 14 79.59 18.4
-14 -16 -24 112.19 14.6
-16 -24 -14 111.79 13.4
-14 -16 -24 53.79 78.19
-24 -14 -16 112.69 13.7
16 -24 -14 99.99 16.8
-24 14 -16 102.19 17.2
16 -24 16 -1.6 13.4
-16 -16 -24 27.2 9.1
-16 -24 -16 22.3 7.3
-24 -16 -16 19.7 7.9
-24 16 -16 35.8 12.9
18 -24 0 31.6 14
0 -18 -24 72.09 60.79
-24 0 -18 34.1 10
18 -24 0 16.4 32.5
24 0 -18 60.99 20.5
24 2 -18 22.6 20.7
18 -24 2 1.3 13
-24 -2 -18 11.5 8.9
-2 -18 -24 -30.4 58.29
-2 -18 -24 -3.2 8.6
18 -24 2 -16.9 33.4
2 -18 -24 60.89 55.69
-24 2 -18 0.3 8.8
24 -2 -18 3.6 17.4
18 -24 -2 61.39 30
18 -24 -2 21.4 12.9
-24 -4 -18 22.6 9.2
18 -24 4 3.6 13.4
-4 -18 -24 -27.2 60.79
-4 -18 -24 9.5 8.3
24 4 -18 23.2 20.8
18 -24 4 -29.4 35.1
18 -24 -4 23.4 27.2
18 -24 -4 16.9 13
4 -18 -24 25.5 52.99
24 -4 -18 9.1 16.7
-24 4 -18 4.9 9.4
-24 -6 -18 46.1 10.1
18 -24 6 79.09 39.6
-6 -18 -24 31.8 9.6
24 6 -18 37.2 23.5
18 -24 6 59.59 15.4
-6 -18 -24 51.69 66.89
-18 -24 -6 57.99 10.5
24 -6 -18 44.2 17.5
18 -24 -6 44.1 13.8
-24 6 -18 31.4 11
18 -24 -6 48.2 27
6 -18 -24 55.79 50.09
18 -24 8 25.9 13.9
-8 -18 -24 50.89 66.79
-8 -18 -24 21.8 9.4
24 8 -18 8.1 21.6
-24 -8 -18 12.6 8.2
18 -24 8 -33.1 38.1
-18 -24 -8 12.3 7.1
24 -8 -18 5.8 17
8 -18 -24 11.1 41.5
18 -24 -8 1.3 12.2
18 -24 -8 6.7 25.1
-24 8 -18 0.5 9.8
-10 -18 -24 -15.2 67.19
-10 -18 -24 -7.4 8.4
18 -24 10 -14.2 39.3
18 -24 10 2.3 13.6
24 10 -18 -25.4 20.6
-18 -24 -10 -0.2 6.7
-24 -10 -18 12.7 8.2
-24 10 -18 0.5 9.8
24 -10 -18 9.2 16.1
18 -24 -10 9.5 12
-12 -18 -24 36.2 10.1
18 -24 12 27.3 44.8
18 -24 12 45.3 15.1
-24 -12 -18 51.59 9.9
-18 -24 -12 33 8.6
-12 -18 -24 -46.7 67.89
-24 12 -18 39.8 11.9
18 -24 -12 43.3 13
-18 -24 -14 31.5 7.8
-14 -18 -24 15.4 69.39
-24 -14 -18 25.6 8.4
18 -24 14 2.9 13.1
-14 -18 -24 34.2 9.4
-24 14 -18 28.4 11.8
20 -24 0 26.6 13.4
20 -24 0 43.6 31.9
24 0 -20 18.6 19
0 -20 -24 11.2 57.49
0 -20 -24 28.5 10.4
-24 0 -20 49.9 10.3
-24 -2 -20 16.4 9.2
24 2 -20 24.5 19.9
20 -24 2 -23.4 32.2
20 -24 2 19.3 13.5
-2 -20 -24 -53.69 59.69
-2 -20 -24 -1.1 9
-24 2 -20 5.3 8.6
20 -24 -2 14.3 12.7
24 -2 -20 10.6 16.8
2 -20 -24 18.9 54.09
20 -24 -2 -1.7 28.5
-4 -20 -24 -23.4 57.99
-24 -4 -20 -0.1 8.8
-4 -20 -24 0.8 8.4
20 -24 4 -6.3 12.9
20 -24 4 2.5 34.4
24 4 -20 21.6 20.6
24 -4 -20 2.9 16.4
-24 4 -20 7.7 8.5
20 -24 -4 21 25.9
4 -20 -24 49.9 50.39
20 -24 -4 11.3 12.2
20 -24 6 36.2 14.6
24 6 -20 25.4 22.1
-24 -6 -20 18.3 8.8
20 -24 6 34.5 37.7
-6 -20 -24 77.09 61.59
-6 -20 -24 16.6 8.6
20 -24 -6 2.6 12.2
-24 6 -20 24.7 9.7
20 -24 -6 24.3 24.7
24 -6 -20 19.6 15.7
6 -20 -24 0.5 44.4
-24 -8 -20 13.6 8.6
-8 -20 -24 6.7 62.69
-8 -20 -24 4.6 8
20 -24 8 35.8 37.7
24 8 -20 -3.9 21.7
-20 -24 -8 27.8 7.7
20 -24 8 -2.6 13.9
24 -8 -20 -10.2 15.5
-24 8 -20 11.3 8.9
20 -24 -8 3.9 23.9
20 -24 -8 13.8 11.8
-20 -24 -10 15.8 7.2
-10 -20 -24 37 63.89
-24 -10 -20 3.8 7.7
24 10 -20 44.5 23
20 -24 10 30.9 41.1
20 -24 10 2.7 13.4
-10 -20 -24 7.1 7.5
20 -24 -10 10.1 11.7
24 -10 -20 -7.5 14.3
-24 10 -20 14.2 9.1
-12 -20 -24 86.89 67.39
-12 -20 -24 38.8 8.9
-20 -24 -12 30.6 7.9
20 -24 12 27 41.7
20 -24 12 44.5 14.1
24 12 -20 44.8 24.1
-24 -12 -20 46 9
-24 12 -20 28.8 10
20 -24 -12 50.59 17.2
22 -24 0 309.47 31
24 0 -22 220.58 35.8
0 -22 -24 487.95 77.69
-24 0 -22 246.38 27.6
22 -24 0 211.58 46.2
0 -22 -24 305.67 28.8
24 2 -22 190.08 29.8
22 -24 2 192.58 23.2
-24 -2 -22 175.88 20.7
22 -24 2 170.78 43
-2 -22 -24 200.98 70.09
-2 -22 -24 166.58 20.1
-24 2 -22 173.28 20.2
22 -24 -2 144.49 38.3
24 -2 -22 131.19 26.5
2 -22 -24 301.87 66.29
22 -24 -2 178.28 22
22 -24 4 19.6 36.1
-4 -22 -24 55.19 11.7
-24 -4 -22 51.39 11
22 -24 4 70.19 15.8
-4 -22 -24 14.4 58.19
24 4 -22 100.49 24.2
22 -24 -4 47.1 13.9
-24 4 -22 44.1 10.6
4 -22 -24 62.19 50.59
22 -24 -4 57.29 27.3
24 -4 -22 47.5 17.7
-6 -22 -24 -1.1 59.49
24 6 -22 41.3 22.5
-24 -6 -22 18 8.9
22 -24 6 -1.5 13.6
-6 -22 -24 24.9 9.4
22 -24 6 -14 35.7
24 -6 -22 13 15
22 -24 -6 25.6 12.1
6 -22 -24 33.5 40.6
22 -24 -6 -16 23.3
-24 6 -22 18.5 8.7
24 8 -22 74.79 25.1
-8 -22 -24 24.4 8.4
-8 -22 -24 17.5 59.69
22 -24 8 6.8 35.9
22 -24 8 35.1 14.4
-24 -8 -22 28.9 9
24 -8 -22 7.7 14.9
-24 8 -22 20.7 8.7
22 -24 -8 21.2 12
22 -24 -8 25.8 23.4
-25 -1 -1 1059.59 114.99
1 1 -25 1038.2 114.09
1 -25 1 1033.2 93.89
-25 1 1 1121.39 114.59
-1 -25 -1 1054.69 93.59
-1 -25 1 1046.5 93.59
-1 1 -25 1026.3 115.59
1 -25 -1 1028.2 93.49
-25 1 -1 1149.29 115.49
-25 -1 1 1165.18 115.89
1 -25 3 537.95 50.19
-1 -25 -3 532.25 49.2
3 1 -25 557.04 69.29
-25 3 1 557.14 72.59
3 -1 -25 499.15 74.29
1 -25 -3 538.85 49.4
-1 -25 3 517.45 50.09
-25 3 -1 589.94 72.99
-25 -3 1 499.45 71.49
-1 -25 -5 201.78 22.8
-25 5 1 246.78 53.19
5 1 -25 208.48 46.5
25 -5 1 193.18 30.7
1 -25 5 218.18 24.4
5 -1 -25 209.58 46.5
-25 5 -1 216.78 50.69
1 -25 -5 188.08 22.8
-25 5 -1 198.88 24.1
-25 7 1 143.69 46
-1 -25 -7 157.68 17.6
25 -7 1 164.88 21.3
7 1 -25 106.09 40.7
7 -1 -25 139.09 40.4
-25 7 -1 138.39 47.5
1 -25 -7 129.39 17.2
-1 -25 -9 157.58 18.6
9 1 -25 196.68 48.7
25 -9 1 116.19 21.9
25 -9 1 187.28 42.3
-1 -25 -9 154.48 55.29
9 1 -25 108.09 89.39
9 -1 -25 260.77 84.09
25 -9 -1 179.08 26.4
9 -1 -25 135.19 41.7
25 -9 -1 222.38 41.3
1 -25 -9 154.78 18.5
1 -25 -9 219.68 55.59
-1 -25 -11 456.65 42.1
25 -11 1 472.45 61.69
11 1 -25 425.66 104.29
25 -11 1 396.56 44.5
-1 -25 -11 389.86 71.69
1 -25 -11 437.96 42.2
25 -11 -1 453.75 45
1 -25 -11 477.55 69.39
25 -11 -1 538.95 62.69
11 -1 -25 347.67 97.29
-1 -25 -13 576.14 75.39
25 -13 1 436.26 62.99
-1 -25 -13 503.35 47
13 1 -25 450.55 106.09
25 -13 1 503.95 49.3
13 -1 -25 484.35 102.59
25 -13 -1 527.45 65.79
1 -25 -13 518.35 47.1
1 -25 -13 470.75 73.99
25 -13 -1 478.85 49.4
-15 -1 -25 211.28 25.8
-1 -25 -15 176.58 57.09
15 1 -25 228.18 94.39
25 -15 1 253.87 28.6
-1 -25 -15 271.97 27
25 -15 1 225.48 44.5
1 -25 -15 252.47 26.8
25 -15 -1 231.18 28.2
-15 1 -25 240.58 26
1 -25 -15 205.18 56.09
15 -1 -25 243.18 87.49
25 -15 -1 295.97 43.2
25 -17 1 66.29 16.3
-1 -25 -17 -69.29 39.5
-17 -1 -25 74.49 12.4
25 -17 1 48.2 30.1
-1 -25 -17 44.3 11.8
25 -17 -1 81.29 28.4
25 -17 -1 57.49 16.3
1 -25 -17 75.09 12.8
1 -25 -17 24.9 40.7
-17 1 -25 64.69 12.2
25 -19 1 21.7 14.8
25 -19 1 26.1 29.9
19 1 -25 17.3 21.4
-19 -1 -25 7.2 8.9
-1 -25 -19 -4.6 41.6
-1 -25 -19 26.1 9.9
25 -19 -1 13.7 28.2
-19 1 -25 24.5 9.6
25 -19 -1 -2.8 13.6
1 -25 -19 44.8 42.2
1 -25 -19 35.7 10.3
19 -1 -25 13.7 20.7
-21 -1 -25 128.69 16
25 -21 1 148.39 38.2
-1 -25 -21 192.08 60.29
25 -21 1 114.99 19.9
21 1 -25 118.09 26.6
-1 -25 -21 118.59 16.5
25 -21 -1 128.99 19.7
25 -21 -1 171.98 36.7
1 -25 -21 113.19 16.5
1 -25 -21 121.69 54.19
21 -1 -25 151.08 26.4
-21 1 -25 134.39 16.3
-25 1 3 614.94 74.19
1 3 -25 494.65 73.99
-3 -25 -1 537.35 51.09
-25 -1 -3 532.25 71.69
3 -25 1 578.44 51.99
-25 -1 3 567.24 72.29
-1 3 -25 679.23 80.09
3 -25 -1 514.05 51.69
-25 1 -3 775.22 79.99
-25 1 -3 557.44 51.69
-3 -25 1 523.65 51.19
-3 -25 -3 255.77 26.4
3 -25 3 249.97 28.6
-25 3 3 205.38 51.39
3 3 -25 224.88 50.69
-3 3 -25 314.07 55.29
-25 3 -3 262.87 53.29
3 -25 -3 244.98 27.2
-25 -3 3 200.58 47.3
-25 3 -3 262.07 28.7
5 3 -25 104.59 39.3
25 -5 3 56.49 15.2
-25 5 3 103.09 39.8
-3 -25 -5 53.19 11.2
3 -25 5 53.79 14.2
-25 5 -3 20.6 41.7
-5 3 -25 36.9 46.8
-25 5 -3 49.2 14.1
3 -25 -5 64.29 12
25 -7 3 11.9 14.4
3 -25 7 21 15.9
7 3 -25 51.49 38
-25 7 3 36.4 41.7
-3 -25 -7 22.8 9.4
3 -25 -7 22.2 63.89
7 -3 -25 52.49 114.69
-25 7 -3 2.9 40.8
3 -25 -7 64.89 11.1
-3 -25 -9 42.4 10.5
9 3 -25 66.59 89.79
-3 -25 -9 49.1 56.09
25 -9 3 68.49 37
25 -9 3 32.9 16.2
25 -9 -3 45.3 31.8
3 -25 -9 56.19 11.5
9 -3 -25 97.99 55.39
3 -25 -9 31.2 44.7
9 -3 -25 -92.29 69.59
-3 -25 -11 257.47 63.69
25 -11 3 242.98 29.9
25 -11 3 310.17 50.79
11 3 -25 333.97 101.69
-3 -25 -11 235.78 27.4
3 -25 -11 235.88 56.09
11 -3 -25 187.28 81.09
3 -25 -11 279.47 28.1
25 -11 -3 370.06 45.7
25 -13 3 340.87 49.6
-3 -25 -13 272.07 60.59
-13 -3 -25 302.17 28.2
25 -13 3 264.77 32.2
-3 -25 -13 236.08 27.6
13 3 -25 234.08 97.19
25 -13 -3 252.77 30.1
3 -25 -13 333.07 55.89
13 -3 -25 86.89 81.69
3 -25 -13 257.87 28.6
25 -13 -3 284.47 44.8
25 -15 3 97.29 18.4
-3 -25 -15 49.4 51.29
-3 -25 -15 124.19 15.1
25 -15 3 91.39 37.3
15 3 -25 25.1 90.09
-15 -3 -25 114.79 14.9
25 -15 -3 103.89 33.8
3 -25 -15 112.39 46.8
25 -15 -3 77.19 17.9
3 -25 -15 85.09 14.8
15 -3 -25 126.89 79.09
-17 -3 -25 20.2 9.3
-3 -25 -17 18.7 9.7
25 -17 3 -7.4 31.9
-3 -25 -17 70.89 41.8
25 -17 3 -5.5 14.3
25 -17 -3 2.8 23.6
3 -25 -17 9.1 10
3 -25 -17 -17.6 39.1
-17 3 -25 11.2 9.4
25 -17 -3 -4.5 13.7
-3 -25 -19 15.6 9.4
19 3 -25 -7.8 21.7
25 -19 3 3.8 14
-3 -25 -19 5.8 43.1
-19 -3 -25 -10.9 8
25 -19 3 -13.5 29.7
19 -3 -25 -5.8 18.3
3 -25 -19 -2.2 9.3
25 -19 -3 -5.7 25.1
25 -19 -3 -9.2 13
-19 3 -25 -8.1 8.4
3 -25 -19 21.1 39.3
-3 -25 -21 43.4 55.09
-21 -3 -25 32.1 10.5
25 -21 3 34.1 37.3
21 3 -25 36.3 22.8
-3 -25 -21 79.09 12
25 -21 3 23.3 15.3
25 -21 -3 85.69 30.5
25 -21 -3 65.09 15.2
3 -25 -21 100.09 50.39
-21 3 -25 49.1 10.7
21 -3 -25 70.59 20.2
3 -25 -21 52.79 11.8
-25 1 5 224.28 48
-25 -1 -5 198.78 22.4
1 5 -25 188.78 48.9
5 -25 1 208.68 22.8
-5 -25 -1 174.88 22.5
-1 5 -25 193.58 49.8
-25 1 -5 221.58 24.2
-5 -25 1 186.68 23.4
5 -25 -1 202.68 23.5
-25 -1 5 191.78 45
-25 3 5 101.99 40.6
-25 -3 -5 61.29 10.8
5 -25 3 62.19 14.1
3 5 -25 55.59 39.8
-5 -25 -3 59.89 11.6
-25 -3 5 98.49 40.1
5 -25 -3 42.8 12.2
-25 3 -5 53.29 13.9
-25 3 -5 149.99 43.6
-3 5 -25 26.2 43.2
25 -5 5 -1 13.3
5 5 -25 -9.5 37.2
5 -25 5 -19.7 11.1
-25 5 5 -25.1 36.4
-5 -25 -5 -4 8.2
-25 -5 -5 12.6 8.2
-25 -5 5 -27 38.7
5 -25 -5 5.2 9.9
-5 5 -25 -5.7 43.9
-25 5 -5 84.19 42.9
-25 5 -5 6.1 12.4
-5 -25 -7 6.3 8
-25 -7 -5 -3.8 12.8
7 5 -25 19.2 48.5
25 -7 5 -26.8 13.2
5 -25 7 -19.8 11.8
-5 -25 -7 -94.39 67.49
-25 7 -5 -32.7 43.8
-7 5 -25 -13.7 47.2
7 -5 -25 -56.99 68.79
25 -7 -5 -30.6 26.4
5 -25 -7 -35.4 40.1
5 -25 -7 -11.6 9.5
-25 7 -5 2.9 13
25 -9 5 -15.8 13.9
25 -9 5 -0.8 36.8
9 5 -25 7.1 88.99
-5 -25 -9 -6.2 8.1
-5 -25 -9 -13.1 53.79
9 -5 -25 -66.29 68.99
5 -25 -9 -18.2 39.4
5 -25 -9 27 10.9
25 -9 -5 -7.2 27.3
11 5 -25 8.5 91.69
-11 -5 -25 86.99 19.9
-5 -25 -11 96.79 13.8
25 -11 5 88.79 40.7
25 -11 5 80.59 18.9
-5 -25 -11 97.49 55.89
5 -25 -11 122.99 15.8
5 -25 -11 113.39 45.5
11 -5 -25 53.39 70.79
25 -11 -5 129.19 33.3
25 -13 5 135.19 40.3
-13 -5 -25 134.19 17.1
-5 -25 -13 127.89 17
13 5 -25 113.79 96.29
-5 -25 -13 208.58 55.69
25 -13 5 124.09 21.6
5 -25 -13 113.29 46.9
5 -25 -13 155.18 18.5
13 -5 -25 148.99 71.59
25 -13 -5 160.78 34.6
-5 -25 -15 45.8 47.2
25 -15 5 30.6 15.5
-5 -25 -15 37.8 10
25 -15 5 -2.5 40.6
-15 -5 -25 24.4 11
15 5 -25 59.99 89.79
25 -15 -5 1.8 26.5
5 -25 -15 28.9 41.1
15 -5 -25 48.2 68.49
5 -25 -15 43.3 11.7
-17 -5 -25 14.8 9
-5 -25 -17 -9.3 40.3
-5 -25 -17 21.4 9
25 -17 5 11.2 35.1
17 5 -25 17.9 28.3
25 -17 5 6 13.9
5 -25 -17 -51.69 36.7
-17 5 -25 16.7 9.7
5 -25 -17 7.8 10.3
25 -17 -5 19.8 22.2
25 -17 -5 -9.6 13.3
25 -19 5 30.8 14.6
-5 -25 -19 49.99 45.1
-19 -5 -25 27.2 9.6
25 -19 5 25.7 35.2
19 5 -25 3 24.6
-5 -25 -19 35.2 10.2
19 -5 -25 30.2 18.4
5 -25 -19 70.09 39.1
5 -25 -19 39.2 11.1
-19 5 -25 39.8 10
25 -19 -5 33.9 24
25 -19 -5 -6.9 13.4
21 5 -25 -1.3 21.7
-5 -25 -21 19.5 9.2
-21 -5 -25 -6.2 8.1
25 -21 5 40.4 14.4
25 -21 5 -21.4 38.2
-5 -25 -21 -9 52.69
5 -25 -21 0.3 42.7
25 -21 -5 -7.1 25.7
5 -25 -21 8.7 9.9
21 -5 -25 4.1 16.1
-21 5 -25 2 8.4
25 -21 -5 18 13
-25 1 7 196.28 45.3
-7 -25 -1 168.58 18.4
1 7 -25 125.19 46.4
7 -25 1 126.79 19.1
-25 -1 -7 163.08 19.1
-25 1 -7 169.78 19.3
-1 7 -25 178.08 47.1
-25 -1 7 106.39 43.7
-25 1 -7 53.99 69.09
7 -25 -1 140.69 19.1
-25 3 7 58.19 39.9
7 -25 3 18.5 12.3
25 3 -7 49.99 33.7
3 7 -25 32.1 40.4
-7 -25 -3 39.6 9.9
-25 -3 -7 38.7 9.5
3 -7 -25 -33.7 101.59
-25 3 -7 23.2 41
-25 3 -7 38.2 13
7 -25 -3 41.9 59.99
-3 7 -25 -36.6 43.3
-25 -3 7 0.2 40.8
7 -25 -3 35 11.2
-7 -25 -5 -10.2 7.6
-5 -7 -25 102.09 118.69
-25 -5 -7 -6.1 7.6
7 -25 5 -25.8 11.3
25 5 -7 7.5 31.6
5 7 -25 -39.5 44.5
5 -7 -25 4 68.39
-25 -5 7 -55.69 39.4
-25 5 -7 2 42.7
7 -25 -5 -22.6 37.8
7 -25 -5 0.8 9.5
-5 7 -25 15.9 44.9
25 -5 -7 -14.3 22.1
-25 5 -7 1.2 12.3
-25 -7 -7 -5.2 7.4
7 7 -25 -44.8 93.49
-7 -7 -25 66.99 80.79
-7 -25 -7 1.2 8.1
25 -7 7 27.4 14.8
-7 -25 -7 -52.29 56.29
7 -25 7 -12.7 12.4
7 -25 7 62.19 45.9
25 -7 -7 -29.9 22.5
7 -25 -7 -20 39.5
7 -25 -7 -4.4 9.8
-25 7 -7 -11.3 12.2
7 -7 -25 -27.9 66.09
9 7 -25 48.9 94.29
-7 -25 -9 5.7 52.89
-9 -7 -25 28.6 85.49
7 -25 9 -2.8 13.3
25 -9 7 -107.99 35.5
25 -9 7 -11.3 14.1
-7 -25 -9 4.3 8.1
-25 -9 -7 3.7 7.8
9 -7 -25 15.4 65.39
25 -9 -7 -24 23.8
7 -25 -9 -3.5 10.3
7 -25 -9 -21.5 36.3
11 7 -25 -5.8 94.99
-25 -11 -7 72.69 11.7
-7 -25 -11 111.09 54.99
-11 -7 -25 67.39 12
25 -11 7 11 39.7
25 -11 7 92.89 17.7
-7 -25 -11 60.39 11.4
7 -25 -11 75.69 13.7
7 -25 -11 96.69 43
11 -7 -25 12.5 64.89
25 -11 -7 65.79 30.2
-7 -25 -13 103.29 55.19
-13 -7 -25 128.19 17.3
25 -13 7 181.38 23.4
25 -13 7 188.78 43.5
-25 -13 -7 165.18 18.1
13 7 -25 17.8 93.29
-7 -25 -13 123.09 17
7 -25 -13 155.98 19.2
25 -13 -7 139.49 33.6
7 -25 -13 159.48 47.8
13 -7 -25 81.09 70.39
-7 -25 -15 15 44.3
-15 -7 -25 45.3 10.5
25 -15 7 40.2 41.3
25 -15 7 62.29 16.5
-7 -25 -15 38.1 9.8
7 -25 -15 36.4 11.6
15 -7 -25 -65.89 60.19
25 -15 -7 28.8 25
7 -25 -15 46.7 39.7
-7 -25 -17 -32.3 41.2
-17 -7 -25 9 8.6
-7 -25 -17 4.6 8
17 7 -25 13.2 27.1
25 -17 7 -34 36.4
25 -17 7 10.4 14.5
-17 7 -25 -5.5 10.9
7 -25 -17 4.9 10
7 -25 -17 -79.79 33.4
25 -17 -7 8.6 21.1
-19 -7 -25 26.6 9.2
25 -19 7 28.9 14.6
-7 -25 -19 31.5 49.8
19 7 -25 14.5 24.8
25 -19 7 3.9 37.8
-7 -25 -19 53.39 10.3
25 -19 -7 26.6 23.2
7 -25 -19 31.7 37.6
19 -7 -25 38.5 17.2
-19 7 -25 35.6 9.6
7 -25 -19 41 11.5
-7 -25 -21 10.8 8.6
25 -21 7 31.5 39.1
-7 -25 -21 21.9 54.09
21 7 -25 23.9 23.5
25 -21 7 19 14
-21 -7 -25 8.1 8
21 -7 -25 11.5 14.1
25 -21 -7 -16.8 24
-21 7 -25 3 8.1
25 -21 -7 9.9 12.3
7 -25 -21 -2 8.7
25 1 -9 153.48 31.6
9 -25 1 161.28 20.8
-25 -1 -9 192.48 20.4
9 -25 1 125.79 47.5
-1 -9 -25 107.19 77.49
9 -25 -1 143.49 46.2
25 -1 -9 151.98 31.2
9 -25 -1 222.58 23.1
-25 1 -9 157.48 19.9
1 -9 -25 28.5 72.39
-3 -9 -25 2.5 77.39
9 -25 3 40.7 45.2
-25 -3 -9 59.19 10.6
9 -25 3 41 13.3
25 3 -9 36.8 23.6
-9 -25 -3 47.6 10.7
-25 3 -9 53.09 13.1
9 -25 -3 57.49 13
9 -25 -3 38.9 36.8
3 -9 -25 45.3 69.39
25 -3 -9 77.89 23.2
-25 3 -9 17.3 47.1
-5 -9 -25 -62.69 73.09
25 5 -9 -17.5 22.4
9 -25 5 -7.5 12.3
9 -25 5 -19.8 44.1
-9 -25 -5 7.5 8.3
-25 -5 -9 8.5 8.2
9 -25 -5 9.7 10.4
-25 5 -9 4.4 12.4
25 -5 -9 48.1 22
9 -25 -5 -36 34.5
5 -9 -25 -36.3 62.29
-25 -7 -9 4.2 7.5
9 -25 7 8.4 13.3
-9 -25 -7 -14.1 58.79
25 -7 9 -1.7 14.4
-7 -9 -25 -99.09 78.59
9 -25 7 -41.6 44.3
-9 -25 -7 3.3 7.7
25 7 -9 11.1 23.7
-25 7 -9 16 13.6
7 -9 -25 -12.7 60.79
9 -25 -7 -61.29 34.9
25 -7 -9 -5.3 20.8
9 -25 -7 12.6 10.9
9 -25 9 -47.2 49.4
9 9 -25 -195.28 121.29
-9 -9 -25 -52.79 80.59
9 -25 9 29.2 14.7
-9 -9 -25 7.4 9
-9 -25 -9 10 7.5
-9 -25 -9 -22 55.59
25 -9 9 10 15.2
-25 -9 -9 14.5 8.1
9 -9 -25 44.1 63.19
25 -9 -9 -6.4 23.2
-25 9 -9 8.4 13.5
9 -25 -9 24.6 37
9 -25 -9 13.4 10.8
-11 -9 -25 165.28 19
11 9 -25 189.08 106.09
9 -25 11 168.88 23
25 -11 9 147.39 23.7
-25 -11 -9 166.28 19.2
-9 -25 -11 155.48 18.5
-11 -9 -25 114.39 95.99
-9 -25 -11 76.49 58.49
9 -25 -11 147.49 44.3
9 -25 -11 150.88 19.6
25 -11 -9 172.88 34.2
11 -9 -25 211.18 69.19
-9 -25 -13 225.78 65.89
-25 -13 -9 272.37 29.8
25 -13 9 291.07 34.8
13 9 -25 307.97 108.09
-9 -25 -13 289.97 29.1
25 -13 9 300.97 58.09
-13 -9 -25 344.07 31
13 -9 -25 474.65 77.69
9 -25 -13 303.97 55.59
25 -13 -9 300.77 42.6
9 -25 -13 270.17 30.8
-15 -9 -25 134.49 15.9
15 9 -25 133.29 37.4
-9 -25 -15 149.09 16.7
25 -15 9 82.99 45.4
-25 -15 -9 112.59 15.5
-9 -25 -15 133.29 51.19
25 -15 9 127.69 21.4
9 -25 -15 125.29 16.8
9 -25 -15 133.79 42
25 -15 -9 122.89 29.6
15 -9 -25 60.19 60.19
-25 -17 -9 2.7 7.7
-9 -25 -17 11.2 45.2
25 -17 9 12 15.1
-9 -25 -17 19.8 7.8
-17 -9 -25 28.5 8.8
17 9 -25 -12.5 26.4
25 -17 9 -9.3 39.3
25 -17 -9 16.2 19.9
17 -9 -25 -19.3 15.5
9 -25 -17 -1.9 9.6
25 -19 9 -130.09 39.5
-9 -25 -19 50.69 52.29
25 -19 9 12.8 14.1
-19 -9 -25 -9.5 7.7
-25 -19 -9 7.2 7.7
-9 -25 -19 13.1 8
19 9 -25 -18.2 25
25 -19 -9 -5.7 20.8
-19 9 -25 18 8.4
9 -25 -19 -4.2 9.4
19 -9 -25 28.4 14.4
11 -25 1 468.65 64.39
11 -25 1 405.06 42.5
-1 -11 -25 452.75 90.89
25 1 -11 446.76 51.39
-25 -1 -11 431.16 40.9
-25 1 -11 431.36 41.3
11 -25 -1 459.35 42.7
1 -11 -25 454.65 88.59
11 -25 -1 388.56 61.59
25 -1 -11 418.16 50.09
-25 -3 -11 291.07 27.3
-11 -25 -3 274.27 27.4
-3 -11 -25 119.79 83.89
11 -25 3 248.38 53.89
11 -25 3 272.47 30.1
25 3 -11 269.37 37.7
3 -11 -25 244.28 75.09
-25 3 -11 242.28 28.6
11 -25 -3 239.38 47.7
25 -3 -11 229.58 35.6
11 -25 -3 262.27 29.7
11 -25 5 95.09 48.2
11 -25 5 103.39 17.7
-11 -25 -5 78.99 13
25 5 -11 91.79 26.5
-25 -5 -11 92.29 13.7
-5 -11 -25 111.99 84.49
25 -5 -11 129.39 24.2
11 -25 -5 97.09 16
5 -11 -25 -3.9 62.99
11 -25 -5 158.78 37.3
-25 5 -11 99.39 17.1
-25 -7 -11 71.69 11.5
11 -25 7 72.29 16.9
-7 -11 -25 -100.59 79.59
11 -25 7 21.9 46.9
25 7 -11 55.99 26.4
-11 -25 -7 75.99 11.3
25 -7 -11 58.19 23
-25 7 -11 63.79 16.3
11 -25 -7 81.59 14.5
7 -11 -25 19.8 60.79
11 -25 -7 32.6 34.7
11 -25 9 176.28 22.5
-25 -9 -11 148.99 17.6
11 -25 9 83.79 54.79
25 -9 11 144.19 24.1
25 9 -11 170.68 47
-9 -11 -25 -52.79 87.49
-11 -25 -9 170.48 63.79
-11 -25 -9 161.38 18.4
-9 -11 -25 146.49 18.3
-25 9 -11 165.98 22.8
11 -25 -9 144.49 20
9 -11 -25 156.38 64.69
11 -25 -9 155.88 41.1
25 -9 -11 155.08 29.8
-11 -11 -25 592.34 116.19
-11 -25 -11 469.75 43.9
-25 -11 -11 466.85 44.3
25 -11 11 452.25 48.3
-11 -25 -11 355.36 80.69
-11 -11 -25 471.25 44.6
11 -25 11 493.15 48.6
25 -11 -11 451.65 57.39
11 -11 -25 795.12 87.19
11 -25 -11 459.95 45.9
11 -25 -11 508.35 64.19
-25 11 -11 497.35 47.8
-11 -25 -13 599.84 53.39
11 -25 13 574.14 56.99
-11 -25 -13 599.64 87.89
25 -13 11 672.53 57.69
-13 -11 -25 569.34 53.99
-25 -13 -11 561.24 53.49
25 -13 -11 587.24 64.69
11 -25 -13 629.14 55.19
-25 13 -11 571.04 56.39
11 -25 -13 543.35 72.89
13 -11 -25 587.34 86.79
-11 -25 -15 413.26 70.29
15 11 -25 258.47 47.9
-25 -15 -11 307.27 30.9
-11 -25 -15 349.47 31
25 -15 11 359.86 36
-15 -11 -25 324.37 31.4
25 -15 -11 266.97 40.3
15 -11 -25 178.98 63.99
11 -25 -15 299.67 32.8
25 -17 11 26.6 46.8
-17 -11 -25 53.09 11.2
-25 -17 -11 79.79 10.9
25 -17 11 70.79 16.7
17 11 -25 53.79 31.4
-11 -25 -17 62.09 10.2
-11 -25 -17 29 52.89
11 -25 -17 63.79 13.3
25 -17 -11 31.4 19.1
-11 -25 -19 30.6 8.2
-11 -25 -19 -4.7 54.29
19 11 -25 25.1 27.3
-25 -19 -11 27.6 8.5
25 -19 11 13.3 42.8
25 -19 11 -3 13.6
-19 -11 -25 26.7 8.9
-19 11 -25 20.2 12
-25 -1 -13 457.15 44.1
13 -25 1 452.25 46.1
25 1 -13 509.05 53.19
-1 -13 -25 430.86 88.79
13 -25 1 529.15 64.69
25 -1 -13 477.65 52.09
1 -13 -25 481.75 90.39
-25 1 -13 463.05 44.4
13 -25 -1 533.65 66.09
13 -25 -1 454.75 46.2
25 3 -13 296.77 38.5
-3 -13 -25 313.37 82.69
-25 -3 -13 293.67 29.8
13 -25 3 285.47 33.3
13 -25 3 225.58 53.09
25 -3 -13 263.17 36.8
-25 3 -13 332.17 31.4
13 -25 -3 311.27 32.4
13 -25 -3 269.77 48.4
3 -13 -25 245.38 75.29
-25 -5 -13 113.99 16.4
25 5 -13 124.49 27.7
13 -25 5 69.19 46
-5 -13 -25 169.08 78.99
-13 -25 -5 147.59 16.1
13 -25 5 134.39 20.5
25 -5 -13 136.29 26.4
13 -25 -5 153.68 19.6
-25 5 -13 120.09 18.6
5 -13 -25 171.88 65.09
13 -25 -5 145.89 38.7
-7 -13 -25 141.99 17.2
-7 -13 -25 85.39 80.79
-13 -25 -7 120.29 15.7
13 -25 7 75.19 50.49
-25 -7 -13 126.19 16.8
13 -25 7 165.18 21.5
25 7 -13 155.48 29.5
7 -13 -25 73.09 61.89
-25 7 -13 137.89 20.4
25 -7 -13 143.69 26.4
13 -25 -7 134.59 36.5
13 -25 -7 169.68 20.9
13 -25 9 351.26 34.2
13 -25 9 223.78 62.79
-9 -13 -25 287.37 30.2
-25 -9 -13 317.57 29.4
25 9 -13 249.28 41
-13 -25 -9 263.07 28.7
-9 -13 -25 341.07 99.69
25 -9 -13 265.87 37.6
-25 9 -13 300.57 33.9
9 -13 -25 407.56 70.59
13 -25 -9 265.67 46.8
13 -25 -9 296.47 31.4
-11 -13 -25 589.24 55.49
-11 -13 -25 516.45 119.59
13 -25 11 503.45 102.79
-25 -11 -13 584.84 54.99
-13 -25 -11 668.63 54.89
13 -25 11 605.84 58.19
13 -25 -11 601.54 56.69
25 -11 -13 603.14 64.29
-25 11 -13 555.64 57.69
13 -25 -11 647.34 71.59
11 -13 -25 751.12 87.99
-13 -25 -13 798.82 96.69
25 -13 13 645.24 59.89
-13 -13 -25 488.75 118.09
-13 -25 -13 670.73 56.69
-25 -13 -13 609.94 56.69
13 -25 13 619.94 60.09
-13 -13 -25 589.14 57.19
25 -13 -13 649.64 66.39
-25 13 -13 655.33 59.79
13 -25 -13 598.44 58.29
25 -15 13 324.17 33.6
-25 -15 -13 301.87 29.2
-15 -13 -25 290.57 29.7
13 -25 15 267.77 33.7
-13 -25 -15 446.96 73.79
-13 -25 -15 291.57 28.7
25 -15 -13 261.87 36.2
-25 15 -13 282.87 32.6
13 -25 -15 311.77 31.3
-13 -25 -17 84.09 11.9
-17 -13 -25 109.89 13.5
-25 -17 -13 75.69 12.2
25 -17 13 89.59 17
-13 -25 -17 161.68 61.29
13 -25 -17 91.99 14.8
-25 17 -13 85.09 16.7
-25 -1 -15 229.48 25.1
25 1 -15 239.98 34.1
-1 -15 -25 184.78 78.79
15 -25 1 240.68 28.4
15 -25 1 205.78 46.6
-25 1 -15 227.88 25
15 -25 -1 207.38 45.4
25 -1 -15 257.07 33.2
15 -25 -1 211.68 26.3
1 -15 -25 241.18 75.19
15 -25 3 117.39 18.5
-3 -15 -25 44.1 74.69
15 -25 3 140.39 42.3
25 3 -15 92.39 26.9
-25 -3 -15 113.89 14.9
3 -15 -25 225.38 65.99
-25 3 -15 98.19 14.8
15 -25 -3 101.29 36.8
15 -25 -3 86.69 16.9
25 -3 -15 82.99 23.5
15 -25 5 75.39 44.2
-5 -15 -25 19.3 9.4
-25 -5 -15 26 9.3
15 -25 5 13.6 13.8
25 5 -15 65.79 25
-5 -15 -25 111.49 75.49
-15 -25 -5 50.89 9.4
-25 5 -15 21.2 11.2
15 -25 -5 37 30.9
25 -5 -15 53.69 20.1
5 -15 -25 116.49 58.19
15 -25 -5 20.9 13
15 -25 7 47.9 15.2
-25 -7 -15 30.9 9.5
15 -25 7 50.69 44.1
-7 -15 -25 81.19 74.29
-7 -15 -25 35.7 10.4
-15 -25 -7 37.3 9.1
25 7 -15 42.6 24.2
15 -25 -7 36 30.1
-25 7 -15 44.4 12.8
15 -25 -7 39.6 13.7
7 -15 -25 70.99 53.99
25 -7 -15 39.6 19.3
-15 -25 -9 126.89 15.6
15 -25 9 122.99 20.3
25 9 -15 166.68 30.6
-9 -15 -25 149.09 80.79
-9 -15 -25 119.79 16.6
-25 -9 -15 157.88 17.7
15 -25 9 157.98 52.89
-25 9 -15 128.29 19.5
9 -15 -25 209.58 53.79
25 -9 -15 131.29 25.1
15 -25 -9 115.89 18.7
15 -25 -9 152.28 33.9
-15 -25 -11 330.17 30.8
15 -25 11 315.27 64.89
-11 -15 -25 278.97 91.79
15 -25 11 328.77 35.4
-11 -15 -25 269.17 31.7
-25 -11 -15 366.86 31.4
15 -25 -11 314.17 33.8
25 -11 -15 294.77 39.8
-25 11 -15 298.47 34.2
15 -25 -11 332.77 46.9
-25 -13 -15 298.37 29.9
-13 -15 -25 215.38 90.69
15 -25 13 285.07 34.7
-15 -25 -13 334.47 30
-13 -15 -25 278.17 30.7
15 -25 -13 316.17 32.8
25 -13 -15 349.67 40.3
-25 13 -15 327.57 33.8
-25 -15 -15 144.79 16.9
15 -25 15 98.69 20.1
-15 -15 -25 150.48 16.9
-15 -25 -15 118.19 15.3
-25 15 -15 157.98 19.9
15 -25 -15 148.79 18.6
-25 -17 -15 28.3 8.4
15 -25 17 16.5 15.1
-15 -25 -17 18.7 7.4
25 -17 15 18.7 13.6
-17 -15 -25 23 8.9
-15 -25 -17 50.09 58.89
-25 17 -15 34.9 13.1
17 -25 1 25.6 33.5
-25 -1 -17 55.89 11.3
-1 -17 -25 46.4 64.69
25 1 -17 79.79 22.2
17 -25 1 43.5 15
25 -1 -17 50.59 20.5
-25 1 -17 60.19 11.4
17 -25 -1 63.39 15.3
1 -17 -25 19.2 59.29
17 -25 -1 72.19 32.1
-3 -17 -25 11.6 66.89
-3 -17 -25 15.2 11.6
17 -25 3 -6.1 33.9
17 -25 3 3 13
-25 -3 -17 3.9 8.7
25 3 -17 12.8 19.8
17 -25 -3 45.4 29.3
17 -25 -3 14.8 12.6
25 -3 -17 17 17.5
-25 3 -17 6 9.5
3 -17 -25 32.7 55.49
17 -25 5 -15.2 13.1
-5 -17 -25 -9.3 8
25 5 -17 24.1 21.1
17 -25 5 -35.1 35.2
-5 -17 -25 -11.5 65.09
-25 -5 -17 2.4 8.3
5 -17 -25 98.09 52.59
-25 5 -17 -1.8 9.1
17 -25 -5 23.1 12.9
17 -25 -5 -12.4 26.8
25 -5 -17 11.5 16.6
17 -25 7 -8.4 13
-7 -17 -25 63.89 69.99
25 7 -17 24.3 22.5
17 -25 7 12.7 38.2
-17 -25 -7 11.1 7.3
-7 -17 -25 0.6 8.2
-25 -7 -17 7.5 8.4
17 -25 -7 19.1 27.6
17 -25 -7 -14.8 12.1
7 -17 -25 0.9 46.1
-25 7 -17 -8.9 9.4
25 -7 -17 29.4 17.6
-9 -17 -25 -5.2 8.7
17 -25 9 18.9 14.2
25 9 -17 30.5 22
-17 -25 -9 7.4 7.2
-25 -9 -17 10.5 8.1
17 -25 9 41.5 41
-9 -17 -25 -20.8 70.49
17 -25 -9 27 26.6
17 -25 -9 -9.4 11.9
-25 9 -17 -4 10.2
25 -9 -17 6.1 17.3
17 -25 11 62.09 16.3
-25 -11 -17 74.69 11.5
-11 -17 -25 16.9 75.69
-11 -17 -25 68.89 12
25 11 -17 108.49 27.3
17 -25 11 96.09 47.4
-17 -25 -11 60.99 10.3
25 -11 -17 38.9 21.4
-25 11 -17 54.19 13.3
17 -25 -11 73.19 14.8
-13 -17 -25 125.29 74.49
-25 -13 -17 111.89 12.6
-13 -17 -25 98.49 13.2
-17 -25 -13 63.49 11.5
17 -25 13 81.69 17.3
-25 13 -17 106.09 15.3
17 -25 -13 74.49 15.2
-15 -17 -25 -26.5 71.39
-15 -17 -25 30.6 9.4
17 -25 15 21.6 13.7
-25 -15 -17 31.7 8.3
-17 -25 -15 26.2 7.7
-25 15 -17 31.6 12
-25 -1 -19 5.1 8.6
25 1 -19 4.3 18.4
19 -25 1 3.1 12.5
19 -25 1 16.1 30.7
-1 -19 -25 9.6 60.59
25 -1 -19 24.5 17.8
19 -25 -1 53.19 30.6
-25 1 -19 30.4 9.7
1 -19 -25 14.5 56.89
19 -25 -1 18.9 12.7
19 -25 3 -15.7 30.1
-3 -19 -25 -26.5 61.39
19 -25 3 2.2 12.8
-3 -19 -25 -1.8 8.6
-25 -3 -19 12.5 8.7
25 3 -19 -19.8 17.5
-25 3 -19 -1.3 8.5
25 -3 -19 4.2 16.6
3 -19 -25 -64.89 50.69
19 -25 -3 5.4 26.5
19 -25 -3 22 12.8
25 5 -19 50.89 20.5
-5 -19 -25 27.9 8.9
19 -25 5 18.4 13.7
-25 -5 -19 9.6 8.9
19 -25 5 29.6 35.1
-5 -19 -25 -10.6 61.39
-25 5 -19 15.5 9.5
5 -19 -25 40.9 49.3
19 -25 -5 21.7 12.7
25 -5 -19 38.2 16.9
19 -25 -5 -1.2 26.1
25 7 -19 72.29 23.1
-19 -25 -7 50.39 8.9
-25 -7 -19 30.7 9.6
-7 -19 -25 21.5 9.2
19 -25 7 20.1 14.5
19 -25 7 39.6 38
-7 -19 -25 23.8 66.69
19 -25 -7 40.9 26.6
-25 7 -19 45.6 10.7
19 -25 -7 56.09 13.8
7 -19 -25 29.5 43.9
25 -7 -19 40.4 18
-25 -9 -19 19.9 8.4
19 -25 9 -8.2 13.2
-9 -19 -25 -1.4 7.9
19 -25 9 32 39.7
-9 -19 -25 -8.4 66.99
25 9 -19 20.2 22
-19 -25 -9 7.2 7
19 -25 -9 6.2 12
25 -9 -19 6 16.3
19 -25 -9 27.9 25.1
-25 9 -19 -1.3 8.8
19 -25 11 17.5 13.3
25 11 -19 47.2 24
-11 -19 -25 22.8 68.09
-19 -25 -11 27.8 7.8
-11 -19 -25 17.1 8.5
-25 -11 -19 24.6 8.6
19 -25 11 -17.2 40.8
-25 11 -19 19.8 9.5
19 -25 -11 28.7 12
-1 -21 -25 123.69 15.8
21 -25 1 137.29 18.9
21 -25 1 97.29 35.3
-25 -1 -21 104.59 15.1
-1 -21 -25 64.59 67.59
25 1 -21 97.79 24.6
-25 1 -21 131.69 15.4
1 -21 -25 202.18 66.59
25 -1 -21 86.59 23.2
21 -25 -1 71.19 34.2
21 -25 -1 111.59 17.9
-25 -3 -21 39.8 10.9
21 -25 3 102.39 34.9
-3 -21 -25 20.9 64.09
-3 -21 -25 53.39 11.4
25 3 -21 50.59 20.7
21 -25 3 28.2 14.5
-25 3 -21 59.79 10.9
25 -3 -21 39.6 18.4
21 -25 -3 18.7 28.1
21 -25 -3 71.19 14.5
3 -21 -25 31.3 54.19
25 5 -21 15.9 18.7
-5 -21 -25 -26.7 62.39
-5 -21 -25 -3.2 8.5
-25 -5 -21 5.9 8.4
21 -25 5 -20.6 31.7
21 -25 5 12.9 13.4
-25 5 -21 5.9 8.2
5 -21 -25 -53.09 44
21 -25 -5 -1.2 24.4
21 -25 -5 -1.1 11.8
25 -5 -21 32.8 16.2
25 7 -21 20.5 19.9
-7 -21 -25 -31.1 61.99
-7 -21 -25 0.1 7.9
21 -25 7 -8.3 13.2
-25 -7 -21 -1.2 8.1
21 -25 7 8.9 35.7
21 -25 -7 -2.8 23.9
25 -7 -21 14.1 15.5
21 -25 -7 -8.2 11.2
-25 7 -21 10.1 8.3
-26 0 0 1020.1 121.29
0 -26 0 1141.69 98.49
0 -26 -2 728.93 68.29
0 -26 2 779.92 68.79
-26 2 0 794.72 96.49
-26 -2 0 759.42 95.59
0 -26 -4 292.67 84.79
-26 4 0 461.45 63.59
4 0 -26 117.99 132.79
4 0 -26 338.87 58.49
0 -26 -4 346.07 35.8
0 -26 4 399.96 37.2
0 -26 -6 83.89 13.6
6 0 -26 105.99 86.39
0 -26 -6 143.99 57.59
26 -6 0 87.89 41.4
6 0 -26 123.99 43.3
26 -8 0 38.7 16.8
0 -26 -8 70.19 51.39
8 0 -26 152.18 85.39
26 -8 0 80.89 35.8
0 -26 -8 77.59 12.5
0 -26 -10 374.56 64.09
26 -10 0 247.48 30.4
10 0 -26 302.17 93.29
0 -26 -10 283.17 28.8
26 -10 0 255.77 47.5
0 -26 -12 468.15 71.49
12 0 -26 386.36 101.79
26 -12 0 396.46 44.7
0 -26 -12 487.45 42.8
26 -12 0 410.26 59.09
26 -14 0 319.37 36.2
14 0 -26 314.57 94.49
26 -14 0 292.37 48.2
0 -26 -14 272.37 62.19
0 -26 -14 342.27 32.5
0 -26 -16 111.99 46.7
-16 0 -26 113.99 15.2
16 0 -26 127.49 82.69
26 -16 0 105.79 18.6
0 -26 -16 111.99 15.6
26 -16 0 78.29 30.8
0 -26 -18 61.19 40.2
18 0 -26 26.9 23.9
26 -18 0 -22.8 28.3
0 -26 -18 19.5 9.9
26 -18 0 37 14.5
-18 0 -26 13.3 9.2
-20 0 -26 43.3 10.4
20 0 -26 39.2 22.4
26 -20 0 55.59 30.8
26 -20 0 36.5 14.7
0 -26 -20 -1 48
0 -26 -20 50.99 11.1
-26 0 -2 885.21 97.89
-26 0 2 782.72 98.49
-2 -26 0 760.42 71.29
2 -26 0 824.82 71.99
0 2 -26 741.33 94.79
-26 2 2 438.96 74.39
-2 -26 -2 552.84 53.19
2 2 -26 570.64 75.69
2 -26 2 658.43 54.29
-2 -26 2 588.14 54.09
-26 2 -2 742.33 86.59
-2 2 -26 648.74 106.89
-26 -2 2 525.95 77.49
2 -26 -2 549.25 53.69
-2 -26 -4 155.18 92.59
2 -26 4 151.28 21.7
-2 -26 -4 200.68 21.8
-26 4 2 191.48 56.49
4 2 -26 157.28 45.8
4 -2 -26 199.08 91.29
-26 4 -2 157.58 50.29
-26 4 -2 164.78 22.2
2 -26 -4 188.28 22.2
2 -26 -4 194.78 59.19
26 -4 -2 259.07 57.39
-2 -26 -6 25.8 9.7
26 -6 2 25.2 14.5
-2 -26 -6 -12.3 55.69
2 -26 6 46 14.9
6 2 -26 16.4 86.29
26 -6 2 114.29 39.8
2 -26 -6 63.69 47.6
6 -2 -26 -77.29 77.69
2 -26 -6 46.5 10.7
26 -6 -2 54.79 34.5
-26 6 -2 31.2 13.2
-2 -26 -8 -1.5 51.39
26 -8 2 7.4 14.6
-2 -26 -8 17.8 9.2
26 -8 2 13.7 35.3
8 2 -26 55.19 89.49
2 -26 -8 -38.1 47.8
2 -26 -8 18.8 9.7
26 -8 -2 -47.7 33.3
8 -2 -26 0.7 73.19
-2 -26 -10 142.59 18.4
-2 -26 -10 161.38 56.69
26 -10 2 145.99 22.4
26 -10 2 145.09 43.1
10 2 -26 192.68 94.89
26 -10 -2 216.78 39.5
10 -2 -26 78.29 79.99
2 -26 -10 194.78 53.19
2 -26 -10 163.18 19
12 2 -26 353.36 105.99
26 -12 2 346.77 38.8
-2 -26 -12 313.77 66.69
-2 -26 -12 404.16 36.1
26 -12 2 394.56 56.79
26 -12 -2 349.47 38.1
2 -26 -12 371.26 64.69
2 -26 -12 345.97 36.2
12 -2 -26 341.07 93.89
26 -12 -2 324.97 51.29
-14 -2 -26 193.38 24.7
14 2 -26 149.19 89.39
26 -14 2 153.18 42.2
26 -14 2 292.87 29.5
-2 -26 -14 248.78 56.29
-2 -26 -14 220.98 24.7
2 -26 -14 233.68 54.39
26 -14 -2 183.48 25.8
2 -26 -14 250.17 25
26 -14 -2 229.88 41.7
14 -2 -26 140.69 83.29
-16 -2 -26 70.29 12.3
-2 -26 -16 58.69 12.4
-2 -26 -16 33 44.1
26 -16 2 74.69 16.1
26 -16 2 56.89 31
16 -2 -26 77.99 74.19
2 -26 -16 81.99 13
-16 2 -26 55.09 12.6
26 -16 -2 71.79 28.6
2 -26 -16 21.5 41.9
26 -16 -2 63.49 16.2
-18 -2 -26 -1.8 8.4
26 -18 2 -8.6 13.6
18 2 -26 -20.1 22.5
-2 -26 -18 0.5 9
26 -18 2 45.4 31.6
-2 -26 -18 -13.3 39.7
26 -18 -2 -18.6 12.7
2 -26 -18 23.9 36.9
-18 2 -26 -6.4 8.9
26 -18 -2 23.2 26.7
2 -26 -18 2.3 9.3
18 -2 -26 -28.7 20.9
26 -20 2 11.5 14.4
-2 -26 -20 27.8 48.5
-2 -26 -20 37 10.3
26 -20 2 25.5 32.6
-20 -2 -26 3.8 8.9
20 2 -26 11.1 21.8
26 -20 -2 24.3 27.4
2 -26 -20 32.3 10.8
26 -20 -2 33.3 13.9
2 -26 -20 8 45.9
20 -2 -26 42.4 20.9
-20 2 -26 35.5 9.9
4 -26 0 474.85 98.49
-26 0 -4 404.86 36.3
-26 0 4 295.27 60.29
-4 -26 0 332.07 36.4
0 4 -26 350.06 62.49
4 -26 0 379.36 37.3
-26 0 -4 402.16 83.39
0 -4 -26 341.57 135.39
-4 -26 -2 181.18 20.2
4 -26 2 154.18 21.2
-26 -2 -4 179.28 19.9
-26 2 4 212.28 50.89
2 4 -26 103.69 47.6
-2 -4 -26 184.88 123.89
-26 -2 4 160.68 47.8
-26 2 -4 202.58 48.9
4 -26 -2 132.79 54.59
2 -4 -26 134.19 85.69
26 -2 -4 234.18 52.59
-26 2 -4 202.78 21.7
-2 4 -26 191.78 52.49
4 -26 -2 165.78 20.6
4 -26 4 14.1 12.9
4 4 -26 -34.7 131.79
-4 -26 -4 59.19 10.5
-4 -4 -26 117.79 99.79
-4 -26 -4 86.49 63.79
4 4 -26 49.3 50.19
4 -26 4 124.99 71.49
4 -4 -26 24 72.09
-26 4 -4 45.4 13.2
-26 -4 4 29.7 41.1
-4 4 -26 37.9 47.7
4 -26 -4 32.7 11.1
-26 4 -4 141.69 57.69
4 -26 -4 -17.2 45
26 -4 -4 22.1 30.3
-4 -26 -6 19.8 9.1
-6 -4 -26 -11.5 81.09
-4 -26 -6 15.5 57.09
4 -26 6 -4.8 11.5
6 4 -26 -103.99 90.39
26 -6 4 -41.5 37.9
4 -26 6 38.9 48.6
26 -6 4 5.1 13.7
26 -6 -4 -12.4 29.3
4 -26 -6 8.6 10
4 -26 -6 -20.1 42
6 -4 -26 -46.4 73.49
-26 6 -4 -15.6 11.9
-4 -26 -8 -2.2 8.4
-8 -4 -26 -28.1 103.59
8 4 -26 -26.7 90.29
-4 -26 -8 -20.3 54.79
26 -8 4 -30 36
26 -8 4 -4.4 14.4
8 -4 -26 13.3 72.59
4 -26 -8 45.8 11.4
4 -26 -8 16.7 42.6
26 -8 -4 53.99 31.4
-4 -26 -10 40 55.49
-4 -26 -10 64.19 11.4
26 -10 4 75.09 39.1
26 -10 4 29 15.6
10 4 -26 -56.99 90.49
26 -10 -4 51.49 31.9
4 -26 -10 34.4 11.8
10 -4 -26 65.49 73.99
4 -26 -10 68.19 46.2
26 -12 4 212.38 43.7
12 4 -26 60.19 97.39
26 -12 4 164.08 24.8
-4 -26 -12 214.98 58.99
-4 -26 -12 178.48 21.5
4 -26 -12 169.58 50.69
4 -26 -12 206.08 23.2
12 -4 -26 -42.1 76.29
26 -12 -4 190.48 38.6
26 -14 4 82.69 18.3
-14 -4 -26 96.89 14.5
-4 -26 -14 91.09 14.2
-4 -26 -14 48.5 46.3
14 4 -26 115.89 97.39
26 -14 4 107.59 36.8
4 -26 -14 59.19 44.9
26 -14 -4 132.39 32.6
14 -4 -26 122.69 75.19
4 -26 -14 99.59 14.9
-4 -26 -16 6.2 41.7
26 -16 4 -28.3 30.8
-16 -4 -26 7.7 9
-4 -26 -16 8.4 9.2
26 -16 4 12.8 14.3
16 -4 -26 58.19 68.59
26 -16 -4 6.6 24.9
4 -26 -16 49.3 40
4 -26 -16 5.7 9.9
26 -16 -4 -9.6 13.3
26 -18 4 12.1 14.3
18 4 -26 14.3 23.7
-18 -4 -26 13.6 8.9
-4 -26 -18 -45.7 38.6
26 -18 4 -47 30.3
-4 -26 -18 4 9.1
4 -26 -18 -16.6 36.2
26 -18 -4 3.4 13.2
26 -18 -4 14.7 24.5
18 -4 -26 19.8 19.9
4 -26 -18 14.7 10.1
-18 4 -26 22.2 9.6
-20 -4 -26 0.7 8.3
26 -20 4 26.2 34.5
-4 -26 -20 16 9.2
-4 -26 -20 41.8 49.99
26 -20 4 -1.7 13.1
20 4 -26 20.6 23.9
20 -4 -26 5.8 17.1
26 -20 -4 32.6 26.3
-20 4 -26 -16.6 8.4
26 -20 -4 -2.3 12.6
4 -26 -20 -5.4 9.6
4 -26 -20 -65.09 43.3
-6 -26 0 98.79 15
-26 0 -6 121.49 15.2
6 -26 0 96.09 16
0 -6 -26 -18.1 77.29
26 0 -6 116.79 30.2
6 -26 0 172.68 50.59
26 2 -6 84.09 27.4
6 -26 2 -29.9 42.3
-6 -26 -2 46.3 11
6 -26 2 28.1 12.6
-26 -2 -6 51.29 10.9
-2 -6 -26 29.7 76.39
6 -26 -2 51.09 12.2
-26 2 -6 54.39 12.7
-26 2 -6 -23.9 44.2
6 -26 -2 51.69 43.9
26 -2 -6 37 26.7
2 -6 -26 68.09 72.89
6 -26 4 -51.29 43.9
4 6 -26 79.49 102.29
-4 -6 -26 69.59 77.89
26 4 -6 4.9 25.3
-6 -26 -4 29.4 59.89
6 -26 4 -30.2 11.6
-6 -26 -4 12.5 8.9
-26 -4 -6 9.2 8.2
-26 4 -6 4.3 11.7
6 -26 -4 13.7 10.4
6 -26 -4 -10.8 40.6
4 -6 -26 -59.99 69.39
26 -4 -6 -10.5 24.8
-6 -26 -6 13.5 8.9
6 -26 6 -22.7 45.4
-6 -6 -26 -58.09 75.29
-26 -6 -6 18.2 8.7
26 6 -6 20.8 32.5
-6 -26 -6 41.7 61.79
26 -6 6 -43.6 59.29
6 -26 6 7.2 12.9
6 6 -26 -77.99 92.29
6 -26 -6 5.7 10.6
-26 6 -6 32 13.9
6 -6 -26 20.9 70.09
26 -6 -6 31.7 27.2
6 -26 -6 -19.5 40.7
26 -8 6 110.89 43.2
-6 -26 -8 44.8 10.6
6 -26 8 68.29 15.8
8 6 -26 -73.29 90.39
-8 -6 -26 -91.59 86.09
6 -26 8 27.1 54.59
-6 -26 -8 74.89 58.59
-26 -8 -6 46.9 10
26 -8 6 31.6 15.8
26 -8 -6 41.5 29.7
-26 8 -6 34.8 14.7
6 -26 -8 24.5 40.5
6 -26 -8 53.39 12.5
8 -6 -26 28.5 71.99
-6 -26 -10 -30.7 52.79
10 6 -26 120.09 96.39
26 -10 6 3.5 15.2
26 -10 6 -3.5 36.8
-6 -26 -10 7 8.9
26 -10 -6 -19.1 28.7
10 -6 -26 -70.59 67.99
6 -26 -10 13.6 11.5
6 -26 -10 28.9 42
-6 -26 -12 54.59 12.1
-12 -6 -26 70.29 12.2
12 6 -26 2.4 97.99
26 -12 6 72.39 17.5
-6 -26 -12 56.99 54.89
26 -12 6 66.99 38.3
12 -6 -26 140.99 72.79
6 -26 -12 70.99 14.2
26 -12 -6 78.59 31.8
6 -26 -12 138.99 46.2
26 -14 6 20.5 35.1
-6 -26 -14 -40.7 44.1
14 6 -26 42.9 88.39
26 -14 6 43.7 15.9
-14 -6 -26 42.6 10.6
-6 -26 -14 39.6 10.1
6 -26 -14 -41.1 40.6
26 -14 -6 69.19 29.2
14 -6 -26 -2.8 65.49
6 -26 -14 43.3 12
16 6 -26 14.7 29.8
-6 -26 -16 32.7 40.3
-6 -26 -16 3.4 8.6
-16 -6 -26 -10.1 8.1
26 -16 6 13.9 14.6
26 -16 6 -26.4 34.4
26 -16 -6 -36.1 20.9
16 -6 -26 12.8 63.49
6 -26 -16 -15.8 36.7
6 -26 -16 -5.3 9.8
18 6 -26 31.6 26.6
26 -18 6 64.59 37.4
-6 -26 -18 2.3 43.5
-18 -6 -26 40.5 10.2
26 -18 6 62.69 16.2
-6 -26 -18 58.49 11
-18 6 -26 42.4 11
26 -18 -6 32.9 23.9
18 -6 -26 70.69 19.7
6 -26 -18 72.99 12.8
6 -26 -18 -24.7 34.8
-20 -6 -26 15.6 8.5
26 -20 6 20 14.1
-6 -26 -20 67.49 52.99
-6 -26 -20 40.7 10
20 6 -26 38.5 24.9
26 -20 6 3.5 38.9
6 -26 -20 13.4 9.5
6 -26 -20 -6 39.3
26 -20 -6 8.6 23.7
26 -20 -6 41.1 14
20 -6 -26 14.3 15.9
-20 6 -26 9 8.7
26 0 -8 69.39 26.1
8 -26 0 61.39 13.9
8 -26 0 -28 40.5
0 -8 -26 26.8 74.49
-26 0 -8 65.09 11.6
8 -26 2 -4.5 11.2
-8 -26 -2 20.2 10
8 -26 2 0.4 42.5
-26 -2 -8 36.7 9.9
-2 -8 -26 11.2 77.79
26 2 -8 24.1 23.7
26 -2 -8 28.1 24
8 -26 -2 10.7 10.9
-26 2 -8 24.3 11.1
8 -26 -2 -61.89 38.9
2 -8 -26 -122.89 67.79
26 4 -8 -16.6 23.3
-8 -26 -4 13.7 9.1
-8 -26 -4 -15.8 61.39
8 -26 4 -50.09 39.8
8 -26 4 -5.1 12.5
-26 -4 -8 25.4 8.8
-4 -8 -26 34.9 76.69
4 -8 -26 -116.99 66.69
8 -26 -4 4 38.4
-26 4 -8 6.9 12.1
26 -4 -8 -6.7 21.8
8 -26 -4 28.8 11.2
8 -26 6 49.6 14.6
26 6 -8 11 26.8
8 -26 6 47.3 44.9
-6 -8 -26 -42 78.09
-8 -26 -6 -39.2 59.09
-26 -6 -8 43.7 9.9
-8 -26 -6 33.5 10.4
-26 6 -8 53.59 14.6
8 -26 -6 -5.6 39
6 -8 -26 -49.7 67.49
8 -26 -6 50.29 12.6
26 -6 -8 48.4 25.2
26 -8 8 75.79 17.5
-8 -8 -26 106.19 86.89
-8 -26 -8 111.59 60.69
-26 -8 -8 76.39 11.7
8 8 -26 -84.29 98.69
8 -26 8 30 48.5
-8 -26 -8 52.49 11.7
8 -26 8 83.99 16.5
8 -8 -26 83.39 67.89
8 -26 -8 16.1 40.3
26 -8 -8 59.59 28.4
-26 8 -8 82.49 16.4
8 -26 -8 63.79 13.7
26 -10 8 -0.7 16.7
8 -26 10 6 15.2
-8 -26 -10 24 9.5
26 -10 8 22.7 41.5
-8 -26 -10 -73.19 52.39
10 8 -26 -100.09 96.29
-26 -10 -8 -4.8 8.2
-10 -8 -26 76.19 90.29
-26 10 -8 18.8 15.3
8 -26 -10 0.4 40.3
26 -10 -8 -6.5 28
10 -8 -26 -63.89 66.89
8 -26 -10 -15.6 10.6
-8 -26 -12 18.9 61.49
-12 -8 -26 133.19 15.7
26 -12 8 64.09 42.1
-8 -26 -12 88.89 13.8
12 8 -26 -56.49 105.59
-26 -12 -8 96.89 14
26 -12 8 101.59 19.2
12 -8 -26 156.38 68.59
8 -26 -12 124.59 46.1
8 -26 -12 96.39 15.5
26 -12 -8 98.69 31.2
-8 -26 -14 21.3 47.9
-8 -26 -14 73.19 12.3
26 -14 8 37.7 16.9
-14 -8 -26 86.99 12.5
-26 -14 -8 79.89 11.8
26 -14 8 47.3 43
26 -14 -8 78.19 29.1
8 -26 -14 87.49 42
8 -26 -14 75.39 13.6
14 -8 -26 162.98 64.59
26 -16 8 10.1 14.8
-8 -26 -16 15 8.5
-26 -16 -8 2.1 10.4
-8 -26 -16 2.4 42.8
16 8 -26 27.5 29.6
26 -16 8 -26.3 36.2
-16 -8 -26 8.7 8.3
8 -26 -16 -16.6 35.5
8 -26 -16 -1.5 9.4
26 -16 -8 13.3 21
-8 -26 -18 13.8 45.6
18 8 -26 15.7 28.1
26 -18 8 53.79 15.7
-18 -8 -26 42.4 9.7
-8 -26 -18 46 10.2
26 -18 8 14.2 39.1
18 -8 -26 39.2 16.5
26 -18 -8 25.3 22.2
8 -26 -18 20.1 10.4
-8 -26 -20 17.9 9.1
26 -20 8 19.8 13.7
20 8 -26 16.5 25.1
-20 -8 -26 7.9 7.8
-8 -26 -20 58.59 56.09
26 -20 8 27.9 42.2
-20 8 -26 23 8.8
20 -8 -26 59.69 14.7
26 -20 -8 9.9 22.8
8 -26 -20 10.2 9.3
10 -26 0 268.07 28.8
0 -10 -26 133.29 78.39
10 -26 0 243.18 50.39
-26 0 -10 278.27 27.6
26 0 -10 236.98 38.4
10 -26 2 153.08 22.2
10 -26 2 141.39 49.3
-10 -26 -2 200.18 22.6
26 2 -10 165.08 33.2
-26 -2 -10 204.58 21.7
-2 -10 -26 270.67 82.69
26 -2 -10 204.58 31.5
10 -26 -2 176.98 22.3
2 -10 -26 205.08 77.19
-26 2 -10 187.68 21.6
10 -26 -2 174.38 44.6
-4 -10 -26 64.69 79.59
26 4 -10 91.29 27
-26 -4 -10 65.79 11
-10 -26 -4 59.19 11.1
10 -26 4 16.6 42.9
10 -26 4 30.2 13.6
-26 4 -10 46.5 13.6
4 -10 -26 64.29 69.29
10 -26 -4 43.6 38.4
10 -26 -4 30.5 13
26 -4 -10 62.39 23.5
10 -26 6 -71.39 42.9
-6 -10 -26 -51.39 83.19
26 6 -10 -12.6 24.2
10 -26 6 8.2 13.6
-10 -26 -6 4.2 8.9
-26 -6 -10 11.3 8.7
6 -10 -26 -12.3 65.39
26 -6 -10 -5.7 21.1
-26 6 -10 -20.7 12.9
10 -26 -6 9.6 12.4
10 -26 -6 28.6 36.3
-8 -10 -26 0.8 89.79
10 -26 8 4.7 14.6
26 8 -10 -3.7 27.1
-10 -26 -8 4.9 8.9
-10 -26 -8 159.38 63.89
-26 -8 -10 7.8 8.3
10 -26 8 -37.9 48.7
10 -26 -8 7.1 11.7
8 -10 -26 19.6 67.29
10 -26 -8 -73.19 37.6
26 -8 -10 -6.1 24.4
-26 8 -10 -4.6 14.6
-10 -26 -10 92.19 63.79
-10 -26 -10 115.19 15.6
10 -26 10 134.89 22.4
-26 -10 -10 137.69 16.5
10 -26 10 52.89 64.49
26 -10 10 148.49 21.9
-10 -10 -26 122.99 95.89
-10 -10 -26 142.39 17.1
10 -10 -26 64.19 64.79
-26 10 -10 144.29 20.5
10 -26 -10 146.69 43.5
26 -10 -10 135.29 33
10 -26 -10 120.39 17.9
26 -12 10 403.66 38.5
-10 -26 -12 305.07 32.9
-10 -26 -12 224.78 68.19
10 -26 12 383.86 38.1
12 10 -26 292.97 115.89
-12 -10 -26 419.16 140.99
-12 -10 -26 327.27 33.7
-26 -12 -10 348.17 33.2
10 -26 -12 252.67 55.99
26 -12 -10 346.77 47.4
-26 12 -10 360.56 37.5
10 -26 -12 340.47 35
12 -10 -26 536.65 78.69
-14 -10 -26 361.16 30.7
26 -14 10 274.37 34.3
-10 -26 -14 245.88 64.09
-10 -26 -14 286.37 29.6
14 10 -26 314.67 51.29
26 -14 10 220.98 58.49
-26 -14 -10 298.87 29.3
26 -14 -10 288.27 41.9
-26 14 -10 283.47 32.7
10 -26 -14 279.27 52.79
10 -26 -14 304.27 31.6
14 -10 -26 320.77 70.49
-10 -26 -16 -21 46.8
26 -16 10 52.59 16.6
-16 -10 -26 57.89 11.4
16 10 -26 35.7 30.6
-26 -16 -10 73.49 11
-10 -26 -16 68.29 10.9
26 -16 10 73.29 43.7
26 -16 -10 55.69 22.1
10 -26 -16 62.39 13.3
-26 -18 -10 -7.5 7.5
-10 -26 -18 -14 49.1
26 -18 10 11.7 14.1
26 -18 10 -8 44.9
-10 -26 -18 16 8
18 10 -26 35.5 29.3
-18 -10 -26 8.7 8.4
10 -26 -18 -7 9.7
26 -18 -10 1.5 19.2
12 -26 0 400.46 62.59
-26 0 -12 408.86 39.7
26 0 -12 421.86 49.5
12 -26 0 420.26 42
0 -12 -26 396.76 92.19
12 -26 2 328.77 37.2
-26 -2 -12 387.16 35
12 -26 2 243.48 57.39
26 2 -12 413.86 46
-2 -12 -26 331.87 88.89
-26 2 -12 321.87 35.5
12 -26 -2 402.36 56.69
26 -2 -12 350.26 45.5
2 -12 -26 352.46 83.59
12 -26 -2 370.06 37.3
-12 -26 -4 154.08 19.7
26 4 -12 155.68 31.5
-26 -4 -12 179.48 21.4
12 -26 4 99.49 49.4
12 -26 4 206.58 23.5
-4 -12 -26 168.08 87.79
12 -26 -4 163.28 22.4
12 -26 -4 209.38 43.2
26 -4 -12 192.08 30.8
4 -12 -26 169.68 71.69
-26 4 -12 202.68 22
-12 -26 -6 71.69 11.9
26 6 -12 60.09 25.3
12 -26 6 -29.4 47.2
12 -26 6 59.79 16.6
-26 -6 -12 58.79 11.6
-6 -12 -26 74.89 85.69
12 -26 -6 73.09 35.5
26 -6 -12 54.39 24.3
-26 6 -12 72.69 15.3
6 -12 -26 17.5 62.29
12 -26 -6 61.09 14.5
-8 -12 -26 104.79 15.5
26 8 -12 57.19 29.1
12 -26 8 94.09 18.7
-8 -12 -26 57.39 95.69
-12 -26 -8 97.29 14
12 -26 8 28 53.69
-26 -8 -12 145.59 15.2
12 -26 -8 125.99 17.6
26 -8 -12 87.19 26.7
-26 8 -12 116.49 18.6
8 -12 -26 80.69 61.99
12 -26 -8 148.89 39.1
12 -26 10 180.08 66.29
-12 -26 -10 315.77 33.2
-10 -12 -26 315.27 34.2
-12 -26 -10 242.08 76.29
-10 -12 -26 538.85 106.49
-26 -10 -12 344.87 33.6
12 -26 10 367.26 38
12 -26 -10 387.46 53.59
12 -26 -10 373.86 36.4
26 -10 -12 387.96 47.9
-26 10 -12 378.26 38.1
10 -12 -26 549.25 74.69
-12 -12 -26 551.94 52.19
12 -26 12 569.94 55.19
-26 -12 -12 560.54 51.59
26 -12 12 512.65 55.19
-12 -26 -12 519.95 86.69
-12 -26 -12 584.34 51.49
-12 -12 -26 456.25 117.49
26 -12 -12 620.74 64.49
12 -26 -12 632.04 72.99
12 -26 -12 562.64 53.29
12 -12 -26 844.72 87.39
-26 12 -12 538.85 54.79
-26 -14 -12 442.96 42.3
-12 -26 -14 505.35 42.4
-12 -26 -14 482.45 80.59
12 -26 14 448.66 46.8
-14 -12 -26 458.45 43.2
26 -14 12 450.05 46.3
12 -26 -14 475.85 44.5
26 -14 -12 408.36 52.69
-26 14 -12 442.46 46
-12 -26 -16 237.48 61.69
26 -16 12 146.19 22.1
-12 -26 -16 168.68 18.4
-26 -16 -12 160.58 18.6
-16 -12 -26 195.58 19.6
16 12 -26 118.59 37.4
-26 16 -12 156.08 21.7
12 -26 -16 169.78 20.3
26 -16 -12 104.29 25.3
-12 -26 -18 27.4 8.3
-26 -18 -12 27.9 8.5
-18 -12 -26 43.3 9.3
26 -18 12 25.4 14.3
14 -26 0 297.77 33.8
14 -26 0 316.77 53.69
26 0 -14 353.86 40.9
-26 0 -14 309.37 31.9
0 -14 -26 405.46 82.99
-2 -14 -26 204.38 80.59
26 2 -14 205.88 34.7
14 -26 2 272.37 28.8
14 -26 2 201.48 49.4
-26 -2 -14 207.38 25.1
26 -2 -14 253.67 34.2
14 -26 -2 205.48 26.4
14 -26 -2 220.18 45.9
2 -14 -26 145.79 72.39
-26 2 -14 294.67 26.4
14 -26 4 71.69 44
-26 -4 -14 82.99 13.1
-4 -14 -26 118.69 78.49
-14 -26 -4 110.99 18.8
26 4 -14 77.69 25.6
14 -26 4 79.39 17.3
14 -26 -4 88.29 16.2
14 -26 -4 77.29 35
26 -4 -14 97.59 24.5
-26 4 -14 100.79 15.1
4 -14 -26 67.49 60.79
-6 -14 -26 97.19 77.19
26 6 -14 50.89 24.3
14 -26 6 65.59 45.5
-14 -26 -6 50.59 10.4
14 -26 6 38.1 14.8
-26 -6 -14 30.1 10.1
6 -14 -26 33.3 54.69
14 -26 -6 23.7 30.8
26 -6 -14 56.09 20.6
-26 6 -14 46.1 12.8
14 -26 -6 54.19 14.1
14 -26 8 98.89 17.6
26 8 -14 46.5 25.8
-14 -26 -8 67.79 11.1
14 -26 8 63.99 46.8
-8 -14 -26 53.89 12.2
-26 -8 -14 66.99 11.7
-8 -14 -26 129.29 83.29
14 -26 -8 64.29 15.2
14 -26 -8 112.49 34.4
-26 8 -14 84.69 15.4
8 -14 -26 85.29 53.69
26 -8 -14 84.39 23.3
14 -26 10 302.87 34.7
26 10 -14 298.17 44.3
-10 -14 -26 271.07 31.4
-26 -10 -14 360.56 31.1
-10 -14 -26 264.27 97.39
-14 -26 -10 301.87 30.3
14 -26 10 188.88 61.59
10 -14 -26 484.35 65.99
14 -26 -10 347.97 33.6
-26 10 -14 275.07 33.9
14 -26 -10 354.56 48.7
26 -10 -14 319.57 41
-12 -14 -26 439.56 45.3
14 -26 12 455.85 48.1
-26 -12 -14 470.35 44.7
-12 -14 -26 408.26 105.39
-14 -26 -12 529.75 44.5
14 -26 -12 520.65 46.8
-26 12 -14 489.25 47.7
26 -12 -14 492.25 55.09
-14 -14 -26 313.57 31.3
-26 -14 -14 331.47 30.6
-14 -26 -14 523.45 77.49
-14 -14 -26 65.29 94.89
-14 -26 -14 308.67 30.2
14 -26 14 311.17 35.3
14 -26 -14 323.17 33
26 -14 -14 264.27 37.9
-26 14 -14 326.27 34.7
14 -26 16 81.49 20.3
-26 -16 -14 79.09 12.2
-14 -26 -16 98.09 12.1
-16 -14 -26 95.19 13.2
-14 -26 -16 49.99 58.99
14 -26 -16 88.79 14.9
-26 16 -14 92.59 16.5
26 0 -16 101.09 23.6
16 -26 0 108.09 18.3
16 -26 0 70.19 37.1
0 -16 -26 42.4 65.49
-26 0 -16 116.49 14.9
16 -26 2 77.19 37.3
-2 -16 -26 -1.8 67.29
26 2 -16 44.6 20.6
16 -26 2 45.6 14.6
-26 -2 -16 51.69 11.4
16 -26 -2 66.99 14.5
16 -26 -2 43.9 32.6
-26 2 -16 54.39 11.4
26 -2 -16 80.39 21.2
2 -16 -26 34.6 60.89
-26 -4 -16 5 8.4
-4 -16 -26 41.1 69.69
26 4 -16 -11.6 19.1
16 -26 4 -51.59 35.8
16 -26 4 -3.3 12.6
26 -4 -16 -4.5 18.7
16 -26 -4 5.5 12.4
-26 4 -16 1.4 9.6
4 -16 -26 16.4 54.39
16 -26 -4 -11.3 29.1
16 -26 6 20.9 39.8
26 6 -16 20.3 20.8
-6 -16 -26 15.7 71.09
-16 -26 -6 6.8 7.9
-26 -6 -16 3.5 8.2
-6 -16 -26 3.9 8
16 -26 6 6.9 13.2
16 -26 -6 33.8 27.6
-26 6 -16 -27.3 9.2
16 -26 -6 5.3 12.2
6 -16 -26 -20.4 49.2
26 -6 -16 15.2 18.1
-26 -8 -16 1.3 8.2
16 -26 8 -4.4 13.1
-16 -26 -8 3.1 7.2
-8 -16 -26 -10.5 8.2
-8 -16 -26 -28.8 70.59
16 -26 8 -88.59 39.2
26 8 -16 -18.7 20.4
16 -26 -8 -1.3 11.4
16 -26 -8 -0.8 27.6
-26 8 -16 0.1 10.3
26 -8 -16 2 18.6
8 -16 -26 67.29 46.8
26 10 -16 115.39 27.3
-10 -16 -26 59.29 77.79
16 -26 10 92.39 47.4
-26 -10 -16 58.59 10.9
-10 -16 -26 38.9 11.2
-16 -26 -10 78.89 10.6
16 -26 10 56.49 15.7
26 -10 -16 73.69 23.2
16 -26 -10 46.1 13.9
16 -26 -10 63.19 31.8
-26 10 -16 60.29 13.8
-16 -26 -12 154.28 18.2
16 -26 12 147.39 22.1
-26 -12 -16 207.68 19.4
-12 -16 -26 150.28 18.7
-12 -16 -26 93.59 81.59
16 -26 12 113.59 54.69
16 -26 -12 195.48 21.3
26 -12 -16 144.09 28.3
-26 12 -16 142.49 20.3
16 -26 14 76.99 16.7
-14 -16 -26 97.49 13.6
-26 -14 -16 93.49 12.6
-14 -16 -26 24.7 75.89
-16 -26 -14 84.39 11.8
16 -26 -14 101.39 15.5
-26 14 -16 111.39 15.9
26 0 -18 44.8 19.1
18 -26 0 23.4 13.1
18 -26 0 6.8 31.3
0 -18 -26 42.7 63.49
-26 0 -18 28.9 9.6
18 -26 2 11.8 30.8
18 -26 2 1.2 12.6
26 2 -18 -23 17
-2 -18 -26 40.8 63.79
-26 -2 -18 -2.5 8.5
18 -26 -2 1.4 29.4
26 -2 -18 -4.6 17
-26 2 -18 -9.8 8.2
2 -18 -26 33.4 55.29
18 -26 -2 2.4 12.1
-4 -18 -26 25 65.29
-4 -18 -26 0.5 8.2
-26 -4 -18 3.6 8.6
18 -26 4 21.6 34.8
18 -26 4 -6.2 12.6
26 4 -18 33.1 20.4
4 -18 -26 31.6 52.49
18 -26 -4 11.3 12.1
-26 4 -18 1.7 9
26 -4 -18 -0.7 17.5
18 -26 -4 3.6 28.1
-6 -18 -26 60.09 69.29
-26 -6 -18 61.99 11.2
-6 -18 -26 45.1 10.1
18 -26 6 50.79 39.1
18 -26 6 51.39 15.2
26 6 -18 32.1 21.5
26 -6 -18 62.59 20
6 -18 -26 88.39 48.3
18 -26 -6 65.09 28.6
-26 6 -18 53.49 11.4
18 -26 -6 40.2 13.7
18 -26 8 42.2 14.7
26 8 -18 70.79 23
-26 -8 -18 22 9.4
18 -26 8 -24.3 38.8
-8 -18 -26 -33 68.29
-18 -26 -8 57.69 9.3
-8 -18 -26 22.7 8.9
26 -8 -18 37.9 18.6
-26 8 -18 43.3 10.5
18 -26 -8 6.4 12.6
18 -26 -8 58.19 27.5
-10 -18 -26 6.7 8
-18 -26 -10 7.4 6.8
18 -26 10 -42.4 40.2
18 -26 10 -1.6 13.1
-26 -10 -18 9.2 7.9
26 10 -18 -6.9 21.3
-10 -18 -26 -80.99 67.49
26 -10 -18 -13.2 18.5
18 -26 -10 17.6 11.8
-26 10 -18 1 8.9
-26 -12 -18 30.9 8.6
-12 -18 -26 25.4 8.9
18 -26 12 25.5 14
-18 -26 -12 40.7 8.1
20 -26 0 36.4 13.8
-26 0 -20 61.09 11.2
20 -26 0 7.4 31.2
0 -20 -26 34.7 62.59
26 0 -20 43.1 19.3
-26 -2 -20 27.4 9.8
20 -26 2 17.6 32.3
20 -26 2 28.8 13.6
-2 -20 -26 40.8 63.59
26 2 -20 35.2 19.7
26 -2 -20 0.4 17.7
-26 2 -20 55.89 10.4
20 -26 -2 6 29.4
20 -26 -2 27.1 12.8
2 -20 -26 -13.5 56.79
-26 -4 -20 7.5 8.6
20 -26 4 -33.3 31.6
-4 -20 -26 3.8 63.49
-4 -20 -26 -0.4 8.7
20 -26 4 -9.6 12.8
26 4 -20 11.5 18.8
26 -4 -20 14 17.5
-26 4 -20 -4.4 8.3
20 -26 -4 7.2 12.3
20 -26 -4 -12 26.9
4 -20 -26 26.2 50.09
26 6 -20 16.2 19.8
20 -26 6 2.8 13.1
-6 -20 -26 23.8 9
-26 -6 -20 17.8 8.8
-6 -20 -26 -16.6 65.99
20 -26 6 11.9 35.7
20 -26 -6 27.4 12.1
26 -6 -20 5.9 16.6
-26 6 -20 8.6 8.6
6 -20 -26 18 41.9
20 -26 -6 -6.2 25.7
-20 -26 -8 7.6 7.9
-8 -20 -26 20.2 8
-8 -20 -26 8.2 68.19
-26 -8 -20 11.9 8.5
20 -26 8 -1.9 37.8
20 -26 8 9.4 14
26 8 -20 51.29 22.4
26 -8 -20 16.8 16.8
20 -26 -8 -0.6 24.4
20 -26 -8 3.3 11.5
-26 8 -20 14.2 8.8
-1 -27 -1 719.13 99.89
-1 -27 -1 636.04 60.39
27 1 -1 693.53 82.59
1 1 -27 253.87 114.59
-1 -1 -27 365.16 114.79
27 -1 1 748.93 88.19
1 -27 1 722.03 60.79
1 -27 1 827.92 99.19
1 -27 -1 636.54 60.49
1 -27 -1 728.13 93.19
1 -1 -27 324.97 114.49
-1 -27 1 709.33 60.99
27 -1 -1 703.43 84.19
-1 1 -27 299.87 112.09
-1 -27 1 702.93 96.79
1 -27 3 340.57 32.7
-3 -1 -27 206.08 94.79
3 1 -27 -3.2 92.49
-1 -27 -3 416.36 76.29
27 -3 1 356.36 58.89
1 -27 3 206.08 68.19
-1 -27 -3 289.87 30.9
1 -27 -3 315.07 68.09
-1 -27 3 300.77 31.7
-1 -27 3 209.28 70.19
1 -27 -3 324.07 31.5
27 -3 -1 303.97 53.09
-3 1 -27 86.09 101.59
3 -1 -27 184.08 91.19
27 -5 1 32.5 39.9
1 -27 5 51.59 14.5
-1 -27 -5 -31.1 54.79
-5 -1 -27 33 87.09
5 1 -27 -1.7 83.59
-1 -27 -5 43.5 11
1 -27 5 15.3 62.59
1 -27 -5 48.1 11.4
1 -27 -5 23.8 53.19
27 -5 -1 17.3 37.6
5 -1 -27 -37.7 85.89
-1 -27 -7 111.69 54.79
7 1 -27 -63.29 81.29
27 -7 1 -0.9 13.9
27 -7 1 -40.5 33.4
-1 -27 -7 5.3 9.1
1 -27 -7 19.9 10.1
7 -1 -27 -40.9 76.39
1 -27 -7 -31.6 48.3
27 -7 -1 -24.1 35.1
-27 7 -1 19.3 12.6
27 -9 1 78.99 37
27 -9 1 77.89 16.6
9 1 -27 55.39 86.29
-1 -27 -9 48.9 11.8
-1 -27 -9 10.2 52.29
9 -1 -27 20.4 81.69
1 -27 -9 65.79 12.6
27 -9 -1 51.19 34.5
1 -27 -9 103.19 51.89
-1 -27 -11 226.58 25.4
27 -11 1 201.08 26.9
27 -11 1 266.97 48.7
11 1 -27 165.18 93.29
-1 -27 -11 246.18 61.19
11 -1 -27 25.6 93.49
1 -27 -11 259.37 26
1 -27 -11 151.98 59.59
27 -11 -1 236.98 44.7
27 -11 -1 227.48 27
27 -13 1 233.38 44.5
-1 -27 -13 250.67 25.8
27 -13 1 238.38 28.1
13 1 -27 37.3 88.49
-1 -27 -13 178.28 56.59
1 -27 -13 246.78 26.1
27 -13 -1 231.68 42.5
27 -13 -1 251.87 29.6
13 -1 -27 181.78 89.39
1 -27 -13 194.48 55.09
-1 -27 -15 92.59 14.7
27 -15 1 128.49 18.6
-1 -27 -15 92.09 46.5
27 -15 1 115.29 32.6
-15 -1 -27 93.09 20.2
15 1 -27 36.2 80.89
1 -27 -15 99.79 14.9
27 -15 -1 84.19 31.6
15 -1 -27 22.6 77.69
1 -27 -15 81.89 44.5
27 -15 -1 120.59 18.1
-1 -27 -17 12.7 9.6
27 -17 1 1.2 13.1
-1 -27 -17 5.9 37.8
17 1 -27 -12.2 23.9
27 -17 1 34.1 29.5
-17 -1 -27 5.3 8.9
27 -17 -1 3.7 12.9
1 -27 -17 8.2 9.3
27 -17 -1 6.5 25.6
1 -27 -17 -1.9 38.9
-17 1 -27 6.2 8.9
27 -19 1 -5.3 29
19 1 -27 -5.9 20.9
-1 -27 -19 0.1 43.6
-1 -27 -19 10.9 9.1
27 -19 1 -13.6 12.5
-19 -1 -27 8.2 8.6
1 -27 -19 1.4 9.3
19 -1 -27 -5.1 19.6
-19 1 -27 -8.4 8.2
1 -27 -19 -43.7 40.6
27 -19 -1 18.9 27.8
27 -19 -1 8.5 12.6
-3 -27 -1 287.07 30.8
27 1 -3 315.97 49.3
3 -27 1 304.37 32.2
-3 -27 -1 194.78 77.19
-1 -3 -27 164.18 91.39
1 3 -27 89.69 101.29
3 -27 1 296.77 66.29
1 -3 -27 209.68 92.59
27 -1 -3 296.47 48
3 -27 -1 312.97 31.4
-27 1 -3 330.57 32.1
-3 -27 1 289.97 76.79
3 -27 -1 247.18 65.39
-3 -27 1 307.67 31.5
-1 3 -27 177.98 104.99
-3 -27 -3 104.09 63.49
3 -27 3 54.49 55.49
-3 -27 -3 125.79 16.1
-3 -3 -27 50.69 82.39
27 3 -3 133.99 36.4
3 -27 3 92.89 17.1
3 3 -27 63.79 88.79
27 -3 3 87.69 44.9
3 -27 -3 104.79 16.3
27 -3 -3 138.69 37.7
3 -27 -3 126.39 53.79
-27 3 -3 146.89 17.8
3 -3 -27 33.6 84.49
3 -27 5 9.5 12.2
-3 -27 -5 8.6 9
-3 -27 -5 34.1 56.59
27 -5 3 -42.1 35.3
5 3 -27 84.89 90.69
-5 -3 -27 -60.99 80.59
3 -27 5 -16.8 53.89
3 -27 -5 18.9 10.8
-27 5 -3 0.7 12.2
27 -5 -3 5.6 32.6
5 -3 -27 -131.09 75.09
3 -27 -5 -24.5 45.3
27 -7 3 16.6 35.2
-7 -3 -27 93.59 88.29
-3 -27 -7 41.1 10.2
3 -27 7 22 18.3
7 3 -27 51.19 85.59
-3 -27 -7 26.6 56.09
27 -7 3 5.3 14.4
3 -27 -7 91.29 48.5
7 -3 -27 15.8 74.79
-27 7 -3 20.2 13.1
3 -27 -7 19.9 11
27 -7 -3 30 33
9 3 -27 13.7 87.99
27 -9 3 8.3 14.7
27 -9 3 32.9 37.9
-3 -27 -9 68.79 52.69
-3 -27 -9 18.3 11.1
-27 9 -3 18.9 14.2
3 -27 -9 44.5 12.1
9 -3 -27 107.79 80.69
27 -9 -3 35.4 32.8
3 -27 -9 -2.1 47.8
11 3 -27 -25.3 99.49
27 -11 3 110.49 20.6
-3 -27 -11 131.69 16.3
-3 -27 -11 60.79 54.09
27 -11 3 103.19 42.2
3 -27 -11 115.69 52.39
11 -3 -27 46.1 85.49
3 -27 -11 126.19 16.5
27 -11 -3 136.09 38
27 -13 3 105.49 36.8
13 3 -27 36.5 87.29
-3 -27 -13 19.6 47.6
27 -13 3 110.69 19.3
-3 -27 -13 116.09 15.5
27 -13 -3 101.69 34.6
3 -27 -13 123.39 16
3 -27 -13 107.79 47.5
13 -3 -27 19.3 76.19
-3 -27 -15 5.5 42.8
15 3 -27 119.19 86.89
-15 -3 -27 33.1 10.4
-3 -27 -15 48.1 10.9
27 -15 3 5 30.7
27 -15 3 39.1 14.7
27 -15 -3 19.4 26.3
3 -27 -15 34 41.3
27 -15 -3 27.6 14.1
3 -27 -15 23.2 10.7
15 -3 -27 69.89 72.99
17 3 -27 11 25.7
27 -17 3 -6.3 30.4
-3 -27 -17 8 9.4
-3 -27 -17 11.2 39.6
-17 -3 -27 -6.8 8.2
27 -17 3 20.1 14
3 -27 -17 10.9 9.9
27 -17 -3 -2.9 12.6
27 -17 -3 5.6 24
3 -27 -17 54.19 38.2
-3 -27 -19 1.2 44
27 -19 3 10.8 13.5
-19 -3 -27 13.1 8.6
27 -19 3 -25.1 29.4
19 3 -27 10.1 23.2
-3 -27 -19 21.5 9.2
27 -19 -3 5.3 12.4
19 -3 -27 2.2 18.5
3 -27 -19 16.2 10.3
27 -19 -3 -3.2 26
3 -27 -19 -27 39.6
-19 3 -27 6.6 8.7
-5 -27 -1 168.28 66.69
27 1 -5 66.99 29.4
-5 -27 -1 64.99 12.3
5 -27 1 49.4 49.1
-1 -5 -27 72.49 80.09
-27 -1 -5 59.49 11.5
5 -27 1 51.09 13.7
27 -1 -5 53.69 31
-5 -27 1 64.69 14.7
1 -5 -27 -38.9 74.79
5 -27 -1 54.09 12.8
5 -27 -1 48 48
-27 1 -5 64.99 12.4
-27 -3 -5 -0.5 8.5
27 3 -5 -12.9 26.8
5 -27 3 -7.4 11.6
-5 -27 -3 -6.8 8.9
3 5 -27 18.8 91.29
-5 -27 -3 -83.39 56.99
5 -27 3 -42.9 45.2
-3 -5 -27 98.69 83.59
5 -27 -3 19 10.4
5 -27 -3 -1.7 45.8
-27 3 -5 17.9 11.4
27 -3 -5 32.1 29.7
3 -5 -27 84.49 77.89
5 -27 5 9.5 47.6
-5 -27 -5 24.8 9.9
27 5 -5 15.3 29.8
27 -5 5 -44.4 39
-5 -5 -27 96.69 83.69
5 5 -27 16.4 92.39
-5 -27 -5 -24.5 58.19
5 -27 5 28.2 12.9
-27 -5 -5 35.7 15.1
5 -27 -5 42 11.5
-27 5 -5 25.1 13.4
27 -5 -5 26.1 31.3
5 -5 -27 -47.4 73.69
5 -27 -5 2.7 43.6
-5 -27 -7 127.59 15.8
27 -7 5 96.19 43.8
27 -7 5 141.59 20.5
5 -27 7 32.7 51.79
-5 -27 -7 134.69 65.19
7 5 -27 123.79 101.79
-7 -5 -27 81.79 89.39
5 -27 7 100.89 18.6
-27 7 -5 128.49 19.3
5 -27 -7 67.69 46.8
5 -27 -7 110.29 16.8
27 -7 -5 118.59 35.5
7 -5 -27 155.98 78.39
27 -9 5 3.9 15.1
-5 -27 -9 59.09 56.79
27 -9 5 19.9 39.1
-5 -27 -9 20.1 9.8
-9 -5 -27 -122.09 132.39
9 5 -27 80.79 92.19
5 -27 -9 -2.4 48.2
9 -5 -27 -72.69 75.39
5 -27 -9 21.4 12.5
-27 9 -5 2.6 14.1
27 -9 -5 -39.1 30.9
27 -11 5 11.6 15
-5 -27 -11 0.7 55.29
27 -11 5 59.89 35.8
11 5 -27 -119.49 103.59
-5 -27 -11 2.9 9.3
27 -11 -5 20.5 29.6
5 -27 -11 35.9 11.6
5 -27 -11 -11.6 45.1
11 -5 -27 47.6 74.39
27 -13 5 30.1 33.3
-13 -5 -27 45.1 13.6
-5 -27 -13 23.7 10.2
13 5 -27 132.29 92.99
-5 -27 -13 24.4 46.3
27 -13 5 60.79 16
13 -5 -27 90.39 71.89
5 -27 -13 -24.9 41
27 -13 -5 14.8 28.4
5 -27 -13 35.7 12
-15 -5 -27 -9 8.6
27 -15 5 3.7 14.3
-5 -27 -15 2.5 8.9
-5 -27 -15 -54.49 40.3
27 -15 5 36.6 32.8
5 -27 -15 5.5 10.5
27 -15 -5 -0.2 25.3
5 -27 -15 -27.5 38.7
15 -5 -27 -27 64.59
-5 -27 -17 1.3 41.2
-17 -5 -27 39.2 10.1
27 -17 5 33.4 15.6
27 -17 5 27.8 34.7
17 5 -27 30 28.2
-5 -27 -17 55.09 11.2
5 -27 -17 41.9 37.2
27 -17 -5 4.9 23.7
5 -27 -17 63.09 12.4
19 5 -27 32.5 25
27 -19 5 74.59 36.3
-5 -27 -19 78.49 49.1
27 -19 5 75.09 16
-19 -5 -27 50.29 10.7
-5 -27 -19 67.29 12
27 -19 -5 14.2 25.4
27 -19 -5 72.99 16
-19 5 -27 80.69 11.8
19 -5 -27 42.8 18.9
5 -27 -19 65.29 12.6
5 -27 -19 74.39 41.1
-1 -7 -27 15.7 75.79
7 -27 1 11.7 11.8
7 -27 1 -68.99 41.6
27 1 -7 -46.5 23.4
-27 -1 -7 6.4 8.8
-7 -27 -1 -1.8 9.5
7 -27 -1 -26.7 41.3
-27 1 -7 2.3 9.2
27 -1 -7 -8.6 25.6
1 -7 -27 28.7 71.19
7 -27 -1 10.8 11.4
7 -27 3 22 44.5
-27 -3 -7 37 9.8
-7 -27 -3 34 10.3
7 -27 3 33.9 12.8
-3 -7 -27 -27.4 78.59
-7 -27 -3 -79.19 61.79
27 3 -7 23.1 26.2
3 -7 -27 16.3 72.89
7 -27 -3 57.69 43.8
-27 3 -7 29 12.1
27 -3 -7 10.2 26.3
7 -27 -3 20.3 11.7
5 7 -27 -156.18 96.29
-7 -27 -5 129.49 16
27 5 -7 115.59 31.8
-7 -27 -5 89.59 64.59
7 -27 5 108.89 18.4
-27 -5 -7 129.59 15.3
-5 -7 -27 -34.8 80.99
7 -27 5 -32.8 45.8
5 -7 -27 23.1 74.09
-27 5 -7 142.19 19
27 -5 -7 114.59 32.1
7 -27 -5 117.09 17.1
7 -27 -5 106.89 46.7
-7 -27 -7 222.08 25.2
-7 -27 -7 140.99 68.19
7 7 -27 -16.3 98.59
7 -27 7 41.2 54.99
-27 -7 -7 230.68 24.5
7 -27 7 253.57 28.7
-7 -7 -27 172.68 95.39
7 -27 -7 246.78 26.8
27 -7 -7 222.18 40.7
7 -7 -27 299.07 83.39
-27 7 -7 241.88 27.3
7 -27 -7 279.47 54.59
-9 -7 -27 -130.89 86.99
7 -27 9 87.59 18.1
27 -9 7 76.79 17.6
-7 -27 -9 34.1 59.89
-27 -9 -7 78.79 12.4
-7 -27 -9 70.69 13
9 7 -27 -29.9 94.69
27 -9 7 54.19 41
7 -27 -9 82.79 14.1
9 -7 -27 -56.79 70.39
7 -27 -9 132.99 46.2
27 -9 -7 62.59 32.8
-27 9 -7 76.19 17.1
-27 -11 -7 -7 10
27 -11 7 17.5 14.6
27 -11 7 -11.7 37
11 7 -27 -91.29 98.99
-7 -27 -11 -40 52.69
-7 -27 -11 -10.4 8.6
7 -27 -11 7.1 10.5
-27 11 -7 -7.7 14
11 -7 -27 29.7 67.39
7 -27 -11 39.2 42.4
27 -11 -7 -22 26.7
-7 -27 -13 -74.29 45.1
27 -13 7 13.5 14.4
27 -13 7 -39.7 33.4
13 7 -27 -89.59 86.29
-13 -7 -27 6.2 9
-7 -27 -13 0.3 8.7
13 -7 -27 -9.2 65.09
7 -27 -13 -17.7 40.4
7 -27 -13 -12.5 9.9
27 -13 -7 18.8 25.8
27 -15 7 38.5 36.7
-7 -27 -15 -7.9 8.3
27 -15 7 13.6 14.3
-7 -27 -15 27.3 43.7
-15 -7 -27 18.8 8.9
7 -27 -15 -5.9 9.8
15 -7 -27 -23.4 60.49
7 -27 -15 -46 36.9
27 -15 -7 -27.6 22.8
27 -17 7 87.29 17.3
27 -17 7 46.2 38.2
-7 -27 -17 27 44.5
17 7 -27 77.79 28.6
-7 -27 -17 79.69 12.7
-17 -7 -27 87.29 12.3
7 -27 -17 37.9 34.7
17 -7 -27 65.59 21.1
27 -17 -7 72.29 24.6
7 -27 -17 84.09 13.7
27 -19 7 112.99 42.3
27 -19 7 70.69 16.9
-7 -27 -19 91.19 13.4
-7 -27 -19 66.09 53.19
19 7 -27 65.49 29.6
-19 -7 -27 94.09 12.5
27 -19 -7 53.39 25.4
7 -27 -19 94.69 13.8
19 -7 -27 76.49 18.3
-27 -1 -9 72.59 12.2
27 1 -9 38.9 24.9
9 -27 1 67.59 14.3
9 -27 1 5.6 42.6
-1 -9 -27 82.09 76.19
1 -9 -27 12.7 73.09
27 -1 -9 53.99 25.5
-27 1 -9 49.7 11.8
9 -27 -1 20.7 42.5
9 -27 -1 65.19 16.5
9 -27 3 21.7 41.1
-27 -3 -9 41.7 9.9
-9 -27 -3 34.9 10.4
-3 -9 -27 55.89 79.39
27 3 -9 35.4 25.3
9 -27 3 1.3 12.7
9 -27 -3 26.7 12.7
3 -9 -27 -89.09 70.99
27 -3 -9 7.1 24.8
-27 3 -9 19.8 11.5
9 -27 -3 -27.3 40.5
-9 -27 -5 16.1 9.8
-5 -9 -27 -70.49 78.69
9 -27 5 44.7 14.4
-27 -5 -9 24.8 9.5
-9 -27 -5 60.09 67.49
27 5 -9 62.39 27.9
9 -27 5 -14.3 42.6
5 -9 -27 74.29 72.19
9 -27 -5 78.99 42.8
27 -5 -9 12.7 25.5
9 -27 -5 34.5 13
-27 5 -9 29.4 14
9 -27 7 32 47.7
-9 -27 -7 52.19 63.59
-9 -27 -7 81.39 12.6
-7 -9 -27 19.1 83.99
9 -27 7 69.59 17
27 7 -9 53.99 29.8
-27 -7 -9 68.69 12
9 -27 -7 26.7 42.4
27 -7 -9 69.29 29.4
-27 7 -9 59.79 16.4
7 -9 -27 -31.7 70.09
9 -27 -7 55.99 13.9
-27 -9 -9 -16.5 8.8
-9 -27 -9 23.8 61.29
-9 -9 -27 -29.8 88.49
9 -27 9 11.1 16.2
-9 -27 -9 -0.1 8.5
9 9 -27 -35 104.39
9 -27 9 -96.09 48.1
9 -27 -9 3.8 11
-27 9 -9 10.6 13.9
27 -9 -9 -5 26.6
9 -9 -27 -7.1 64.79
9 -27 -9 -59.29 36.6
-11 -9 -27 20.1 92.29
27 -11 9 92.19 18.6
-9 -27 -11 27.9 57.69
9 -27 11 87.49 18.8
-9 -27 -11 88.09 12.9
11 9 -27 -11.1 101.99
-27 -11 -9 87.99 12.9
-11 -9 -27 101.89 13.9
9 -27 -11 73.59 14.4
9 -27 -11 41.3 43
-27 11 -9 95.09 17.5
27 -11 -9 64.09 31
11 -9 -27 -20.5 64.59
27 -13 9 130.19 20.7
-27 -13 -9 121.09 15.4
-9 -27 -13 50.99 52.29
-13 -9 -27 157.08 16.8
27 -13 9 99.99 45.8
-9 -27 -13 114.49 15.8
13 -9 -27 211.38 66.69
9 -27 -13 61.39 44.8
9 -27 -13 112.39 17.3
27 -13 -9 126.89 30.9
-27 13 -9 153.88 20.1
15 9 -27 32.7 32
-27 -15 -9 32.6 9.2
27 -15 9 26.1 15.2
27 -15 9 21.5 41.4
-15 -9 -27 47.7 10.6
-9 -27 -15 -31.7 44.3
-9 -27 -15 34.8 9.6
9 -27 -15 58.49 37.7
15 -9 -27 -9.8 57.39
-27 15 -9 41 14.9
27 -15 -9 16.1 23.9
9 -27 -15 37.5 11.6
-17 -9 -27 1.4 8.7
-9 -27 -17 22.1 45.1
27 -17 9 -1.1 13.8
27 -17 9 32.2 38.7
-27 -17 -9 12.2 9.7
-9 -27 -17 14 8.5
17 9 -27 -14 27.3
27 -17 -9 2.9 19.7
9 -27 -17 8.5 10.2
17 -9 -27 29.1 14.5
-1 -11 -27 226.98 86.19
11 -27 1 224.28 27.6
11 -27 1 176.78 50.19
-27 -1 -11 250.57 25.4
27 1 -11 245.88 37
11 -27 -1 219.28 26.3
-27 1 -11 230.78 26.1
27 -1 -11 241.58 35.5
1 -11 -27 291.67 81.59
11 -27 -1 229.78 48.6
11 -27 3 149.69 19.2
11 -27 3 46.6 47.4
-11 -27 -3 124.69 15.8
-27 -3 -11 110.59 16
27 3 -11 111.99 32.2
-3 -11 -27 169.98 84.19
11 -27 -3 103.59 41.8
3 -11 -27 91.79 73.19
27 -3 -11 97.69 28
11 -27 -3 123.99 17.9
-27 3 -11 107.89 16.5
11 -27 5 28.6 14.1
27 5 -11 3.6 27.3
-27 -5 -11 11.6 9.3
-11 -27 -5 20.8 10.5
11 -27 5 -63.69 51.19
-5 -11 -27 26 93.69
-27 5 -11 13.6 11.6
5 -11 -27 7.3 67.09
11 -27 -5 10.4 11.9
27 -5 -11 30 23.8
11 -27 -5 48.5 37.7
-7 -11 -27 -61.19 81.59
11 -27 7 -25.3 13.6
-11 -27 -7 5.5 8.8
-27 -7 -11 14.9 8.6
11 -27 7 -19 45.6
27 7 -11 6.7 29.7
11 -27 -7 -28.3 35.4
27 -7 -11 -1.3 23
-27 7 -11 -3.1 12.3
7 -11 -27 39.4 61.69
11 -27 -7 -8.3 11.7
11 -27 9 91.09 18.1
11 -27 9 59.49 51.49
-11 -27 -9 -57.19 59.59
-9 -11 -27 -24.7 84.69
27 9 -11 64.29 39.7
-11 -27 -9 76.49 12.6
-27 -9 -11 77.09 12.6
-27 9 -11 103.49 17.5
9 -11 -27 75.09 61.99
11 -27 -9 77.29 38.5
11 -27 -9 93.09 15.6
27 -9 -11 73.49 28.7
-11 -11 -27 292.57 29.8
-11 -27 -11 154.38 65.19
-11 -11 -27 406.76 105.19
-27 -11 -11 278.57 28.8
-11 -27 -11 263.87 28.8
11 -27 11 278.97 32.3
11 -27 -11 295.17 52.59
-27 11 -11 311.37 33.7
11 -11 -27 392.26 71.09
11 -27 -11 320.37 31.2
27 -11 -11 278.57 42.6
-11 -27 -13 390.36 33.5
27 -13 11 333.77 37.3
-11 -27 -13 244.98 66.59
11 -27 13 312.37 37
-27 -13 -11 310.47 32.6
13 11 -27 315.47 53.89
-13 -11 -27 387.16 33.9
27 -13 -11 307.87 44.6
-27 13 -11 325.67 36.8
13 -11 -27 390.26 71.29
11 -27 -13 371.56 56.59
11 -27 -13 341.77 34.9
-11 -27 -15 181.28 18.9
15 11 -27 139.89 36.7
-15 -11 -27 179.38 19.8
27 -15 11 133.39 21.5
-27 -15 -11 155.28 18.3
-11 -27 -15 138.99 54.29
-27 15 -11 143.39 21
11 -27 -15 134.49 19.3
27 -15 -11 121.29 28.7
-17 -11 -27 31.6 9.4
-11 -27 -17 25.8 8.5
-27 -17 -11 20.3 8.1
-11 -27 -17 53.79 52.09
27 -17 11 -44.4 41.9
27 -17 11 17.8 14.1
17 11 -27 17.4 29.8
-27 17 -11 24.7 13.5
11 -27 -17 5.4 10.5
27 -17 -11 31.9 19.1
-1 -13 -27 310.27 80.49
13 -27 1 224.28 49.9
27 1 -13 269.17 37.8
-27 -1 -13 233.78 26
13 -27 1 259.37 28.6
1 -13 -27 253.67 77.49
13 -27 -1 185.18 46.6
27 -1 -13 248.58 36.3
13 -27 -1 242.68 28.6
-27 1 -13 267.17 26.9
-27 -3 -13 125.99 15.8
13 -27 3 121.49 18.5
13 -27 3 95.89 44.4
27 3 -13 110.19 28.4
-3 -13 -27 4 75.29
13 -27 -3 145.29 38
3 -13 -27 72.39 66.69
27 -3 -13 124.09 26.6
-27 3 -13 118.19 16.2
13 -27 -3 127.49 18.3
27 5 -13 44.1 24.5
13 -27 5 -11.8 40.7
-27 -5 -13 15.2 9.1
-5 -13 -27 -2.6 77.49
-13 -27 -5 42.8 10.2
13 -27 5 36.3 14.1
-27 5 -13 33.6 11.5
27 -5 -13 34.7 22
5 -13 -27 -3.6 57.99
13 -27 -5 21.3 12.4
13 -27 -5 -5.5 32.2
-13 -27 -7 21.9 9.2
13 -27 7 -58.49 42.9
13 -27 7 25.4 14.4
-27 -7 -13 31.3 9.4
-7 -13 -27 -31.1 75.99
27 7 -13 34.4 25
27 -7 -13 39.7 22.5
13 -27 -7 20.1 32.7
-27 7 -13 28.4 12.3
7 -13 -27 54.49 56.49
13 -27 -7 4.2 11.5
-27 -9 -13 128.29 15.6
-9 -13 -27 108.79 88.99
-13 -27 -9 110.39 15.4
-9 -13 -27 109.99 16
13 -27 9 48.9 51.39
27 9 -13 101.09 31.6
13 -27 9 112.79 19.9
-27 9 -13 142.19 19.1
27 -9 -13 133.69 29.9
13 -27 -9 100.29 38.2
13 -27 -9 173.18 19
9 -13 -27 162.78 57.19
-11 -13 -27 312.27 101.39
-13 -27 -11 307.17 32.8
-11 -13 -27 342.27 33.7
13 -27 11 276.17 65.29
13 -27 11 338.57 36.9
-27 -11 -13 387.16 33.3
13 -27 -11 350.26 35.2
27 -11 -13 329.27 45
-27 11 -13 301.67 36.4
13 -27 -11 358.66 52.79
11 -13 -27 457.25 67.49
13 -27 13 350.06 39.2
-13 -13 -27 356.96 35.8
-13 -27 -13 411.26 35.3
-27 -13 -13 367.06 34.9
-13 -27 -13 365.06 74.39
-13 -13 -27 256.17 97.99
13 -27 -13 358.96 37
27 -13 -13 338.37 45.4
-27 13 -13 379.66 38.6
-13 -27 -15 221.38 20
-13 -27 -15 246.58 62.19
13 -27 15 127.19 27.9
-27 -15 -13 155.58 19.3
-15 -13 -27 186.68 20.4
13 -27 -15 163.08 20.5
27 -15 -13 119.99 25.7
-27 15 -13 184.58 22.4
-1 -15 -27 104.69 70.79
-27 -1 -15 105.39 14.7
15 -27 1 77.09 38.5
15 -27 1 89.79 17
27 1 -15 97.79 25
1 -15 -27 113.29 65.89
27 -1 -15 96.59 25.5
15 -27 -1 112.19 17.2
-27 1 -15 98.09 14.3
15 -27 -1 93.09 37.7
27 3 -15 17.6 20.6
15 -27 3 78.39 39.7
-27 -3 -15 27.4 9.3
-3 -15 -27 99.79 72.79
15 -27 3 28.2 13.5
27 -3 -15 30.1 20.5
-27 3 -15 8.1 9.8
15 -27 -3 24.4 12.6
3 -15 -27 132.79 60.69
15 -27 -3 56.59 32.9
15 -27 5 -0.3 12.9
-15 -27 -5 7.2 9.2
27 5 -15 9.7 21.1
-27 -5 -15 -9.3 8.2
-5 -15 -27 18.8 74.19
15 -27 5 -23.8 37.4
15 -27 -5 -7.7 28.1
15 -27 -5 -11 11.1
5 -15 -27 -9.2 52.59
-27 5 -15 -8.9 9.1
27 -5 -15 -11.1 18.6
15 -27 7 11.9 13.5
-15 -27 -7 3.7 8.2
27 7 -15 21.2 22.2
-7 -15 -27 17.1 74.69
-7 -15 -27 10.7 9.2
-27 -7 -15 0.8 8.1
15 -27 7 -12.7 41.5
15 -27 -7 -16.8 29.6
-27 7 -15 20.8 10.4
7 -15 -27 33.7 49.8
27 -7 -15 -10.6 19.8
15 -27 -7 10.3 12
15 -27 9 -10.1 42.8
15 -27 9 25.7 14.2
-9 -15 -27 11.3 77.89
-15 -27 -9 41.8 9.6
-9 -15 -27 33.2 10.1
27 9 -15 38.2 24.6
-27 -9 -15 45.8 10.1
15 -27 -9 32.6 32.9
27 -9 -15 40.5 23.7
-27 9 -15 39.8 12.3
15 -27 -9 28.8 12.9
9 -15 -27 51.09 48
-11 -15 -27 102.09 17.8
-15 -27 -11 188.68 18.7
-11 -15 -27 46.2 81.69
15 -27 11 68.99 50.29
15 -27 11 143.79 21.6
-27 -11 -15 210.68 18.9
27 -11 -15 155.28 30.3
15 -27 -11 230.18 39.7
-27 11 -15 125.99 19.9
15 -27 -11 182.58 20.8
-13 -15 -27 186.78 21.4
15 -27 13 159.18 23.3
-13 -15 -27 133.59 82.79
-27 -13 -15 222.48 20.4
-15 -27 -13 183.88 20.3
-27 13 -15 151.88 22.1
27 -13 -15 209.38 28.9
15 -27 -13 179.98 21.9
17 -27 1 5.1 33.7
27 1 -17 -11.9 18
-27 -1 -17 0.4 8.4
-1 -17 -27 28.5 62.99
17 -27 1 15.1 12.6
27 -1 -17 17.2 19.2
-27 1 -17 8.8 9.2
17 -27 -1 -2.3 12.1
17 -27 -1 -29.8 31.4
1 -17 -27 5 60.79
17 -27 3 -6.8 12.7
27 3 -17 20.7 19.7
-27 -3 -17 -2 8.5
17 -27 3 -0.7 33.5
-3 -17 -27 -15.1 65.59
3 -17 -27 -2.8 52.29
-27 3 -17 -6.7 8.4
17 -27 -3 -26.9 29
27 -3 -17 1.2 19.4
17 -27 -3 -7.2 12.1
27 5 -17 66.49 23.2
-5 -17 -27 32.8 69.69
17 -27 5 67.19 39.6
-27 -5 -17 40.8 10.6
17 -27 5 44.9 14.4
5 -17 -27 -16.4 50.19
27 -5 -17 55.49 20.7
17 -27 -5 79.19 29.6
-27 5 -17 28 11.2
17 -27 -5 52.79 13.7
27 7 -17 56.89 23.9
17 -27 7 49.1 41.7
-17 -27 -7 87.49 12
-7 -17 -27 1.2 72.59
17 -27 7 66.39 16
-27 -7 -17 69.49 11.8
-7 -17 -27 71.79 11.8
7 -17 -27 91.49 48.7
27 -7 -17 63.29 22.1
-27 7 -17 87.49 13.3
17 -27 -7 78.19 30.5
17 -27 -7 57.99 14.8
17 -27 9 9.2 42.2
-9 -17 -27 97.49 72.79
27 9 -17 14.3 22
-17 -27 -9 15.1 8.3
17 -27 9 -6.2 12.6
-27 -9 -17 12.7 8.4
-9 -17 -27 17.6 8.3
17 -27 -9 -0.4 28.7
27 -9 -17 -7.2 20.6
-27 9 -17 -2.1 9.4
17 -27 -9 17 11.8
17 -27 11 -19.8 41.7
17 -27 11 11.4 13.6
27 11 -17 24 23.4
-11 -17 -27 108.09 76.69
-11 -17 -27 16.9 8.3
-27 -11 -17 19.4 8.3
-17 -27 -11 27.3 8
-27 11 -17 -8 9.3
27 -11 -17 -3.2 20.2
17 -27 -11 10.2 11.4
-1 -19 -27 25.4 61.89
19 -27 1 2.3 12.8
19 -27 1 -7.5 31.8
-27 -1 -19 1.7 8.5
27 1 -19 14.7 18.5
27 -1 -19 -9.7 17.2
19 -27 -1 2.1 31
1 -19 -27 -104.59 55.19
-27 1 -19 3.4 8.5
19 -27 -1 -0.1 12.2
-3 -19 -27 25.4 67.29
27 3 -19 8.9 18.7
-27 -3 -19 -7.1 8.5
19 -27 3 23.3 13.4
19 -27 3 -7.8 33
19 -27 -3 16.2 12.1
19 -27 -3 -31.2 27.8
27 -3 -19 6.6 19
3 -19 -27 14.4 51.19
-27 3 -19 10.5 9.2
-27 -5 -19 68.39 11.5
-5 -19 -27 30.7 70.89
27 5 -19 84.09 23.6
19 -27 5 16.4 36.3
19 -27 5 75.49 15.7
-5 -19 -27 58.29 11.5
19 -27 -5 58.09 14.3
19 -27 -5 86.99 29
5 -19 -27 36.8 46.2
-27 5 -19 61.59 11.6
27 -5 -19 65.69 20.1
27 7 -19 103.59 25.5
19 -27 7 94.99 17.2
19 -27 7 77.59 41
-27 -7 -19 94.19 13
-7 -19 -27 89.59 12.6
-7 -19 -27 58.59 72.49
-27 7 -19 70.99 12.8
19 -27 -7 98.79 29
19 -27 -7 96.89 15.6
27 -7 -19 75.39 21.8
0 -28 0 524.05 84.49
0 -28 0 517.45 47.1
0 0 -28 205.98 99.09
28 0 0 494.35 68.99
2 0 -28 106.29 90.99
-2 0 -28 70.79 93.89
0 -28 -2 289.37 74.19
0 -28 -2 306.87 32.8
0 -28 2 252.87 72.19
0 -28 2 373.46 33.2
28 -2 0 307.87 57.99
0 -28 4 24.5 12.7
0 -28 -4 30.6 11.2
4 0 -28 5 78.79
28 -4 0 18.2 39.6
0 -28 4 10.7 58.09
-4 0 -28 6.7 88.69
0 -28 -4 64.99 58.49
6 0 -28 22.6 85.49
0 -28 -6 18.1 10.6
0 -28 -6 -34.9 51.89
28 -6 0 20.6 36.1
0 -28 -8 21.1 53.69
0 -28 -8 15.3 10.1
8 0 -28 66.69 92.89
28 -8 0 5.9 34.6
-28 8 0 7.4 17.7
28 -10 0 87.29 38.4
0 -28 -10 76.09 52.99
0 -28 -10 84.09 13.8
10 0 -28 51.39 85.99
28 -10 0 81.79 17.6
12 0 -28 27.5 84.09
28 -12 0 157.18 37.8
28 -12 0 129.79 19.4
0 -28 -12 123.09 16.4
0 -28 -12 69.79 49.9
14 0 -28 37.5 78.59
28 -14 0 68.39 16.1
0 -28 -14 76.79 13.1
0 -28 -14 138.29 48.2
28 -14 0 71.19 30.4
28 -16 0 12 26
0 -28 -16 -9 8.7
28 -16 0 8.3 13
0 -28 -16 18.1 41
18 0 -28 -13.8 21.2
-18 0 -28 -3.5 8.2
28 -18 0 5.3 12.5
0 -28 -18 -13.4 8.8
0 -28 -18 18.8 39.9
28 -18 0 -26 26.5
0 -2 -28 180.38 93.69
2 -28 0 304.17 66.69
0 2 -28 74.39 98.29
2 -28 0 366.06 32
-2 -28 0 160.18 72.59
-2 -28 0 290.17 31.6
28 0 -2 232.28 50.99
-2 -28 -2 53.09 67.19
28 2 -2 140.09 41.2
2 2 -28 65.89 88.99
28 -2 2 114.99 50.09
2 -28 2 71.19 57.09
-2 -28 -2 140.39 18.5
2 -28 2 151.58 19.3
-2 -2 -28 191.38 90.89
2 -28 -2 291.17 62.49
2 -28 -2 128.89 17.9
-2 2 -28 -52.49 91.09
28 -2 -2 74.09 40.2
-2 -28 2 184.48 68.59
-2 -28 2 161.08 18.8
2 -2 -28 44.6 87.19
2 -28 4 0.5 12.4
2 -28 4 -40.9 53.89
-2 -28 -4 17.7 9.8
28 -4 2 -40.7 37.3
-2 -28 -4 -62.79 56.79
-4 -2 -28 43.3 83.29
4 2 -28 -58.99 87.09
2 -28 -4 -24.1 49.8
4 -2 -28 34.7 78.39
2 -28 -4 29.8 11.3
28 -4 -2 31.7 36.9
-28 4 -2 10.9 13.3
-2 -28 -6 25.1 11
-2 -28 -6 105.19 57.99
2 -28 6 72.19 17.1
2 -28 6 50.09 90.29
28 -6 2 57.89 38
6 2 -28 -31.7 88.99
-6 -2 -28 -130.79 84.19
2 -28 -6 78.89 53.89
-28 6 -2 39.5 13.8
28 -6 -2 48.3 37.5
6 -2 -28 3.5 77.79
2 -28 -6 58.19 13.4
28 -8 2 7.4 14.2
-2 -28 -8 0.7 9.2
8 2 -28 -2.7 89.89
28 -8 2 30.5 36.7
-2 -28 -8 47.1 56.59
2 -28 -8 -29.9 50.99
-28 8 -2 9.9 13
28 -8 -2 0.7 33.5
2 -28 -8 36.4 11.4
8 -2 -28 -141.59 78.79
28 -10 2 14.2 15.6
-2 -28 -10 63.69 50.59
-2 -28 -10 45 10.8
28 -10 2 8.1 35.8
10 2 -28 42.2 87.39
28 -10 -2 63.49 32.1
2 -28 -10 35.9 11.2
-28 10 -2 26.4 15.3
2 -28 -10 -1.3 47.4
10 -2 -28 39.8 81.29
-2 -28 -12 61.29 49.9
28 -12 2 81.39 16.9
28 -12 2 28.9 33.9
12 2 -28 69.79 90.59
-2 -28 -12 94.09 13.7
2 -28 -12 90.49 14
2 -28 -12 27.5 46.4
12 -2 -28 18.4 81.69
28 -12 -2 71.79 34.2
28 -14 2 28.9 14.5
14 2 -28 61.79 85.29
-2 -28 -14 12.9 41.8
28 -14 2 56.59 29.4
-2 -28 -14 39 11
2 -28 -14 28.4 42.6
28 -14 -2 18.6 28.6
28 -14 -2 38 14.5
14 -2 -28 -18.1 73.79
2 -28 -14 44.3 11.2
-2 -28 -16 -19.4 39.4
28 -16 2 -6.7 28.3
-16 -2 -28 -0.9 9.1
28 -16 2 0.9 13.3
-2 -28 -16 -16 8.5
2 -28 -16 -48 38.4
28 -16 -2 14.1 13
28 -16 -2 48.8 25.8
2 -28 -16 -11.8 8.9
28 -18 2 8.9 13
-2 -28 -18 6.5 8.8
-18 -2 -28 7.9 8.4
-2 -28 -18 -39 40.3
28 -18 2 6.6 29.6
18 2 -28 -25.8 20.9
28 -18 -2 43.9 27.5
28 -18 -2 11.8 12.2
18 -2 -28 14.9 20.4
2 -28 -18 -27.7 37.5
2 -28 -18 11.5 10
-18 2 -28 26.4 13
0 -4 -28 10.3 81.59
28 0 -4 57.39 31.8
-28 0 -4 24.2 9.9
4 -28 0 48.2 12.2
-4 -28 0 1.2 61.89
0 4 -28 -67.09 101.89
-4 -28 0 27.6 11.7
4 -28 0 54.19 50.39
4 -28 2 8.2 12
-4 -28 -2 2.1 61.29
2 4 -28 11.7 89.59
-4 -28 -2 6.5 10.2
-2 -4 -28 45.5 79.99
28 2 -4 -66.49 29.5
4 -28 2 -81.39 49.4
2 -4 -28 13.7 77.59
-28 2 -4 31.8 10.4
4 -28 -2 -45.7 45.6
28 -2 -4 -28.2 31
4 -28 -2 10.8 10.7
-4 -28 -4 28.2 9.9
4 -28 4 27.7 12.8
28 4 -4 18.3 32.2
-4 -4 -28 -64.29 79.09
4 -28 4 39.5 53.69
-4 -28 -4 26.9 58.49
4 4 -28 -57.49 87.79
28 -4 4 7.2 40.2
28 -4 -4 -0.3 32.7
4 -4 -28 53.59 79.39
-28 4 -4 4 11.8
4 -28 -4 28 11.3
4 -28 -4 -90.69 44.7
-4 -28 -6 179.38 19.8
28 -6 4 141.39 47.8
4 -28 6 156.18 21.7
4 -28 6 48.5 59.49
-6 -4 -28 40.5 90.39
6 4 -28 96.29 94.69
-4 -28 -6 68.99 66.99
6 -4 -28 62.89 81.79
28 -6 -4 161.88 42.3
4 -28 -6 175.68 21.1
4 -28 -6 139.59 54.79
-28 6 -4 192.98 22.2
-4 -28 -8 131.59 63.99
28 -8 4 178.78 46.4
-8 -4 -28 13.4 91.99
8 4 -28 20.4 95.49
-4 -28 -8 103.09 14.8
-28 8 -4 104.09 18.9
4 -28 -8 55.99 53.09
4 -28 -8 113.49 15.8
28 -8 -4 3.1 35.7
8 -4 -28 73.69 82.49
28 -10 4 29 15
28 -10 4 5.7 39.7
-4 -28 -10 -2.4 8.9
-4 -28 -10 36.5 52.09
10 4 -28 106.99 96.59
-28 10 -4 -3.9 13.6
4 -28 -10 15.9 45
4 -28 -10 28.5 11.4
10 -4 -28 -47.1 72.29
28 -10 -4 10.2 30.7
28 -12 4 14.2 33.4
28 -12 4 8.9 13.9
12 4 -28 -40.5 86.29
-4 -28 -12 0.5 9
-4 -28 -12 -19.3 46.8
4 -28 -12 -10.2 42.3
4 -28 -12 15.3 10.9
12 -4 -28 -119.49 70.29
28 -12 -4 2 28.8
14 4 -28 -36.7 83.39
28 -14 4 0.2 13.7
-4 -28 -14 -1.6 8.9
-4 -28 -14 -19.6 42.1
28 -14 4 6.1 29.9
28 -14 -4 -15 26.2
14 -4 -28 -24.4 67.89
4 -28 -14 -11.7 40.8
4 -28 -14 -10.7 9.9
28 -16 4 33.3 33.1
28 -16 4 19.6 14.5
-4 -28 -16 31.4 10.5
-16 -4 -28 43.5 10.3
-4 -28 -16 5.4 39.2
4 -28 -16 63.29 12.2
28 -16 -4 59.09 25.5
4 -28 -16 -6 39.3
-4 -28 -18 92.69 13.3
28 -18 4 76.49 35.5
-18 -4 -28 79.39 12.4
-4 -28 -18 71.39 45.3
28 -18 4 64.79 16.7
18 4 -28 61.39 26.8
4 -28 -18 78.19 14
28 -18 -4 95.89 20.4
4 -28 -18 77.29 40.4
28 -18 -4 108.79 29.8
18 -4 -28 99.59 22.3
-28 0 -6 25.8 9.6
0 -6 -28 -26.8 76.39
6 -28 0 14.5 12
28 0 -6 8.4 28.5
-6 -28 0 6.6 10.4
6 -28 0 -0.2 45.4
28 2 -6 -3.5 28.9
-6 -28 -2 66.09 63.89
6 -28 2 53.19 13.9
6 -28 2 0.1 47.6
-6 -28 -2 52.69 11.3
-2 -6 -28 62.09 76.89
-28 -2 -6 32.7 10.1
2 -6 -28 54.79 77.49
6 -28 -2 22.6 12.6
28 -2 -6 51.49 30.6
-28 2 -6 35.6 11.1
6 -28 -2 28.5 47.2
-6 -28 -4 98.29 70.79
6 -28 4 78.09 54.19
-4 -6 -28 69.39 87.39
28 4 -6 200.28 38.5
6 -28 4 139.49 21.9
-6 -28 -4 193.58 21.9
4 6 -28 -44.7 96.79
-28 -4 -6 219.08 21.3
-28 4 -6 159.88 21.7
6 -28 -4 191.88 21.9
28 -4 -6 151.58 38.8
6 -28 -4 181.98 54.09
4 -6 -28 164.18 80.79
-6 -28 -6 402.56 81.79
-6 -6 -28 140.59 94.99
-6 -28 -6 415.66 37.3
6 -28 6 281.47 67.99
6 6 -28 305.57 111.19
28 6 -6 433.06 64.39
-28 -6 -6 361.56 36.2
6 -28 6 410.46 39.8
6 -6 -28 201.18 92.89
6 -28 -6 427.46 66.79
6 -28 -6 356.46 37
28 -6 -6 331.97 53.69
-28 6 -6 414.76 40
6 -28 8 284.97 30.3
28 -8 6 207.48 53.69
6 -28 8 82.99 61.39
8 6 -28 10.9 110.49
-6 -28 -8 130.49 73.89
-6 -28 -8 240.18 25.5
-8 -6 -28 163.58 95.59
6 -28 -8 220.18 26.5
28 -8 -6 268.57 46.6
8 -6 -28 147.09 80.59
6 -28 -8 226.38 54.89
-28 8 -6 250.97 27.8
10 6 -28 -25.1 96.59
-6 -28 -10 32 10.4
28 -10 6 49.5 15.6
28 -10 6 52.09 38.5
-6 -28 -10 0 54.49
10 -6 -28 -84.49 69.29
-28 10 -6 32.7 14.7
6 -28 -10 25.3 45.6
6 -28 -10 42.9 11.9
28 -10 -6 59.49 31.1
-6 -28 -12 -17.2 47.1
-6 -28 -12 -23.3 8.3
28 -12 6 47.6 34.3
28 -12 6 21.3 14.4
12 6 -28 63.09 97.49
6 -28 -12 -41.3 42
6 -28 -12 13.5 10.6
28 -12 -6 -25 26.3
12 -6 -28 -78.29 65.09
-28 12 -6 1.4 14.1
-6 -28 -14 -3.4 8.5
28 -14 6 -25.7 32.5
-6 -28 -14 -58.29 42.5
28 -14 6 32.8 14.9
-14 -6 -28 17.9 9.3
6 -28 -14 27.1 40.4
28 -14 -6 34.5 25.5
14 -6 -28 29.5 64.79
6 -28 -14 25.3 10.5
-6 -28 -16 77.69 12.9
-6 -28 -16 129.29 46.1
28 -16 6 91.59 17.7
28 -16 6 70.49 37.7
-16 -6 -28 82.99 12.7
16 6 -28 113.49 33.9
6 -28 -16 91.99 14.1
28 -16 -6 37.4 24.9
6 -28 -16 26.5 38.7
28 -18 6 127.99 21.4
-18 -6 -28 154.28 18.9
-6 -28 -18 185.68 20.4
6 -28 -18 190.98 20.5
8 -28 0 -17 11.9
8 -28 0 -54.79 42.7
0 -8 -28 19.6 77.19
28 0 -8 -6.9 25.9
-28 0 -8 -13.8 9.2
-28 -2 -8 18.7 9.7
8 -28 2 30.5 44.4
-8 -28 -2 10.8 10
28 2 -8 -33.8 25.7
8 -28 2 4.3 13.2
-2 -8 -28 -50.69 78.09
-28 2 -8 17 10.8
28 -2 -8 4.3 27.9
8 -28 -2 18.7 12.3
8 -28 -2 -72.49 42.6
2 -8 -28 -61.19 74.19
-8 -28 -4 84.49 14.9
8 -28 4 102.39 17.9
-4 -8 -28 185.28 88.89
-8 -28 -4 194.08 72.99
28 4 -8 104.99 32.2
-28 -4 -8 87.39 14.5
8 -28 4 75.39 51.99
28 -4 -8 100.99 32.3
-28 4 -8 121.99 17
8 -28 -4 40.4 45.7
4 -8 -28 105.99 76.69
8 -28 -4 113.79 16.6
-6 -8 -28 219.48 101.29
28 6 -8 240.38 42
-8 -28 -6 222.28 26.9
-8 -28 -6 238.18 74.19
-28 -6 -8 294.67 27.1
6 8 -28 96.39 164.08
8 -28 6 234.88 28.7
8 -28 6 237.78 62.49
6 -8 -28 205.28 79.19
8 -28 -6 289.37 52.59
-28 6 -8 248.48 29.9
8 -28 -6 251.37 28.1
28 -6 -8 258.47 43.1
8 -28 8 146.19 20.9
-28 -8 -8 134.69 16.2
-8 -28 -8 120.49 16.5
8 -28 8 57.39 56.79
8 8 -28 148.79 111.19
-8 -8 -28 43.6 90.69
-8 -28 -8 46.3 65.29
8 -8 -28 65.29 70.99
28 -8 -8 136.59 35.4
8 -28 -8 143.09 18
-28 8 -8 114.59 19.4
8 -28 -8 117.69 44.2
-10 -8 -28 72.29 84.49
-28 -10 -8 -5.2 8.3
28 -10 8 -10.5 37.1
10 8 -28 -138.59 96.79
8 -28 10 13.1 15.3
-8 -28 -10 -0.9 9
-8 -28 -10 37.7 54.49
-28 10 -8 15.6 14
8 -28 -10 14.3 11
28 -10 -8 -5.1 28.7
8 -28 -10 -23.2 40.8
10 -8 -28 56.89 66.29
-8 -28 -12 2.1 9.1
28 -12 8 -3.4 37.8
-8 -28 -12 -53.59 48.7
12 8 -28 46.6 96.39
-28 -12 -8 -0.4 8.5
28 -12 8 1 14.4
8 -28 -12 21.3 40.8
-28 12 -8 2.7 13.3
28 -12 -8 9.2 25.4
8 -28 -12 18.5 10.9
12 -8 -28 22.4 64.29
-8 -28 -14 10 8.8
-8 -28 -14 25.6 44.4
28 -14 8 2.7 37.4
28 -14 8 0.8 13.9
-14 -8 -28 15.5 9.4
28 -14 -8 5.4 24.6
14 -8 -28 26.3 59.39
8 -28 -14 20.4 38.1
-28 14 -8 6.8 13.6
8 -28 -14 -5.9 10.2
16 8 -28 14.4 28.8
-8 -28 -16 46.6 10.4
28 -16 8 25.3 14.5
-16 -8 -28 52.49 10.6
-8 -28 -16 -44.9 42.3
28 -16 8 23.4 37.4
28 -16 -8 23.1 22
8 -28 -16 48 11.4
8 -28 -16 1.2 32.3
-28 16 -8 46.5 14.5
-28 0 -10 82.39 13.1
10 -28 0 54.69 14.7
0 -10 -28 86.29 75.09
28 0 -10 91.29 27.6
10 -28 0 85.89 43
-2 -10 -28 153.48 76.49
10 -28 2 21.2 12.9
28 2 -10 44.3 26.7
-10 -28 -2 43.6 15.2
-28 -2 -10 39.4 10.4
10 -28 2 45.1 42.4
2 -10 -28 -35.3 68.59
28 -2 -10 41.3 25.6
10 -28 -2 29.8 39.1
10 -28 -2 28.8 12.6
-28 2 -10 27.6 10.5
10 -28 4 -8.7 43.4
-4 -10 -28 -50.19 76.79
28 4 -10 4.6 25.8
-28 -4 -10 -9.4 8.5
10 -28 4 16.5 13.2
-10 -28 -4 7 10.2
10 -28 -4 1.7 12
28 -4 -10 39.9 25.7
4 -10 -28 30.4 67.89
10 -28 -4 -21.2 38.1
-28 4 -10 8.2 10.5
10 -28 6 63.19 16
-10 -28 -6 56.09 83.49
10 -28 6 -11.9 45.4
-10 -28 -6 45.1 10.4
28 6 -10 40 27.9
-6 -10 -28 60.19 85.19
-28 -6 -10 28.1 9.9
-28 6 -10 46.7 13.4
6 -10 -28 24.7 62.79
10 -28 -6 40.1 13.4
28 -6 -10 55.19 27.5
10 -28 -6 32.2 39
10 -28 8 36.8 15.5
-10 -28 -8 0.2 9
-8 -10 -28 -56.19 83.19
10 -28 8 53.49 48.8
-10 -28 -8 1.3 57.19
-28 -8 -10 4.1 8.4
28 8 -10 -20.4 26.4
10 -28 -8 28.5 12.1
8 -10 -28 -24.9 60.59
-28 8 -10 9.4 13.1
28 -8 -10 17.4 27
10 -28 -8 23.6 38.1
-10 -10 -28 75.69 88.59
-10 -28 -10 -24.6 52.89
-28 -10 -10 43.7 10.3
10 -28 10 23.6 16.3
-10 -28 -10 60.09 11.2
10 -28 10 10.1 50.09
10 -28 -10 57.19 40.3
28 -10 -10 64.69 29.8
10 -28 -10 56.49 13.6
-28 10 -10 63.39 15.3
10 -10 -28 149.39 62.59
-10 -28 -12 129.19 15.9
-12 -10 -28 142.79 92.89
-28 -12 -10 116.39 15.3
10 -28 12 114.49 20.2
-10 -28 -12 13.2 53.19
-12 -10 -28 145.49 16.5
28 -12 -10 124.49 31.3
-28 12 -10 133.09 19.8
10 -28 -12 145.79 44.7
10 -28 -12 101.39 17
12 -10 -28 142.39 61.79
-14 -10 -28 65.49 12
28 -14 10 28.1 42.3
-10 -28 -14 60.29 11
14 10 -28 64.19 34.2
-28 -14 -10 59.19 10.8
28 -14 10 83.69 16.8
-10 -28 -14 -12.2 46.9
14 -10 -28 132.29 56.49
28 -14 -10 10 24.7
10 -28 -14 60.69 13.6
10 -28 -14 46 37.1
-28 14 -10 77.09 16.2
28 -16 10 6.2 14
16 10 -28 -16 28.1
-16 -10 -28 -1.3 8.6
28 -16 10 -36.3 36.4
-10 -28 -16 6.8 8
-10 -28 -16 -6.9 44.8
-28 -16 -10 11.6 7.7
28 -16 -10 43.5 20.2
-28 16 -10 8.2 12.8
16 -10 -28 -0.9 13.2
10 -28 -16 -3.1 10.4
12 -28 0 133.89 40.5
28 0 -12 128.79 28.3
12 -28 0 112.89 18.3
-28 0 -12 117.69 16
0 -12 -28 187.08 74.49
-2 -12 -28 85.19 75.39
12 -28 2 80.49 16.1
-28 -2 -12 71.99 13
28 2 -12 97.39 27.6
12 -28 2 83.19 39.6
2 -12 -28 25.5 64.79
12 -28 -2 68.89 15.3
28 -2 -12 96.49 26.3
12 -28 -2 50.99 37.7
-28 2 -12 106.09 14.1
12 -28 4 39.1 39.3
-12 -28 -4 16 9.6
12 -28 4 2.3 12.8
28 4 -12 -2.5 23.5
-4 -12 -28 -124.59 68.99
-28 -4 -12 3.4 8.7
12 -28 -4 -5.8 11.7
12 -28 -4 20.3 34.7
-28 4 -12 12.1 10.2
28 -4 -12 4.5 22.9
4 -12 -28 -3.7 61.49
-12 -28 -6 1.7 8.7
-6 -12 -28 32.4 76.49
28 6 -12 8.6 25
12 -28 6 2.9 13.5
12 -28 6 69.79 41.6
-28 -6 -12 -6.9 8.1
12 -28 -6 9.5 11.4
-28 6 -12 7.3 10.5
6 -12 -28 32.8 58.59
28 -6 -12 5.8 23.3
12 -28 -6 -15.1 33.3
12 -28 8 -12.6 13.7
12 -28 8 -28.3 41.4
28 8 -12 14.9 27
-12 -28 -8 3.6 8.7
-8 -12 -28 155.08 84.59
-28 -8 -12 12 8.5
8 -12 -28 76.59 57.89
28 -8 -12 -24.1 24.3
12 -28 -8 -28.8 33.7
12 -28 -8 34.8 12.2
-28 8 -12 2.2 11.7
-10 -12 -28 145.09 85.99
-10 -12 -28 98.19 17.7
-12 -28 -10 117.59 16
12 -28 10 47.6 51.09
12 -28 10 109.09 20.3
-28 -10 -12 166.78 17.5
-12 -28 -10 143.79 61.19
-28 10 -12 143.69 19.7
10 -12 -28 165.98 58.19
12 -28 -10 106.79 40.4
28 -10 -12 127.89 32
12 -28 -10 167.18 19.1
-12 -28 -12 96.89 58.49
-12 -28 -12 208.08 22.9
12 -28 12 184.88 25.7
-28 -12 -12 213.08 22.6
-12 -12 -28 215.88 23.7
-12 -12 -28 233.58 91.29
12 -28 -12 212.98 45.3
28 -12 -12 199.58 35.5
12 -12 -28 262.07 60.09
-28 12 -12 222.58 25.4
12 -28 -12 225.28 25.4
-12 -28 -14 6.8 51.79
-12 -28 -14 187.28 18.6
-28 -14 -12 128.29 16.8
14 12 -28 124.49 36.4
-14 -12 -28 191.88 19.1
12 -28 -14 151.78 19.1
28 -14 -12 118.59 27.9
-28 14 -12 126.99 20
0 -14 -28 148.99 69.69
28 0 -14 72.39 24.7
-28 0 -14 99.79 13.6
14 -28 0 92.09 35.9
14 -28 0 68.29 15.7
14 -28 2 9.8 12.7
-28 -2 -14 43.8 10.4
28 2 -14 25.7 23.1
-2 -14 -28 -34 66.19
14 -28 2 39.1 35.7
28 -2 -14 34.8 21.4
2 -14 -28 55.39 63.19
-28 2 -14 28.8 10
14 -28 -2 66.79 33.8
14 -28 -2 13.6 12.5
14 -28 4 -6.2 12.8
28 4 -14 -8.4 23.2
14 -28 4 4.9 37.9
-28 -4 -14 -2.9 8.3
-4 -14 -28 17.1 70.89
28 -4 -14 -0.8 20.6
4 -14 -28 62.09 57.99
14 -28 -4 49.4 32.7
14 -28 -4 -6.3 11.3
-28 4 -14 -4 9.3
14 -28 6 36.1 40.6
-28 -6 -14 13.2 8.6
-14 -28 -6 15 9.2
-6 -14 -28 -23.2 73.09
14 -28 6 4.9 13.3
28 6 -14 0.6 24.4
6 -14 -28 52.49 54.39
-28 6 -14 -12.6 9.5
14 -28 -6 4.5 32
28 -6 -14 -1.6 21.8
14 -28 -6 -5 11.4
28 8 -14 30.3 27.1
-28 -8 -14 11 8.5
14 -28 8 -27 12.8
14 -28 8 64.49 43.6
-14 -28 -8 11.5 8.5
-8 -14 -28 -132.79 72.19
28 -8 -14 -2.9 22.9
8 -14 -28 8 50.49
14 -28 -8 5.5 32.4
-28 8 -14 -11.8 9.7
14 -28 -8 33.7 12.4
-14 -28 -10 69.29 11.8
-28 -10 -14 91.39 12
-10 -14 -28 79.69 80.79
-10 -14 -28 73.09 12
14 -28 10 77.49 16.6
14 -28 10 61.19 44.2
28 10 -14 21.3 28.1
10 -14 -28 66.19 49.4
-28 10 -14 65.49 14.1
14 -28 -10 124.19 37.2
28 -10 -14 55.99 26.5
14 -28 -10 55.89 14.2
-28 -12 -14 188.38 18.8
-12 -14 -28 88.29 81.99
-12 -14 -28 142.79 18
-14 -28 -12 180.98 19.2
14 -28 12 142.19 21.4
14 -28 -12 175.88 20.4
28 -12 -14 130.49 29.2
-28 12 -14 126.49 19.8
16 -28 0 -15.4 31
28 0 -16 -7.3 19.9
16 -28 0 1 12.2
0 -16 -28 33 63.39
-28 0 -16 8.8 8.8
-2 -16 -28 43.4 66.29
-28 -2 -16 -3 8.3
16 -28 2 -16.4 33.1
28 2 -16 -16.5 20.5
16 -28 2 -12.8 12
-28 2 -16 3.6 8.8
16 -28 -2 -27.2 29.3
16 -28 -2 -15 11.9
28 -2 -16 2.7 19.4
2 -16 -28 9.1 57.19
28 4 -16 45.6 23
-28 -4 -16 16.2 9.4
16 -28 4 -15.4 36.6
16 -28 4 18.7 13.4
-4 -16 -28 -10.5 70.39
-28 4 -16 29.1 10
28 -4 -16 51.09 21.4
4 -16 -28 -6.3 53.89
16 -28 -4 9 30.1
16 -28 -4 53.69 13.1
-16 -28 -6 122.49 14.7
16 -28 6 95.39 17.1
-6 -16 -28 56.09 74.29
-28 -6 -16 83.49 13
28 6 -16 104.69 27
16 -28 6 32.4 40.8
6 -16 -28 120.59 53.49
16 -28 -6 87.89 16
16 -28 -6 23.7 31.7
28 -6 -16 73.49 24.7
-28 6 -16 85.49 14
-28 -8 -16 37 9.7
-8 -16 -28 44.4 75.39
-8 -16 -28 36 9.1
16 -28 8 -23.2 39.9
-16 -28 -8 41.1 10.1
16 -28 8 39.8 14.3
28 8 -16 60.59 25.9
16 -28 -8 29.4 31
28 -8 -16 37.9 24
-28 8 -16 28.3 10.7
16 -28 -8 42.3 13
8 -16 -28 22.7 45.3
-28 -10 -16 14.8 8
-10 -16 -28 -11.5 7.6
-10 -16 -28 40.9 76.19
-16 -28 -10 10.4 8
16 -28 10 -8.7 41.1
16 -28 10 1.5 13.3
28 10 -16 1.5 24.5
-28 10 -16 14 9.7
16 -28 -10 9.6 30.3
16 -28 -10 22.9 11.6
28 -10 -16 0.2 22.2
28 0 -18 -4.5 19.9
-28 0 -18 -2.6 8.5
18 -28 0 16.7 12.5
18 -28 0 -43 29.9
0 -18 -28 -9.8 57.69
18 -28 2 15.4 12.7
-2 -18 -28 7.2 64.49
-28 -2 -18 7.1 9.2
18 -28 2 -1.3 32.9
28 2 -18 14.3 19.5
-28 2 -18 18.4 9.1
18 -28 -2 3 11.8
28 -2 -18 1.7 19
2 -18 -28 7.3 54.09
18 -28 -2 -20.5 28.7
18 -28 4 102.69 16.9
-28 -4 -18 95.99 13.7
28 4 -18 85.79 24.7
-4 -18 -28 -27.1 67.49
18 -28 4 30.9 38.1
18 -28 -4 65.29 31.4
18 -28 -4 81.29 16
4 -18 -28 132.79 53.99
-28 4 -18 112.69 14
28 -4 -18 103.49 23.7
18 -28 6 159.98 21.5
-1 -29 -1 92.79 63.69
-1 -29 -1 162.58 20.5
29 1 -1 173.38 47.4
1 1 -29 -13.8 86.39
-1 -1 -29 129.19 88.19
29 -1 1 117.79 49.7
1 -29 1 163.68 20.6
1 -29 1 148.99 62.09
1 -29 -1 175.58 20.3
1 -29 -1 146.09 62.09
1 -1 -29 8.8 86.69
-1 -29 1 176.58 20.4
29 -1 -1 163.48 44.5
-1 1 -29 90.59 91.59
-1 -29 1 148.09 66.29
29 -3 1 11.8 39.3
1 -29 3 21.7 12.7
3 1 -29 20.8 86.49
-3 -1 -29 -90.69 83.59
1 -29 3 13.2 57.09
-1 -29 -3 -19.6 59.29
-1 -29 -3 31 12.3
-3 1 -29 11.8 86.49
-1 -29 3 31.1 12.7
1 -29 -3 39.1 54.29
1 -29 -3 31.4 11.9
-1 -29 3 29.2 63.59
3 -1 -29 -36.5 79.89
29 -3 -1 5.1 38
-1 -29 -5 40.8 12.3
-1 -29 -5 127.99 67.79
-5 -1 -29 -24.5 87.19
5 1 -29 127.59 97.59
29 -5 1 100.19 40.8
1 -29 5 -148.99 54.29
1 -29 5 45.4 14.7
5 -1 -29 -22.1 90.59
29 -5 -1 18.9 40.6
1 -29 -5 21 57.19
1 -29 -5 51.49 12.3
29 -7 1 41.9 38.9
-1 -29 -7 146.09 57.29
7 1 -29 2 85.39
-1 -29 -7 24.8 10.6
1 -29 -7 -51.59 49.5
7 -1 -29 55.99 84.99
1 -29 -7 28.8 11.3
29 -7 -1 48.6 37.2
-29 7 -1 47.5 17.1
-1 -29 -9 -43 48
29 -9 1 3 14.4
9 1 -29 43.3 82.59
-1 -29 -9 2.6 9.4
29 -9 1 -50.59 31.9
29 -9 -1 -14 30.2
1 -29 -9 -38.2 49.8
1 -29 -9 22.1 10.6
-29 9 -1 -9.5 12.7
9 -1 -29 -70.39 78.29
11 1 -29 -54.49 84.69
-1 -29 -11 27.4 10.3
-1 -29 -11 33.7 46.7
29 -11 1 36 14.3
29 -11 1 24.7 33.1
-29 11 1 19.3 19.2
1 -29 -11 -14.7 46.2
-29 11 -1 19.4 13.7
29 -11 -1 27.2 33.2
1 -29 -11 38.8 11
11 -1 -29 -55.69 80.19
29 -13 1 18.3 13.5
13 1 -29 -24.3 80.29
-1 -29 -13 24.1 10
-1 -29 -13 44.1 44.6
29 -13 1 21.9 28.7
29 -13 -1 7.2 13.9
1 -29 -13 41.8 10.8
1 -29 -13 -12.8 43.5
29 -13 -1 4.1 28.4
13 -1 -29 6.8 79.19
15 1 -29 19.9 77.79
-1 -29 -15 9.6 9.3
-1 -29 -15 6.2 40.2
29 -15 1 -15.2 12
29 -15 1 33.2 26.7
29 -15 -1 19.6 12.4
15 -1 -29 -19.1 72.59
1 -29 -15 16.2 9.7
1 -29 -15 -36.8 40.1
29 -15 -1 -8.3 25.2
-1 -29 -17 -5.9 38.5
29 -17 1 17.2 12.7
-1 -29 -17 21.8 9.9
29 -17 1 13.9 28.4
17 1 -29 -2.3 23.4
1 -29 -17 44 39.1
29 -17 -1 12.7 12.3
1 -29 -17 3.3 9.7
17 -1 -29 -7.9 22.7
29 -17 -1 33.6 28.3
3 -29 1 12.4 54.89
1 3 -29 0.8 86.09
-3 -29 -1 -51.29 60.89
-3 -29 -1 20.8 11.9
3 -29 1 36.6 12.6
29 1 -3 -18.4 33.5
-1 -3 -29 1 82.59
3 -29 -1 20.8 11.9
29 -1 -3 21 35.3
1 -3 -29 -0.2 81.59
3 -29 -1 -90.69 50.59
-1 3 -29 31.9 91.39
-3 -29 1 37.8 63.59
-3 -29 1 13 11.7
-3 -29 -3 57.09 63.19
29 3 -3 -57.99 34
3 -29 3 -115.49 52.09
3 -29 3 7.8 13.6
29 -3 3 -13 38.9
-3 -29 -3 1.1 11
3 3 -29 -10.5 86.99
-3 -3 -29 -71.19 83.09
3 -3 -29 -72.39 85.39
3 -29 -3 10.6 11.1
-29 3 -3 11.1 10.1
29 -3 -3 33.9 38.2
3 -29 -3 65.39 52.39
29 -5 3 145.79 44.5
-3 -29 -5 82.29 16.1
3 -29 5 95.69 61.19
-3 -29 -5 216.98 74.69
3 -29 5 150.48 19.3
5 3 -29 64.09 97.89
-5 -3 -29 -32.3 88.29
3 -29 -5 137.99 17.2
3 -29 -5 161.18 55.99
-29 5 -3 135.99 18.5
5 -3 -29 -16.6 79.89
29 -5 -3 137.99 44.1
-3 -29 -7 127.19 15.8
29 -7 3 85.29 44.8
-7 -3 -29 -0.8 92.09
-3 -29 -7 125.09 61.49
7 3 -29 2.3 93.49
-29 7 -3 105.09 18.3
7 -3 -29 23.5 79.39
3 -29 -7 152.38 55.69
3 -29 -7 112.49 16.2
29 -7 -3 51.99 38
-3 -29 -9 3.1 51.59
-3 -29 -9 52.09 11
29 -9 3 -15.3 34.5
9 3 -29 38.1 89.89
3 -29 -9 61.39 12.5
-29 9 -3 6.5 13.9
3 -29 -9 83.39 51.09
29 -9 -3 3.8 31.2
9 -3 -29 60.69 81.09
-3 -29 -11 5.8 9.2
-3 -29 -11 -15.6 47.6
29 -11 3 19.8 13.9
29 -11 3 -17.1 31.5
11 3 -29 -77.59 85.89
-29 11 -3 -10.2 12.7
11 -3 -29 -43.2 75.09
29 -11 -3 -5.4 30.5
3 -29 -11 -94.69 43
3 -29 -11 28 11.2
-3 -29 -13 -8.3 43.7
29 -13 3 13.7 13.2
13 3 -29 34.9 88.59
-3 -29 -13 -0.7 8.5
29 -13 3 -3.5 27.8
29 -13 -3 -28.8 26.7
-29 13 -3 -9.1 12.9
13 -3 -29 -64.59 71.29
3 -29 -13 10 10.4
3 -29 -13 -44 40.2
29 -15 3 27.3 30.6
-3 -29 -15 -33.6 40.6
-3 -29 -15 13.3 9.4
29 -15 3 12.6 13.5
3 -29 -15 24.8 10.6
3 -29 -15 6.4 40.1
29 -15 -3 3.3 25.4
15 -3 -29 -7.8 69.49
29 -17 3 67.29 33.9
-3 -29 -17 16.1 41.4
17 3 -29 70.59 27.8
-3 -29 -17 87.99 12.7
-17 -3 -29 73.19 12.1
29 -17 3 66.19 15.8
29 -17 -3 55.59 22.3
3 -29 -17 65.29 40.2
29 -17 -3 30.4 27.6
17 -3 -29 34 23.4
3 -29 -17 121.19 14.4
5 -29 1 37 14.4
-5 -29 -1 53.09 13.2
-29 -1 -5 51.09 11
1 5 -29 15.7 149.99
29 1 -5 15.4 33.1
-1 -5 -29 9 80.89
-5 -29 -1 42.7 65.49
5 -29 1 21.3 51.29
-5 -29 1 74.69 17.6
5 -29 -1 -16.2 51.59
1 -5 -29 -123.19 79.79
5 -29 -1 63.79 13.8
-29 1 -5 52.39 11.4
29 -1 -5 67.69 36.4
5 -29 3 137.29 18.9
29 3 -5 132.79 38.8
-5 -29 -3 116.79 16.9
3 5 -29 91.09 97.99
5 -29 3 72.19 57.39
-3 -5 -29 -53.39 89.99
-5 -29 -3 89.39 70.69
-29 3 -5 126.99 17.4
29 -3 -5 71.09 38.2
5 -29 -3 143.19 17.7
3 -5 -29 23.6 80.69
5 -29 -3 69.89 49.8
-5 -5 -29 128.09 99.99
-5 -29 -5 442.46 88.49
5 -29 5 404.16 42
29 5 -5 394.16 58.59
5 5 -29 297.37 116.89
5 -29 5 402.26 77.59
29 -5 5 384.36 68.09
-5 -29 -5 427.96 39.8
-29 5 -5 423.46 41.4
5 -29 -5 457.85 40.5
5 -5 -29 209.08 92.29
29 -5 -5 398.16 58.19
5 -29 -5 373.56 67.69
5 -29 7 225.08 74.59
5 -29 7 383.46 39.7
29 -7 5 351.96 62.29
-7 -5 -29 58.79 97.69
-5 -29 -7 421.46 37.1
7 5 -29 203.78 104.29
-5 -29 -7 354.26 80.29
-29 7 -5 405.66 39.2
29 -7 -5 313.27 55.19
5 -29 -7 299.27 65.19
7 -5 -29 223.38 88.19
5 -29 -7 416.56 37.6
9 5 -29 27.1 99.99
-9 -5 -29 178.98 102.49
-5 -29 -9 182.78 19.9
-5 -29 -9 81.79 59.49
29 -9 5 109.09 43.1
9 -5 -29 -71.99 74.79
-29 9 -5 162.38 21.7
5 -29 -9 154.98 19.2
5 -29 -9 116.59 52.59
29 -9 -5 112.59 37
29 -11 5 58.99 15.4
11 5 -29 -26.1 90.69
29 -11 5 -30.8 34.4
-5 -29 -11 44.8 10.5
-5 -29 -11 54.19 50.49
-29 11 -5 44.9 14.8
5 -29 -11 21.2 11.1
11 -5 -29 -98.69 69.79
29 -11 -5 20.8 28.7
5 -29 -11 30.7 44.1
-5 -29 -13 27.2 9.5
13 5 -29 -65.39 85.09
-5 -29 -13 -74.29 43.3
29 -13 5 25.1 14.3
29 -13 5 25.2 31.9
5 -29 -13 24.1 10.6
-29 13 -5 34.4 14.1
29 -13 -5 35.7 28.1
5 -29 -13 -9.5 41.7
13 -5 -29 -38.9 67.89
-5 -29 -15 48.2 41.8
-5 -29 -15 75.49 12.1
29 -15 5 63.99 15.9
29 -15 5 96.59 37.3
29 -15 -5 33.8 25.5
-29 15 -5 84.89 16.4
5 -29 -15 26.6 39.9
5 -29 -15 59.89 12.8
15 -5 -29 134.99 69.29
-7 -29 -1 54.39 12.2
29 1 -7 13.6 31.4
-1 -7 -29 9.2 77.59
7 -29 1 25.6 46.9
-29 -1 -7 23.6 10.5
7 -29 1 33.6 12.6
29 -1 -7 30.1 30.2
7 -29 -1 -14.2 43.9
-29 1 -7 28.7 10.8
7 -29 -1 25.9 12.4
1 -7 -29 -47.1 71.69
-3 -7 -29 113.49 83.39
-29 -3 -7 144.89 17.2
7 -29 3 128.69 19.1
7 -29 3 182.48 54.09
-7 -29 -3 119.29 71.09
-7 -29 -3 169.48 18.2
29 3 -7 96.49 36
29 -3 -7 104.59 34.8
7 -29 -3 108.79 49
-29 3 -7 132.29 17.8
7 -29 -3 122.89 18.7
3 -7 -29 34.5 74.29
-5 -7 -29 295.47 97.99
7 -29 5 386.66 39.7
5 7 -29 84.09 104.39
7 -29 5 334.17 69.09
-7 -29 -5 566.84 90.39
-7 -29 -5 432.56 37.7
29 5 -7 385.96 54.49
-29 -5 -7 378.56 37
7 -29 -5 329.17 61.99
-29 5 -7 414.66 39.2
5 -7 -29 307.67 88.89
29 -5 -7 359.16 53.59
7 -29 -5 362.36 38.6
-7 -29 -7 394.26 35.6
7 -29 7 361.26 38.1
-7 -7 -29 224.08 98.19
-29 -7 -7 377.66 34.8
7 7 -29 246.18 106.69
-7 -29 -7 377.96 78.89
7 -29 7 237.88 68.59
7 -7 -29 158.88 81.89
-29 7 -7 328.47 37.7
29 -7 -7 350.16 52.29
7 -29 -7 385.66 36.7
7 -29 -7 364.66 61.29
-7 -29 -9 124.19 16.2
7 -29 9 53.79 79.89
-9 -7 -29 13 86.49
7 -29 9 118.19 20.5
-7 -29 -9 55.49 61.09
9 7 -29 73.39 100.79
29 -9 7 65.99 42.5
29 -9 -7 100.99 35.6
7 -29 -9 123.69 48.6
-29 9 -7 157.88 19.8
9 -7 -29 166.08 75.19
7 -29 -9 115.99 17.2
29 -11 7 18.3 34.2
11 7 -29 11.2 94.79
-7 -29 -11 11.6 9.2
-7 -29 -11 -14.3 50.59
7 -29 -11 30 11.3
-29 11 -7 12 13.3
29 -11 -7 -17.5 27
7 -29 -11 -6.2 41.1
11 -7 -29 -71.09 64.89
29 -13 7 -24.5 34.4
29 -13 7 17.1 14.2
-7 -29 -13 3.2 8.5
-7 -29 -13 7.7 46.2
7 -29 -13 22.3 10.7
29 -13 -7 13.3 26.4
13 -7 -29 1.6 62.79
7 -29 -13 -28.8 38.6
-29 13 -7 22 13.7
-7 -29 -15 54.69 11
-7 -29 -15 32.2 43.5
29 -15 7 54.59 15.9
29 -15 7 27.5 36.5
15 7 -29 70.69 32
-15 -7 -29 66.69 11.6
7 -29 -15 53.59 12.4
-29 15 -7 77.79 15.4
29 -15 -7 57.19 24.2
15 -7 -29 16.3 58.49
7 -29 -15 -2.4 36.5
9 -29 1 28.8 42.4
29 1 -9 4.4 25.4
-1 -9 -29 39 72.59
9 -29 1 -19.1 11.2
-29 -1 -9 -7.8 8.7
1 -9 -29 -115.79 67.49
9 -29 -1 49 41.5
-29 1 -9 5.4 9.4
9 -29 -1 13.3 11.7
29 -1 -9 -5.4 25.2
-9 -29 -3 42.6 11.1
-29 -3 -9 46.3 10.3
29 3 -9 44.5 28.6
9 -29 3 23.2 13.3
-3 -9 -29 21 79.29
9 -29 3 70.59 44.3
9 -29 -3 12.2 12.5
29 -3 -9 -5.5 26.1
9 -29 -3 -13.5 40.3
3 -9 -29 32 70.29
-29 3 -9 34.8 10.9
-5 -9 -29 181.88 86.29
29 5 -9 153.08 36.5
9 -29 5 129.09 51.09
9 -29 5 162.98 22.2
-9 -29 -5 110.49 68.79
-9 -29 -5 209.38 21
-29 -5 -9 169.88 20.2
-29 5 -9 156.78 20.6
9 -29 -5 147.29 46.7
9 -29 -5 161.68 21.3
29 -5 -9 166.78 35.8
5 -9 -29 133.39 73.79
9 -29 7 122.99 52.29
29 7 -9 121.39 36.2
-9 -29 -7 66.29 63.79
-9 -29 -7 114.49 16.3
-7 -9 -29 63.69 86.49
-29 -7 -9 137.09 16.4
9 -29 7 136.89 20.6
7 -9 -29 68.19 67.49
9 -29 -7 121.49 43.9
-29 7 -9 138.19 19
9 -29 -7 141.39 19
29 -7 -9 157.48 35.4
-29 -9 -9 25.9 9.6
9 -29 9 32.1 15.6
-9 -29 -9 -29.3 54.99
-9 -29 -9 22.4 9.9
9 9 -29 48.7 97.59
9 -29 9 43 49.8
-9 -9 -29 -113.79 80.29
-29 9 -9 57.69 14.4
29 -9 -9 10.7 29.6
9 -29 -9 41.3 12.9
9 -29 -9 47.7 41.5
9 -9 -29 54.39 61.69
-9 -29 -11 2.5 8.5
-29 -11 -9 2 8.2
11 9 -29 -2.7 97.29
-9 -29 -11 -69.89 49.6
-11 -9 -29 37.1 85.69
9 -29 11 3 15.3
11 -9 -29 -87.69 57.49
9 -29 -11 3.7 11.3
29 -11 -9 15.6 26.6
-29 11 -9 17.6 13.3
9 -29 -11 23.6 40.8
-13 -9 -29 11.6 12.2
-29 -13 -9 3.2 7.8
-9 -29 -13 14.7 8.8
-9 -29 -13 4.9 44.6
29 -13 9 15.7 39.6
13 -9 -29 92.69 58.89
-29 13 -9 -12.7 12.4
29 -13 -9 -24.9 24.4
9 -29 -13 26.9 11.5
9 -29 -13 8.1 38.2
11 -29 1 29 12.6
11 -29 1 -1.1 37.9
29 1 -11 10.3 24.5
-29 -1 -11 31.5 9.9
-1 -11 -29 87.29 71.69
11 -29 -1 15.5 12.4
1 -11 -29 -9.7 67.89
-29 1 -11 23.5 10.1
29 -1 -11 37.9 25.5
11 -29 -1 81.09 40.2
11 -29 3 -2.9 12.3
-11 -29 -3 16.1 10.2
29 3 -11 4.5 24.2
-29 -3 -11 2.2 8.7
-3 -11 -29 52.79 72.59
11 -29 3 17.4 39.5
29 -3 -11 -4.4 23.9
11 -29 -3 -22.3 11.1
-29 3 -11 2.2 9.4
3 -11 -29 -43.6 62.99
11 -29 -3 19.1 37.2
11 -29 5 34.8 14.5
11 -29 5 15.1 41.8
29 5 -11 19.3 25.7
-5 -11 -29 61.49 75.09
-29 -5 -11 41 10.2
-11 -29 -5 35.3 10.2
-29 5 -11 38.4 11.3
11 -29 -5 5.4 37
11 -29 -5 18.7 12.7
29 -5 -11 25.9 26
5 -11 -29 86.39 63.99
29 7 -11 26.1 26.7
-11 -29 -7 35.1 10.1
11 -29 7 21.6 43.4
-7 -11 -29 -4.8 76.49
-29 -7 -11 26.4 9.5
11 -29 7 25.6 14.8
7 -11 -29 22.1 60.59
29 -7 -11 13.4 27.5
11 -29 -7 13.8 11.9
-29 7 -11 41.6 12.1
11 -29 -7 53.99 36.7
-29 -9 -11 -7.6 8.1
29 9 -11 -3.5 31
11 -29 9 24.8 46.5
11 -29 9 -17.2 13.5
-9 -11 -29 -10.4 79.99
-11 -29 -9 -9.1 54.59
-11 -29 -9 -5.5 8.5
11 -29 -9 -7.5 36.9
-29 9 -11 -2.4 11.9
11 -29 -9 6.2 11.8
9 -11 -29 28.9 55.99
29 -9 -11 10.7 27.9
-29 -11 -11 67.89 11.6
11 -29 11 32.9 16.3
-11 -29 -11 41.5 53.39
-11 -29 -11 82.39 12.3
-11 -11 -29 152.48 86.29
11 -29 -11 82.09 14.6
11 -11 -29 -14.7 55.69
-29 11 -11 82.69 15.5
11 -29 -11 95.19 40.4
29 -11 -11 97.99 28.5
-29 -13 -11 68.59 10.9
-13 -11 -29 65.99 11.8
-11 -29 -13 -6.1 48.5
-11 -29 -13 66.89 11.1
13 11 -29 50.49 34.7
-13 -11 -29 93.49 93.79
-29 13 -11 86.39 15.5
29 -13 -11 44.2 25.7
11 -29 -13 40.4 13
13 -11 -29 95.79 51.49
11 -29 -13 36.7 36.2
-29 -1 -13 31.8 9.7
13 -29 1 30.8 35.3
13 -29 1 11.5 12.4
-1 -13 -29 60.09 68.69
29 1 -13 27.3 22.7
29 -1 -13 22.5 22.5
1 -13 -29 46.3 64.19
-29 1 -13 11.6 9.3
13 -29 -1 25.5 12.9
13 -29 -1 38.4 34.3
29 3 -13 -16.9 21.6
13 -29 3 -9 12.3
13 -29 3 -14.2 35.9
-29 -3 -13 27 9.3
-3 -13 -29 8.1 68.09
13 -29 -3 -1.6 11.8
13 -29 -3 -8.2 33.3
3 -13 -29 32.6 60.59
-29 3 -13 3.5 9.4
29 -3 -13 -6.4 21.4
13 -29 5 31.4 13.9
29 5 -13 17.4 24.5
-29 -5 -13 24.7 9.5
-5 -13 -29 -83.89 69.49
13 -29 5 58.09 41.1
-13 -29 -5 30.2 10
29 -5 -13 38.8 24.7
-29 5 -13 30.4 10.5
5 -13 -29 63.39 58.09
13 -29 -5 25.5 34.2
13 -29 -5 18.7 12.2
-7 -13 -29 -61.99 73.09
-29 -7 -13 17.8 8.7
13 -29 7 42.1 42.6
29 7 -13 4.9 23.7
-13 -29 -7 12.3 8.6
13 -29 7 0.5 13.5
13 -29 -7 -9.4 33.4
13 -29 -7 15.9 11.8
7 -13 -29 -28 53.29
-29 7 -13 22.8 10.6
29 -7 -13 -4.9 25.5
-13 -29 -9 10.6 8.5
13 -29 9 17.6 43.3
-29 -9 -13 12.2 8.6
-9 -13 -29 80.19 79.99
13 -29 9 22.2 14
29 9 -13 23.9 25.5
13 -29 -9 27.2 11.9
-29 9 -13 11.4 10.8
9 -13 -29 -19 50.79
29 -9 -13 0.2 26.2
13 -29 -9 27.4 35.3
-11 -13 -29 41.3 77.99
-11 -13 -29 57.49 11.9
-29 -11 -13 75.79 11.3
-13 -29 -11 50.99 11.1
13 -29 11 45 15.6
13 -29 11 26.8 45.9
-13 -29 -11 -31.2 52.99
29 -11 -13 62.39 26.2
11 -13 -29 63.89 48
13 -29 -11 117.99 36.9
-29 11 -13 67.89 13.7
13 -29 -11 76.29 14
-29 -1 -15 -1.9 8.7
15 -29 1 -0.4 11.7
15 -29 1 14.1 33.1
29 1 -15 9.7 20.9
-1 -15 -29 -14.4 63.79
-29 1 -15 1.8 8.8
1 -15 -29 -76.59 58.39
15 -29 -1 -3.7 12.2
29 -1 -15 21.6 21.2
15 -29 -1 -47.7 30.5
15 -29 3 24.6 34.5
-29 -3 -15 29.5 9.6
15 -29 3 24.9 12.7
-3 -15 -29 -43.3 65.69
29 3 -15 25.5 22.2
-29 3 -15 23.4 9.6
15 -29 -3 13.6 12.1
29 -3 -15 2.8 22
3 -15 -29 -74.19 54.09
15 -29 -3 1 30.8
-29 -5 -15 64.99 11.9
15 -29 5 62.69 15.4
29 5 -15 55.29 25.7
-5 -15 -29 21.6 72.59
15 -29 5 54.89 38.5
5 -15 -29 90.09 53.89
29 -5 -15 95.89 26.1
-29 5 -15 93.69 13.3
15 -29 -5 71.59 14.7
15 -29 -5 35.7 33.8
-15 -29 -7 74.99 11.9
29 7 -15 73.39 26.9
15 -29 7 88.49 15.8
15 -29 7 66.09 40.9
-29 -7 -15 62.59 11.6
-7 -15 -29 -8.6 72.39
7 -15 -29 75.79 51.39
15 -29 -7 25.5 33
15 -29 -7 51.59 13.7
29 -7 -15 44.1 26.1
-29 7 -15 89.89 13
-29 -1 -17 2.9 8.8
17 -29 1 17.5 31.9
17 -29 1 27.6 12.7
-1 -17 -29 -95.89 59.49
29 1 -17 -7.8 19.4
-29 1 -17 9.5 8.9
29 -1 -17 27.3 20.5
1 -17 -29 -19.9 56.89
17 -29 -1 -11.5 30
17 -29 -1 22.4 12.2
29 3 -17 77.49 24.3
17 -29 3 69.29 15
17 -29 3 83.19 35.7
-29 -3 -17 79.89 12.5
-3 -17 -29 57.19 67.79
-29 3 -17 74.19 12.6
3 -17 -29 67.79 54.39
17 -29 -3 32.2 31.7
17 -29 -3 61.99 14.5
29 -3 -17 73.09 23.6
0 -30 0 73.59 64.29
0 -30 0 94.99 15.7
0 0 -30 -5.3 87.59
30 0 0 168.38 48
30 -2 0 -6.5 42.8
2 0 -30 36.9 82.19
-2 0 -30 -42.8 88.79
0 -30 -2 -16.8 57.39
0 -30 -2 31.8 11.9
0 -30 2 105.69 65.39
0 -30 2 27 12.7
0 -30 4 31.9 61.69
0 -30 -4 26.6 11.7
30 -4 0 30.2 37.1
0 -30 4 50.29 15.5
4 0 -30 -15.3 81.79
0 -30 -4 -30.7 56.39
-4 0 -30 27.5 92.39
0 -30 -6 129.89 57.29
0 -30 -6 97.89 15
6 0 -30 -78.29 80.99
30 -6 0 54.19 37.5
30 -8 0 11.9 32.9
8 0 -30 -3.4 79.49
0 -30 -8 35.6 52.79
0 -30 -8 20.1 11
0 -30 -10 -5 45.8
-30 10 0 8 19.6
0 -30 -10 -7.2 9.4
30 -10 0 -26.6 30.9
10 0 -30 -53.39 77.19
30 -12 0 -22.9 28.1
12 0 -30 1.8 79.49
-30 12 0 13.5 12.5
0 -30 -12 -16.7 44.1
0 -30 -12 12.8 9.9
30 -12 0 22.6 14.5
14 0 -30 -24.3 75.19
-30 14 0 5.7 12.1
30 -14 0 6 12.5
30 -14 0 41.6 27.6
0 -30 -14 0.4 9.3
0 -30 -14 -89.49 39.4
-2 -30 0 92.59 65.79
30 0 -2 -25 38.3
0 2 -30 -58.59 88.49
-2 -30 0 44.4 12.3
2 -30 0 20.3 12
2 -30 0 47 54.09
0 -2 -30 4.4 84.19
2 -30 2 -74.29 54.49
30 2 -2 -39.6 38.1
-2 -30 -2 -0.7 61.89
2 -30 2 -8.7 11.7
-2 -2 -30 -27.3 85.69
30 -2 2 90.99 43.7
-2 -30 -2 4.2 11
2 2 -30 -23.2 84.69
-2 2 -30 8.2 88.59
-2 -30 2 19.5 12
2 -30 -2 3.6 10.7
2 -2 -30 2.1 82.09
2 -30 -2 15.3 54.39
-2 -30 2 -65.29 63.59
30 -2 -2 -26.7 37.7
2 -30 4 68.59 15.1
-2 -30 -4 71.29 13.6
-4 -2 -30 -52.79 87.49
-2 -30 -4 95.09 61.09
2 -30 4 39.3 60.09
4 2 -30 12.9 88.69
30 -4 2 69.89 42.1
2 -30 -4 10 54.29
30 -4 -2 -7.4 37.8
2 -30 -4 80.09 13.6
4 -2 -30 82.39 82.09
6 2 -30 -10.9 84.49
30 -6 2 186.78 42.8
2 -30 6 -2.1 69.29
-6 -2 -30 95.99 87.29
-2 -30 -6 48.9 58.69
-2 -30 -6 97.39 15.7
2 -30 -6 36 54.29
2 -30 -6 105.29 16.1
6 -2 -30 14.8 77.99
30 -6 -2 142.69 40.5
-30 6 -2 136.09 18.3
30 -8 2 90.39 38.4
-2 -30 -8 33 11.6
-2 -30 -8 62.09 52.29
8 2 -30 65.39 88.19
2 -30 -8 52.09 51.39
-30 8 -2 70.99 14.8
8 -2 -30 -71.89 76.99
2 -30 -8 78.79 13.3
30 -8 -2 30 34.6
-2 -30 -10 -2 9.2
30 -10 2 -4.3 34
10 2 -30 -36.2 86.09
-2 -30 -10 41.6 48.8
2 -30 -10 2.3 10.2
2 -30 -10 -72.49 44.4
-30 10 -2 -14.8 12.3
10 -2 -30 -49 78.19
30 -10 -2 8.4 30.4
12 2 -30 19.6 84.19
-2 -30 -12 -3.3 8.7
30 -12 2 -8.9 29.1
-2 -30 -12 30.9 45.3
30 -12 2 10.3 12.8
12 -2 -30 -168.68 71.09
-30 12 -2 -27.6 11.8
30 -12 -2 -44.2 27
2 -30 -12 23.5 43.9
2 -30 -12 -2.7 9.9
-2 -30 -14 9.5 9.1
-2 -30 -14 -76.49 40.7
30 -14 2 -0.3 12.2
14 2 -30 24.9 79.99
30 -14 2 -4.4 27.6
14 -2 -30 -6.2 71.49
-30 14 -2 -5.2 12.2
2 -30 -14 0.7 9.9
2 -30 -14 41.5 42
30 -14 -2 -34.4 24.9
0 -4 -30 -95.19 76.79
-4 -30 0 45.5 12.4
4 -30 0 12.3 12.3
0 4 -30 73.99 96.49
4 -30 0 -18.6 49
-4 -30 0 43.2 65.29
30 0 -4 -11.5 32.7
30 2 -4 25.6 38.2
4 -30 2 71.39 15.2
4 -30 2 55.79 53.09
-4 -30 -2 89.19 14.3
-2 -4 -30 -101.39 76.29
-4 -30 -2 0.9 61.99
2 4 -30 -51.69 91.99
30 -2 -4 68.99 37.6
-30 2 -4 76.69 12.8
2 -4 -30 41.3 74.29
4 -30 -2 78.79 50.99
4 -30 -2 76.39 14.6
4 -30 4 305.47 30
30 -4 4 261.67 56.49
-4 -30 -4 256.77 28.5
4 -30 4 178.98 64.79
-4 -4 -30 121.69 90.49
30 4 -4 267.17 52.99
4 4 -30 181.08 98.79
-4 -30 -4 208.88 71.69
4 -30 -4 288.47 29
4 -30 -4 266.27 61.49
-30 4 -4 248.68 28.1
4 -4 -30 140.59 82.79
30 -4 -4 268.67 50.39
-4 -30 -6 289.37 73.29
6 4 -30 219.58 102.79
-6 -4 -30 112.99 94.29
4 -30 6 347.37 35.2
-4 -30 -6 318.67 32.4
30 -6 4 297.57 56.49
4 -30 6 180.48 66.99
-30 6 -4 354.46 33.9
4 -30 -6 240.28 65.09
4 -30 -6 360.96 33
6 -4 -30 142.89 83.99
30 -6 -4 285.87 52.69
-8 -4 -30 79.19 92.79
-4 -30 -8 230.18 65.99
30 -8 4 173.38 47.1
8 4 -30 151.78 95.89
-4 -30 -8 256.07 23.8
-30 8 -4 198.38 24.2
4 -30 -8 194.28 23.5
8 -4 -30 68.79 83.79
30 -8 -4 148.39 41.5
4 -30 -8 139.79 55.99
10 4 -30 69.09 93.69
30 -10 4 114.09 36
-4 -30 -10 92.19 13.6
-4 -30 -10 6.6 51.29
10 -4 -30 24.7 76.99
4 -30 -10 104.99 14.8
4 -30 -10 13.7 48.1
-30 10 -4 75.49 16
30 -10 -4 78.29 34
-4 -30 -12 33.4 44.7
12 4 -30 87.59 87.99
30 -12 4 73.39 32.4
-4 -30 -12 31.6 10
30 -12 -4 24.3 29.1
12 -4 -30 -59.59 71.29
-30 12 -4 -0.5 13.3
4 -30 -12 37 11.3
4 -30 -12 -33.6 42.6
-4 -30 -14 9.2 42.7
30 -14 4 19.1 31.2
-4 -30 -14 54.89 11.2
30 -14 4 46 14.6
4 -30 -14 61.89 12.3
30 -14 -4 56.79 26.3
4 -30 -14 61.19 41
14 -4 -30 23.5 68.09
-30 14 -4 42 14.1
-30 0 -6 60.49 12
6 -30 0 56.59 48.8
-6 -30 0 96.09 15.8
0 -6 -30 25.3 76.59
30 0 -6 74.19 34
6 -30 0 62.69 14.4
-30 -2 -6 114.39 14.4
6 -30 2 131.49 53.89
6 -30 2 78.89 16.3
-6 -30 -2 89.99 66.59
-2 -6 -30 -27.9 76.39
30 2 -6 127.09 36.3
-6 -30 -2 103.39 15.9
6 -30 -2 59.99 46.7
-30 2 -6 119.69 15.1
30 -2 -6 119.19 36.6
6 -30 -2 95.89 16.8
2 -6 -30 79.99 78.49
-30 -4 -6 350.26 34.1
6 -30 4 284.87 66.09
-6 -30 -4 351.66 33.6
-6 -30 -4 304.87 75.39
30 4 -6 279.67 51.09
6 -30 4 330.37 35.3
4 6 -30 89.19 102.49
-4 -6 -30 226.38 90.29
6 -30 -4 327.27 34.5
-30 4 -6 351.16 33.6
30 -4 -6 347.37 51.69
6 -30 -4 314.07 60.69
4 -6 -30 267.87 84.99
6 -30 6 476.25 49.1
6 6 -30 221.08 110.39
-6 -6 -30 300.27 104.79
-6 -30 -6 599.74 47.7
6 -30 6 349.27 78.09
-6 -30 -6 440.66 88.69
-30 6 -6 479.35 48.3
6 -30 -6 572.84 48.4
6 -30 -6 434.56 72.59
30 -6 -6 567.44 69.19
6 -6 -30 284.97 93.49
6 -30 8 310.47 69.29
6 -30 8 317.47 34
-8 -6 -30 178.78 94.19
-6 -30 -8 350.36 31
-6 -30 -8 282.57 71.59
8 6 -30 40.4 100.89
30 -8 6 252.47 51.89
30 -8 -6 286.67 48.9
6 -30 -8 209.18 58.79
8 -6 -30 99.19 79.99
-30 8 -6 300.97 33.1
6 -30 -8 319.47 31.6
-6 -30 -10 39.6 55.09
-6 -30 -10 111.39 15.3
30 -10 6 131.99 39.7
-10 -6 -30 119.09 114.89
10 6 -30 187.08 100.99
10 -6 -30 113.09 73.59
6 -30 -10 60.49 46.1
-30 10 -6 117.79 18.6
6 -30 -10 135.49 17.1
30 -10 -6 109.39 34.9
-6 -30 -12 52.59 11.1
12 6 -30 -9.2 90.39
-6 -30 -12 -53.39 45.9
30 -12 6 57.59 35.3
-30 12 -6 59.19 15.4
30 -12 -6 38.1 29.5
6 -30 -12 87.09 42.4
6 -30 -12 71.69 13
12 -6 -30 25.8 67.39
-6 -30 -14 60.59 44.9
30 -14 6 67.99 16.3
-6 -30 -14 67.59 11.6
30 -14 6 32 35.1
6 -30 -14 81.39 13.2
14 -6 -30 13.1 61.79
-30 14 -6 54.19 15.3
6 -30 -14 33.5 39.4
30 -14 -6 65.89 27.1
8 -30 0 11.6 11.6
-30 0 -8 29.7 9.8
8 -30 0 6.6 45
30 0 -8 -4.3 28.9
0 -8 -30 -106.69 68.59
-30 -2 -8 36.9 10.7
-8 -30 -2 68.09 12.1
8 -30 2 29.4 13.4
30 2 -8 44.3 30.2
8 -30 2 75.79 49.1
-2 -8 -30 35.8 74.29
30 -2 -8 55.49 30.7
8 -30 -2 26.7 12.8
8 -30 -2 47.9 43.5
2 -8 -30 39.1 68.69
-30 2 -8 55.99 11.4
-8 -30 -4 303.87 26.5
8 -30 4 241.18 28.9
-4 -8 -30 96.29 83.59
-8 -30 -4 183.38 70.49
-30 -4 -8 262.17 26
8 -30 4 202.38 57.19
30 4 -8 264.77 43.6
4 -8 -30 121.89 74.89
-30 4 -8 212.78 26.4
8 -30 -4 262.97 52.99
30 -4 -8 243.98 42.7
8 -30 -4 204.58 26.5
-30 -6 -8 307.87 30
-8 -30 -6 341.17 30.9
6 8 -30 88.89 119.99
8 -30 6 313.07 33.6
8 -30 6 249.38 61.79
30 6 -8 304.07 48.4
-6 -8 -30 103.29 87.39
-8 -30 -6 312.27 74.59
30 -6 -8 296.47 47.4
-30 6 -8 305.47 32
8 -30 -6 292.57 32.3
8 -30 -6 234.88 54.19
6 -8 -30 189.78 77.89
8 -30 8 205.58 25.5
8 -30 8 130.09 57.49
-30 -8 -8 214.68 22.3
-8 -30 -8 182.88 22.6
-8 -8 -30 82.29 85.39
8 8 -30 101.59 103.19
-8 -30 -8 45.2 62.09
8 -8 -30 166.68 73.49
8 -30 -8 255.27 24.9
8 -30 -8 149.79 50.59
30 -8 -8 171.18 41
-30 8 -8 197.38 23.5
-10 -8 -30 -94.59 81.19
-8 -30 -10 -41.4 53.49
10 8 -30 -42.5 95.99
30 -10 8 -21.1 36.2
-8 -30 -10 33.7 10.6
8 -30 10 83.49 17.9
-30 10 -8 86.89 15.4
10 -8 -30 61.29 63.39
8 -30 -10 75.99 42.7
30 -10 -8 65.69 30.4
8 -30 -10 79.09 13.7
-8 -30 -12 16.7 8.9
-8 -30 -12 -101.09 44.1
30 -12 8 -14.8 35.9
12 -8 -30 -10.7 59.49
30 -12 -8 14.3 26.6
-30 12 -8 16 12.6
8 -30 -12 8.3 11.1
8 -30 -12 31 38.5
0 -10 -30 -42.7 63.89
10 -30 0 84.99 40
10 -30 0 0.6 11.7
30 0 -10 6.3 26
-30 0 -10 -10.5 8.5
10 -30 2 -5.6 40.5
-2 -10 -30 50.19 70.49
-30 -2 -10 2.4 8.9
30 2 -10 5.8 25.5
10 -30 2 -8 11.5
2 -10 -30 -23.4 62.99
10 -30 -2 -1 11.4
30 -2 -10 6.2 26.4
10 -30 -2 -10.7 38.3
-30 2 -10 -9.8 8.9
10 -30 4 102.29 17.1
-4 -10 -30 54.39 73.09
-30 -4 -10 87.19 13.5
30 4 -10 120.79 31.5
10 -30 4 128.29 46.8
-10 -30 -4 108.49 14.4
-30 4 -10 94.69 14.4
4 -10 -30 69.89 67.09
10 -30 -4 38.6 41
30 -4 -10 108.99 32
10 -30 -4 74.29 16
-10 -30 -6 113.09 67.29
30 6 -10 141.19 35
-30 -6 -10 122.89 15.7
10 -30 6 132.39 20
-10 -30 -6 138.09 16.5
-6 -10 -30 80.19 81.39
10 -30 6 43 46.8
10 -30 -6 104.09 41.9
10 -30 -6 126.39 18.2
6 -10 -30 -0.6 62.79
30 -6 -10 156.58 35.8
-30 6 -10 129.99 17
-10 -30 -8 41.5 10.7
-30 -8 -10 46.6 10.7
30 8 -10 14.4 30.1
-10 -30 -8 -33.3 55.49
10 -30 8 73.59 50.09
10 -30 8 73.29 16.3
-8 -10 -30 35.3 79.99
30 -8 -10 39.4 31
-30 8 -10 80.39 13.9
10 -30 -8 63.99 40.8
10 -30 -8 50.29 13.1
8 -10 -30 65.69 59.89
10 -30 10 -42.7 46.7
10 10 -30 85.49 107.79
-10 -30 -10 -49.4 50.79
-10 -30 -10 9.1 8.3
-10 -10 -30 -92.49 73.59
10 -30 10 -12.4 14
-30 -10 -10 -1.5 8.1
30 -10 -10 -20.6 25.1
10 -30 -10 4.9 11.4
-30 10 -10 -3.6 11.5
10 -10 -30 26 56.99
10 -30 -10 9.6 38.6
-10 -30 -12 13.5 8.3
-30 -12 -10 9.4 7.8
12 -30 0 7 35.8
30 0 -12 -21.2 23.4
0 -12 -30 75.99 64.19
12 -30 0 -15.8 11.3
-30 0 -12 0.1 8.9
30 2 -12 -6.4 24.8
12 -30 2 20.9 37.9
-2 -12 -30 28.9 68.49
-30 -2 -12 7.2 8.9
12 -30 2 13.9 12.1
30 -2 -12 17.9 24.5
12 -30 -2 29 36.3
-30 2 -12 2.4 9
12 -30 -2 -1.3 11.2
2 -12 -30 -29.9 61.19
-12 -30 -4 34.1 10.5
30 4 -12 -3.6 26
12 -30 4 20.6 13.3
-30 -4 -12 22.7 9.4
12 -30 4 31.5 40.1
-4 -12 -30 33.7 73.39
12 -30 -4 18.7 35.6
4 -12 -30 67.09 59.09
12 -30 -4 33.2 12.6
30 -4 -12 26.8 27.1
-30 4 -12 38.6 10.7
-12 -30 -6 45.1 11.2
12 -30 6 57.29 15
-6 -12 -30 -25.4 73.59
-30 -6 -12 58.69 10.8
12 -30 6 44.8 42.7
30 6 -12 46.1 27.7
6 -12 -30 -25.5 57.49
12 -30 -6 51.79 13.5
12 -30 -6 19.3 35.6
-30 6 -12 75.99 12.3
30 -6 -12 45.8 28.5
12 -30 8 -11.8 41.9
30 8 -12 -10.4 25.5
-8 -12 -30 -35.9 72.89
12 -30 8 -27.7 12.5
-12 -30 -8 -12.5 8.1
-30 -8 -12 10.5 8.4
8 -12 -30 27.7 53.39
12 -30 -8 7.1 11.3
-30 8 -12 10.4 9.9
30 -8 -12 16.4 28.6
12 -30 -8 -14.5 34.9
12 -30 10 -27.2 12.5
-12 -30 -10 17.2 8.7
30 0 -14 -0.1 22.5
14 -30 0 -4.6 11.7
14 -30 0 6.3 33.2
0 -14 -30 25.1 61.29
-30 0 -14 10.1 8.9
30 2 -14 6.7 22.7
14 -30 2 -18.8 33.9
14 -30 2 4.8 11.9
-2 -14 -30 -3.2 66.09
-30 -2 -14 13.6 8.8
2 -14 -30 63.29 60.49
14 -30 -2 -2.1 11.4
30 -2 -14 30 23.7
-30 2 -14 13 9.1
14 -30 -2 1.4 33.4
-30 -4 -14 47.5 10.7
30 4 -14 75.59 26.4
14 -30 4 -17.7 36
14 -30 4 52.99 14
-4 -14 -30 50.99 70.89
14 -30 -4 57.79 13.3
14 -30 -4 36.6 34.9
4 -14 -30 73.39 57.09
30 -4 -14 43.7 26
-30 4 -14 55.79 11.4
30 6 -14 115.89 28.1
14 -30 6 63.89 41.4
14 -30 6 90.09 16.2
-14 -30 -6 66.79 12.1
-30 -6 -14 70.49 12.2
-6 -14 -30 161.38 75.99
30 -6 -14 66.19 29
14 -30 -6 81.89 35.6
14 -30 -6 63.69 14.2
-30 6 -14 90.39 13.4
6 -14 -30 27.6 53.39
-1 -31 -1 -33.6 57.79
-1 -31 -1 15 10.9
31 1 -1 -32 38
1 1 -31 -37.9 79.49
-1 -1 -31 -46.1 80.29
31 -1 1 66.39 40.6
1 -31 1 20.9 12.2
1 -31 1 40.2 56.89
1 -31 -1 29.5 11.4
1 -31 -1 -10.2 54.39
1 -1 -31 -29 76.39
-1 -31 1 21.8 11.6
31 -1 -1 -20.3 37.8
-1 1 -31 -48.4 79.69
-1 -31 1 7.4 59.69
3 1 -31 29.7 80.99
-3 -1 -31 -51.59 82.59
31 -3 1 -26.4 36.1
-1 -31 -3 35.5 54.69
-1 -31 -3 11.2 11
1 -31 3 -32.8 56.19
1 -31 3 -0.4 11.5
1 -31 -3 33.3 53.39
1 -31 -3 10.1 10.7
-1 -31 3 -52.69 59.79
-1 -31 3 -1.1 12.6
3 -1 -31 82.59 80.29
-3 1 -31 -29.5 88.29
31 -3 -1 28.7 36.9
1 -31 5 -15.6 57.09
31 -5 1 89.19 39.9
5 1 -31 116.79 86.39
-5 -1 -31 9.7 82.69
-1 -31 -5 92.09 56.69
-1 -31 -5 88.99 14.7
1 -31 -5 67.89 53.59
1 -31 -5 74.69 14
31 -5 -1 102.69 38.8
5 -1 -31 57.49 79.39
7 1 -31 108.29 85.49
31 -7 1 29.3 35.9
-1 -31 -7 47.1 52.59
-1 -31 -7 54.99 12.7
7 -1 -31 -9.7 77.89
31 -7 -1 81.49 35.7
1 -31 -7 58.89 13
1 -31 -7 64.39 51.59
-1 -31 -9 -3.3 9.8
9 1 -31 10.1 81.89
31 -9 1 48.7 33.1
-1 -31 -9 -28.4 47.8
1 -31 -9 15.1 10.6
31 -9 -1 26.3 32.6
1 -31 -9 6.1 47.4
9 -1 -31 -33.6 80.49
-31 9 -1 -8.4 17.4
-1 -31 -11 -14.6 44.4
-1 -31 -11 -5.7 9.3
11 1 -31 22.5 83.99
31 -11 1 -20 29
11 -1 -31 -23.2 79.89
31 -11 -1 -2.2 30.7
1 -31 -11 -28.4 42.6
-31 11 -1 -9.1 11.2
1 -31 -11 19 10.6
-1 -31 -13 -1.3 9.4
31 -13 1 32 26.7
13 1 -31 -57.99 77.59
-1 -31 -13 -18 41
13 -1 -31 32.4 74.89
-31 13 -1 -4.3 11.8
1 -31 -13 8 10
31 -13 -1 -18.9 26.2
1 -31 -13 -6.1 40.5
3 -31 1 83.19 52.29
3 -31 1 17.3 12.1
1 3 -31 4.9 85.19
-3 -31 -1 -4.8 10.5
31 1 -3 48.6 36.9
-3 -31 -1 32.4 58.69
-1 -3 -31 31.4 78.59
3 -31 -1 -9.7 50.29
31 -1 -3 -11.2 35.6
-3 -31 1 6.5 60.49
-1 3 -31 -55.59 85.29
-3 -31 1 6.8 11.1
1 -3 -31 22.6 77.79
3 -31 -1 1.4 11.2
3 3 -31 66.99 90.79
-3 -3 -31 53.79 86.39
3 -31 3 5.8 55.99
31 3 -3 36.2 40.6
3 -31 3 79.29 15.6
31 -3 3 66.59 40
-3 -31 -3 72.89 60.69
-3 -31 -3 120.99 15.7
3 -31 -3 65.09 53.99
31 -3 -3 109.89 40
3 -3 -31 36.3 75.99
3 -31 -3 89.89 15.1
-3 -31 -5 211.68 24.1
3 -31 5 49.2 59.99
5 3 -31 166.28 94.79
-3 -31 -5 289.17 67.39
3 -31 5 237.48 25.9
31 -5 3 133.29 47.4
-5 -3 -31 24.5 86.09
-31 5 -3 198.78 24
3 -31 -5 214.28 24
5 -3 -31 66.69 79.19
31 -5 -3 187.28 44.8
3 -31 -5 208.58 58.29
-7 -3 -31 177.08 90.69
31 -7 3 173.18 44.6
-3 -31 -7 153.18 21
-3 -31 -7 202.98 61.89
7 3 -31 92.99 90.89
3 -31 -7 123.89 55.99
3 -31 -7 225.38 23
31 -7 -3 168.78 43.3
7 -3 -31 -10.4 80.59
-31 7 -3 235.08 24.4
-3 -31 -9 82.89 13
31 -9 3 37.2 36.2
-3 -31 -9 88.79 53.29
9 3 -31 -45.2 86.99
3 -31 -9 69.39 13.3
-31 9 -3 80.79 14.9
31 -9 -3 19.2 31.7
9 -3 -31 27.8 77.09
3 -31 -9 62.09 50.79
31 -11 3 -14.2 29.8
11 3 -31 -21.8 83.89
-3 -31 -11 19.9 45.2
-3 -31 -11 19.8 9.4
3 -31 -11 -23.5 43.1
-31 11 -3 30.7 12.3
31 -11 -3 5.6 29.2
3 -31 -11 5.5 10.3
11 -3 -31 -75.99 73.79
-3 -31 -13 17.9 9.3
13 3 -31 -31.1 79.59
-3 -31 -13 -22.6 41.9
31 -13 3 23.6 28.3
31 -13 -3 14.8 25.2
-31 13 -3 18.7 12.1
3 -31 -13 -40 40.1
13 -3 -31 -41.2 67.99
3 -31 -13 13.4 10.3
5 -31 1 -32.6 48.3
-5 -31 -1 92.09 13.9
-1 -5 -31 3.4 76.39
5 -31 1 67.69 14.6
1 5 -31 37.2 111.29
31 1 -5 -31.3 33.6
-5 -31 -1 13.8 61.49
5 -31 -1 65.49 49.4
31 -1 -5 39.4 35.4
1 -5 -31 57.79 75.29
5 -31 -1 58.89 14.4
-31 1 -5 88.79 12.4
5 -31 3 182.28 24.2
-5 -31 -3 256.77 24.9
-5 -31 -3 230.88 70.09
3 5 -31 207.78 100.69
5 -31 3 179.48 59.19
31 3 -5 152.18 45.2
-3 -5 -31 53.69 81.19
31 -3 -5 265.27 46.5
5 -31 -3 208.78 56.49
5 -31 -3 205.88 24.1
3 -5 -31 59.19 74.99
-31 3 -5 217.18 23.4
-5 -31 -5 363.96 36.4
-5 -5 -31 120.29 92.09
5 5 -31 157.08 101.19
31 5 -5 348.77 59.09
31 -5 5 342.67 63.39
5 -31 5 412.66 38.2
5 -31 5 170.68 65.89
-5 -31 -5 337.57 75.89
5 -31 -5 399.86 37.3
-31 5 -5 412.76 36.3
31 -5 -5 368.66 56.39
5 -31 -5 294.67 64.99
5 -5 -31 214.68 85.69
5 -31 7 357.66 37.8
-5 -31 -7 406.76 35.8
-5 -31 -7 351.86 73.79
7 5 -31 213.08 102.49
-7 -5 -31 163.98 97.09
31 -7 5 224.38 55.49
5 -31 7 181.38 66.79
5 -31 -7 416.96 36.7
7 -5 -31 263.97 86.89
5 -31 -7 338.67 66.39
31 -7 -5 350.66 54.29
-31 7 -5 376.56 36.6
-9 -5 -31 24 88.29
-5 -31 -9 148.89 61.49
-5 -31 -9 215.98 22.9
9 5 -31 80.59 94.39
31 -9 5 103.29 39.8
31 -9 -5 148.89 38.8
9 -5 -31 100.79 78.39
-31 9 -5 215.38 24.8
5 -31 -9 180.98 53.49
5 -31 -9 230.28 24.2
-5 -31 -11 43.7 47.9
31 -11 5 65.29 33.1
-5 -31 -11 56.29 11.8
11 5 -31 -21.5 86.69
5 -31 -11 82.39 13.7
5 -31 -11 66.19 43.8
-31 11 -5 97.09 15.5
31 -11 -5 58.99 30.9
11 -5 -31 -59.69 67.89
-7 -31 -1 70.19 14
-1 -7 -31 16.3 73.29
7 -31 1 61.29 14.4
7 -31 1 58.19 45.7
-31 -1 -7 68.59 11.8
31 1 -7 55.49 33.9
7 -31 -1 66.49 13.7
7 -31 -1 36.2 43.5
31 -1 -7 77.19 33.8
1 -7 -31 -11.5 67.59
-31 1 -7 51.69 11.5
-3 -7 -31 184.48 82.79
-7 -31 -3 208.78 23.5
-31 -3 -7 224.58 22.5
-7 -31 -3 109.39 68.19
7 -31 3 77.69 52.59
7 -31 3 194.78 23.3
31 3 -7 212.88 42.8
3 -7 -31 152.38 77.59
31 -3 -7 225.68 43.3
-31 3 -7 201.28 22.6
7 -31 -3 209.08 51.89
7 -31 -3 154.08 22.6
7 -31 5 284.07 65.99
5 7 -31 60.59 100.79
-7 -31 -5 429.66 35.7
31 5 -7 323.17 52.59
-31 -5 -7 367.16 35.3
-7 -31 -5 264.27 75.39
-5 -7 -31 158.58 90.69
7 -31 5 328.47 37.2
7 -31 -5 400.96 37.1
5 -7 -31 225.18 82.39
-31 5 -7 361.76 35.3
7 -31 -5 258.67 59.59
31 -5 -7 390.16 54.09
7 -31 7 263.37 68.79
-7 -7 -31 64.09 88.99
-7 -31 -7 329.97 77.39
7 -31 7 415.96 39.5
-7 -31 -7 433.56 36.9
7 7 -31 71.29 102.79
-31 7 -7 381.96 37.3
7 -31 -7 279.17 62.69
7 -7 -31 195.58 79.79
7 -31 -7 426.26 38.2
31 -7 -7 292.97 52.39
-7 -31 -9 210.08 21.9
7 -31 9 219.08 25.8
-7 -31 -9 179.78 60.39
9 7 -31 45.9 97.19
31 -9 7 138.79 41.8
7 -31 9 128.09 61.19
-9 -7 -31 75.19 86.99
-31 9 -7 195.98 22.7
7 -31 -9 191.28 22.4
31 -9 -7 162.08 38.8
7 -31 -9 92.79 49.7
9 -7 -31 93.39 71.09
-7 -31 -11 59.49 10.9
-7 -31 -11 -14.4 46.9
11 7 -31 -47.9 88.29
31 -11 7 24.8 33.9
7 -31 -11 57.99 12.9
-31 11 -7 70.49 14.2
31 -11 -7 32 28.6
11 -7 -31 -0.6 62.79
7 -31 -11 48.5 41.7
9 -31 1 4.5 11.5
-1 -9 -31 63.19 70.59
-31 -1 -9 15.7 9.4
31 1 -9 21.4 28.5
9 -31 1 10.9 41.6
1 -9 -31 -8.6 64.89
-31 1 -9 7.5 9
31 -1 -9 22.7 29.7
9 -31 -1 -83.69 38
9 -31 -1 -10.5 11.3
9 -31 3 44.1 45.7
-31 -3 -9 78.69 12.6
-3 -9 -31 -31.6 70.39
9 -31 3 100.39 16.3
31 3 -9 91.19 32.6
-9 -31 -3 109.69 14.5
31 -3 -9 28.8 32
9 -31 -3 74.59 15.2
-31 3 -9 77.39 13.3
3 -9 -31 41 67.59
9 -31 -3 24.9 39.6
-9 -31 -5 169.68 68.59
-31 -5 -9 213.18 22.9
9 -31 5 91.39 53.59
-9 -31 -5 256.97 24.2
-5 -9 -31 99.69 79.09
9 -31 5 205.58 25
31 5 -9 233.68 41.7
31 -5 -9 244.98 41.5
9 -31 -5 174.68 23.4
5 -9 -31 92.69 68.89
9 -31 -5 176.78 47.9
-31 5 -9 222.48 23.8
31 7 -9 184.58 39.4
-31 -7 -9 179.28 21.1
-9 -31 -7 53.49 60.89
9 -31 7 202.88 24.2
-9 -31 -7 216.18 21.7
-7 -9 -31 65.99 81.09
9 -31 7 172.58 56.19
-31 7 -9 203.18 22.6
9 -31 -7 169.88 22.2
9 -31 -7 156.88 47.6
7 -9 -31 80.79 65.69
31 -7 -9 143.69 38.5
9 -31 9 53.09 15.4
-9 -31 -9 45 10.7
-9 -9 -31 -63.29 75.29
-31 -9 -9 56.09 10.8
9 9 -31 -6.6 91.49
9 -31 9 29.3 50.69
-9 -31 -9 2.6 52.09
9 -31 -9 60.79 13.6
9 -31 -9 74.59 42
9 -9 -31 97.09 61.59
31 -9 -9 87.89 30.6
-31 9 -9 54.89 12.8
31 1 -11 -23 25.3
11 -31 1 12.3 39.3
-31 -1 -11 -9.5 8.4
-1 -11 -31 -68.29 66.49
11 -31 1 -10.8 11
11 -31 -1 -13 37
1 -11 -31 -25 62.19
-31 1 -11 -13.2 8.4
11 -31 -1 -13.7 11.3
31 -1 -11 -8.1 25.6
31 3 -11 -9.6 26.5
11 -31 3 9.5 40.5
11 -31 3 11.8 12.5
-3 -11 -31 63.49 72.09
-31 -3 -11 23.2 9.2
-31 3 -11 1.6 9.4
11 -31 -3 7.9 11.4
11 -31 -3 -19.8 35.5
3 -11 -31 42.7 61.79
31 -3 -11 -5.3 26.9
31 5 -11 104.49 32
11 -31 5 -21.5 41.6
11 -31 5 61.19 15.5
-5 -11 -31 46.4 73.49
-11 -31 -5 64.49 12
-31 -5 -11 68.19 11.6
5 -11 -31 31.6 59.49
11 -31 -5 37.9 37.2
31 -5 -11 86.19 31.7
-31 5 -11 77.39 12.6
11 -31 -5 57.09 14
-31 -7 -11 58.79 10.6
31 7 -11 59.89 30.7
-11 -31 -7 12 69.99
-11 -31 -7 48.6 11.1
11 -31 7 93.19 45.7
11 -31 7 47 15.1
-7 -11 -31 -32.6 74.19
11 -31 -7 49.4 13
11 -31 -7 38.2 37.9
-31 7 -11 76.39 12.3
31 -7 -11 41.6 30.5
7 -11 -31 47.4 57.29
-31 -1 -13 9.6 9
13 -31 1 -26 11.2
-1 -13 -31 -48.6 63.29
31 1 -13 35.8 25.9
13 -31 1 -61.89 33.4
1 -13 -31 9 59.99
13 -31 -1 -50.49 32.7
31 -1 -13 16.1 25.3
13 -31 -1 3.5 11.4
-31 1 -13 3.2 8.9
-31 -3 -13 17.7 9
31 3 -13 3.8 24.7
-3 -13 -31 -56.39 64.49
13 -31 3 16.8 12.3
13 -31 3 -34.7 36.3
13 -31 -3 0.1 11.4
13 -31 -3 -33.8 33
3 -13 -31 19.6 58.19
31 -3 -13 25 26.6
-31 3 -13 -0.1 8.7
0 -32 0 98.09 57.49
0 -32 0 52.19 13
0 0 -32 -49.1 77.99
32 0 0 23.4 38.7
-2 0 -32 -40.7 76.19
0 -32 -2 -30.6 52.49
0 -32 -2 10.5 10.8
0 -32 2 -69.39 55.69
0 -32 2 10.9 11.9
2 0 -32 39.2 79.09
32 -2 0 -7.1 35.6
32 -4 0 27.3 35.5
-4 0 -32 -194.48 76.39
0 -32 -4 41.7 52.09
0 -32 -4 7.3 10.4
0 -32 4 -95.29 54.69
4 0 -32 -44.2 77.09
0 -32 -6 -17.4 50.29
6 0 -32 -27 76.59
32 -6 0 41.6 34.2
0 -32 -6 36.2 11
0 -32 -8 33.5 48.6
0 -32 -8 20.4 10.4
8 0 -32 -15.8 79.19
32 -8 0 -21.7 30.4
32 -10 0 -34 29.6
0 -32 -10 6.8 9.7
10 0 -32 38.3 80.59
0 -32 -10 -51.49 42.2
-2 -32 0 -53.39 55.09
0 2 -32 11.2 83.39
0 -2 -32 -153.38 70.89
2 -32 0 10.5 11.7
32 0 -2 -60.09 34.3
-2 -32 0 2.7 10.7
2 -32 0 -40.7 50.49
2 2 -32 -10.9 83.19
32 2 -2 -66.69 36.5
2 -32 2 -14.7 52.39
2 -32 2 4.7 11.5
-2 -32 -2 31.3 54.39
-2 -32 -2 6.4 10.3
-2 -2 -32 -26.8 78.69
32 -2 2 30.7 38.4
-2 -32 2 -28.4 58.99
-2 2 -32 65.89 84.59
2 -32 -2 -17.3 49.4
2 -32 -2 -1.4 10.9
32 -2 -2 -11.5 35.8
-2 -32 2 -3.3 11.3
2 -2 -32 3.2 74.89
-2 -32 -4 55.59 12.6
2 -32 4 10.3 56.29
2 -32 4 43 13.9
-4 -2 -32 -64.09 79.19
4 2 -32 -13.5 82.09
-2 -32 -4 3.4 55.99
32 -4 2 28.9 37
2 -32 -4 21.4 51.99
32 -4 -2 55.59 35.4
2 -32 -4 61.49 12.9
4 -2 -32 136.59 80.09
-6 -2 -32 -21.1 82.29
6 2 -32 122.09 85.29
2 -32 6 52.59 60.69
32 -6 2 97.99 38.2
-2 -32 -6 107.49 15.4
-2 -32 -6 139.69 57.49
6 -2 -32 -106.09 74.39
32 -6 -2 60.39 36.2
2 -32 -6 109.89 15.3
2 -32 -6 114.09 53.29
32 -8 2 89.79 36.2
-2 -32 -8 59.79 51.29
8 2 -32 81.09 84.89
-2 -32 -8 49.3 11.6
8 -2 -32 -124.29 73.69
2 -32 -8 30.1 11.4
32 -8 -2 50.29 33.9
2 -32 -8 40.8 47.6
-2 -32 -10 48.8 47
10 2 -32 -155.68 78.39
32 -10 2 -9.9 27.7
-2 -32 -10 -6.6 9.4
2 -32 -10 5.8 9.8
2 -32 -10 -48.4 43
-32 10 -2 -2.7 10.5
10 -2 -32 -94.89 73.39
32 -10 -2 -0.3 29.5
4 -32 0 17.1 11.6
32 0 -4 40.8 37.2
0 -4 -32 -79.59 73.29
-4 -32 0 1 58.29
4 -32 0 -66.29 45.7
0 4 -32 24.6 86.69
-4 -32 0 7.6 10.5
4 -32 2 63.39 14.3
2 4 -32 58.49 88.99
-4 -32 -2 87.09 13.5
4 -32 2 30.4 50.39
32 2 -4 35.1 37.5
-2 -4 -32 84.19 82.09
-4 -32 -2 -5.2 58.69
32 -2 -4 92.39 38
4 -32 -2 42.2 13.5
4 -32 -2 80.89 49.7
2 -4 -32 75.99 75.39
32 -4 4 186.18 47.4
-4 -32 -4 225.18 22.2
-4 -4 -32 -53.29 80.79
4 -32 4 176.88 21.8
4 4 -32 6.1 87.79
-4 -32 -4 162.18 62.69
32 4 -4 99.39 45.4
4 -32 4 132.99 59.19
4 -32 -4 176.78 21.1
32 -4 -4 166.58 42.7
4 -4 -32 56.39 72.59
4 -32 -4 84.39 52.59
-32 4 -4 172.28 19.8
32 -6 4 169.88 47.9
-6 -4 -32 55.59 88.49
4 -32 6 120.59 62.59
6 4 -32 182.28 93.49
-4 -32 -6 263.07 27.5
4 -32 6 283.77 29.7
-4 -32 -6 171.08 65.09
4 -32 -6 280.97 27.8
32 -6 -4 246.88 46.6
4 -32 -6 159.48 57.59
6 -4 -32 99.29 80.79
-32 6 -4 256.17 26.5
-4 -32 -8 106.09 54.79
8 4 -32 85.19 90.79
-4 -32 -8 185.28 20.4
32 -8 4 126.19 40
-8 -4 -32 89.79 83.39
32 -8 -4 96.49 37
4 -32 -8 100.19 51.49
8 -4 -32 102.69 80.19
4 -32 -8 158.18 19.1
-32 8 -4 156.08 18.8
10 4 -32 -76.19 82.69
-4 -32 -10 56.19 11.5
-4 -32 -10 33.4 46.8
32 -10 4 50.29 32
4 -32 -10 60.39 45.6
4 -32 -10 38.2 12.1
10 -4 -32 59.79 72.89
-32 10 -4 46.9 12.3
32 -10 -4 61.39 31.4
6 -32 0 20.7 44.6
-32 0 -6 50.99 10.5
6 -32 0 47.4 12.9
0 -6 -32 18.6 70.09
32 0 -6 -3.9 33.2
32 2 -6 93.89 37.6
6 -32 2 91.99 16.5
6 -32 2 128.49 51.89
-6 -32 -2 113.79 15.9
-2 -6 -32 15.2 78.09
-6 -32 -2 32.3 59.29
6 -32 -2 130.69 17
6 -32 -2 82.59 47.2
2 -6 -32 13.4 68.99
-32 2 -6 118.09 14.8
32 -2 -6 92.29 36.9
-6 -32 -4 171.48 65.79
-6 -32 -4 245.28 25.9
-4 -6 -32 142.79 85.19
32 4 -6 170.88 45.6
4 6 -32 118.79 94.69
6 -32 4 248.38 27.7
6 -32 4 153.38 58.29
4 -6 -32 102.39 73.89
6 -32 -4 234.48 54.29
-32 4 -6 243.68 24.8
32 -4 -6 242.38 45.1
6 -32 -4 230.98 27
-6 -32 -6 241.78 67.49
6 -32 6 221.08 62.29
-6 -6 -32 156.58 87.99
-6 -32 -6 320.57 31.5
6 -32 6 343.57 33.8
6 6 -32 68.29 95.19
6 -6 -32 141.59 78.99
6 -32 -6 329.47 61.79
32 -6 -6 247.58 47.8
6 -32 -6 337.47 32.5
-32 6 -6 318.37 31.1
6 -32 8 210.48 61.09
8 6 -32 49.7 93.29
32 -8 6 158.58 44.7
6 -32 8 245.78 31.5
-6 -32 -8 183.48 63.39
-6 -32 -8 326.57 27.1
-8 -6 -32 33.6 84.39
6 -32 -8 196.48 55.19
-32 8 -6 255.17 27.2
8 -6 -32 147.09 76.89
32 -8 -6 178.68 42.3
6 -32 -8 279.67 28.2
8 -32 0 14.2 11.6
-32 0 -8 -0.3 8.5
8 -32 0 13.5 40.3
0 -8 -32 -70.89 65.59
32 0 -8 -6 30
-8 -32 -2 44.1 12.6
8 -32 2 66.89 14
8 -32 2 21.4 42.5
32 2 -8 -6.9 31.8
-32 -2 -8 72.79 11.4
-2 -8 -32 38 70.49
8 -32 -2 49.4 12.8
2 -8 -32 33.5 65.79
8 -32 -2 35.7 40.7
-32 2 -8 51.59 11
32 -2 -8 40.1 33.2
-8 -32 -4 163.98 19.4
8 -32 4 159.08 20.7
8 -32 4 143.59 51.29
-4 -8 -32 53.19 76.09
-32 -4 -8 158.78 19.1
32 4 -8 161.08 40.2
-8 -32 -4 192.68 64.99
8 -32 -4 186.38 20.5
-32 4 -8 139.59 18.5
4 -8 -32 86.89 69.79
32 -4 -8 177.98 39.5
8 -32 -4 191.98 48.4
32 6 -8 171.68 45.3
8 -32 6 143.29 57.89
6 8 -32 61.59 96.89
-32 -6 -8 249.58 27.6
8 -32 6 319.17 30.5
-8 -32 -6 120.09 66.19
-6 -8 -32 148.09 83.39
-8 -32 -6 335.07 27.7
32 -6 -8 257.37 45.1
8 -32 -6 219.68 53.49
-32 6 -8 255.07 27
8 -32 -6 225.58 28.2
6 -8 -32 187.38 71.69
10 -32 0 -16.4 37.3
32 0 -10 -1.9 28.8
10 -32 0 1 11.1
0 -10 -32 27 65.29
-32 0 -10 -5.3 8.5
32 2 -10 -9 28
10 -32 2 -21.5 39.9
10 -32 2 -6.6 11.4
-2 -10 -32 -1.1 66.49
-32 -2 -10 1 8.5
2 -10 -32 -10.7 60.89
10 -32 -2 -18.4 10.3
10 -32 -2 -54.09 35.1
-32 2 -10 8 8.9
32 -2 -10 30.8 29.9
32 4 -10 37.3 30.8
-32 -4 -10 42.4 9.9
-4 -10 -32 24 72.69
10 -32 4 12 41.8
10 -32 4 53.99 14.3
-10 -32 -4 63.79 12
4 -10 -32 11.4 58.99
10 -32 -4 41.6 38.4
-32 4 -10 34.5 10.6
32 -4 -10 40.1 31.1
10 -32 -4 32.4 12.7
-1 -33 -1 -23.9 53.29
-1 -33 -1 43.9 12.2
33 1 -1 20.4 37.2
1 1 -33 -90.29 74.99
-1 -1 -33 -14 74.59
33 -1 1 4.7 36
1 -33 1 35.5 12.6
1 -33 1 -58.99 50.59
1 -33 -1 43.2 12.5
1 -33 -1 7 52.39
1 -1 -33 -53.39 74.49
-1 -33 1 43.1 13.1
33 -1 -1 96.99 38.8
-1 1 -33 31.9 80.89
-1 -33 1 55.09 57.49
-1 -33 -3 4.8 10.3
33 -3 1 32.4 34.9
-1 -33 -3 -70.49 49
3 1 -33 -64.49 75.69
1 -33 3 -38.1 54.89
1 -33 3 -10.9 11.6
-3 -1 -33 54.69 78.39
1 -33 -3 2 10.6
1 -33 -3 64.29 51.19
-1 -33 3 20 56.39
-3 1 -33 12.6 77.79
33 -3 -1 -7.9 33.2
3 -1 -33 -10.6 73.09
-1 -33 -5 46.9 50.39
-5 -1 -33 -121.69 76.09
1 -33 5 -15.7 55.49
5 1 -33 41.7 80.59
-1 -33 -5 18 10.5
33 -5 1 -11.5 34
5 -1 -33 -8.5 73.39
33 -5 -1 17.3 31.8
1 -33 -5 21.8 48.7
1 -33 -5 23.7 10.5
-1 -33 -7 5.7 9.6
-1 -33 -7 11.2 47.1
7 1 -33 -29.5 73.99
33 -7 1 4.5 32.2
33 -7 -1 24.1 31.1
1 -33 -7 -23.6 44.5
1 -33 -7 5.2 9.9
7 -1 -33 83.49 77.49
3 -33 1 18.9 51.39
3 -33 1 -6.7 11.3
-3 -33 -1 -20.6 9.9
-3 -33 -1 -33.4 55.99
1 3 -33 88.09 82.39
-1 -3 -33 -40.1 74.49
33 1 -3 -53.09 35
1 -3 -33 -52.29 68.69
3 -33 -1 -40.1 49.2
-3 -33 1 41 55.29
-3 -33 1 -5.3 11
3 -33 -1 -1.8 11
-1 3 -33 -120.49 78.99
33 -1 -3 -62.39 33.5
-3 -33 -3 16.5 54.99
33 3 -3 0 36.7
3 -33 3 2.5 51.59
3 3 -33 103.79 85.39
3 -33 3 6.3 12.4
-3 -3 -33 -97.09 70.29
-3 -33 -3 36.4 11.1
33 -3 3 19.1 35.9
3 -3 -33 -65.69 70.09
3 -33 -3 -76.69 45.3
33 -3 -3 -0.9 33
3 -33 -3 27.7 11.4
-3 -33 -5 34.2 54.59
-5 -3 -33 28.3 79.19
3 -33 5 75.49 15.8
33 -5 3 82.99 37.7
5 3 -33 -75.19 78.89
-3 -33 -5 98.09 14.3
3 -33 5 -35.9 53.09
3 -33 -5 105.49 14.8
5 -3 -33 64.79 76.19
33 -5 -3 35.6 33.6
3 -33 -5 38.9 48.8
-1 -5 -33 -95.79 67.39
5 -33 1 86.09 49.4
5 -33 1 9.9 11.6
-5 -33 -1 25.2 10.6
1 5 -33 19.5 93.29
33 1 -5 34.4 35.6
-5 -33 -1 -21.2 54.09
33 -1 -5 27.1 34.5
5 -33 -1 11.4 11.4
1 -5 -33 -79.99 63.99
5 -33 -1 10.5 44.3
5 -33 3 72.39 15
33 3 -5 62.39 37.7
-3 -5 -33 28.1 75.19
-5 -33 -3 48 56.99
3 5 -33 36.1 86.89
5 -33 3 94.39 51.49
-5 -33 -3 94.29 13.5
3 -5 -33 49.7 70.19
33 -3 -5 80.09 37.9
5 -33 -3 11.8 46.3
5 -33 -3 63.99 14.1
-33 3 -5 78.29 13.8
5 -33 5 95.19 55.49
33 -5 5 105.99 49
-5 -5 -33 -80.59 77.69
5 -33 5 177.68 21.6
-5 -33 -5 131.79 58.49
-5 -33 -5 170.98 19.6
33 5 -5 137.49 51.69
5 5 -33 34.4 88.29
-33 5 -5 189.28 19.6
5 -33 -5 149.19 20.2
5 -5 -33 59.09 73.59
5 -33 -5 179.28 51.69
33 -5 -5 200.28 40.2
33 1 -7 -1.3 32.9
-33 -1 -7 33.5 9.2
7 -33 1 22.4 11.9
-1 -7 -33 -91.89 64.99
7 -33 1 25.5 42.6
7 -33 -1 7.8 11.2
1 -7 -33 -120.59 62.39
7 -33 -1 8.9 42.4
-33 1 -7 16.1 8.9
33 -1 -7 -18.9 30.9
