#------------------------------------------------------------------------------
#$Date: 2020-03-04 01:44:09 +0200 (Wed, 04 Mar 2020) $
#$Revision: 248653 $
#$URL: file:///home/coder/svn-repositories/cod/cif/4/13/43/4134304.cif $
#------------------------------------------------------------------------------
#
# This file is available in the Crystallography Open Database (COD),
# http://www.crystallography.net/
#
# All data on this site have been placed in the public domain by the
# contributors.
#
data_4134304
loop_
_publ_author_name
'Dolgopolova, Ekaterina A.'
'Berseneva, Anna A.'
'Faillace, Mart\'in S'
'Ejegbavwo, Otega A.'
'Leith, Gabrielle A.'
'Choi, Seok W.'
'Gregory, Haley N.'
'Rice, Allison M.'
'Smith, Mark D.'
'Chruszcz, Maksymilian'
'Garashchuk, Sophya'
'Mythreye, Karthikeyan'
'Shustova, Natalia B.'
_publ_section_title
;
 Confinement-Driven Photophysics in Cages, Covalent-Organic Frameworks,
 Metal-Organic Frameworks, and DNA.
;
_journal_name_full               'Journal of the American Chemical Society'
_journal_paper_doi               10.1021/jacs.9b13505
_journal_year                    2020
_chemical_formula_moiety         'C14 H14 N2 O4'
_chemical_formula_sum            'C14 H14 N2 O4'
_chemical_formula_weight         274.27
_space_group_crystal_system      monoclinic
_space_group_IT_number           14
_space_group_name_Hall           '-P 2yn'
_space_group_name_H-M_alt        'P 1 21/n 1'
_atom_sites_solution_hydrogens   mixed
_atom_sites_solution_primary     dual
_audit_creation_date             2019-01-16
_audit_creation_method
;
Olex2 1.2
(compiled 2018.05.29 svn.r3508 for OlexSys, GUI svn.r5506)
;
_cell_angle_alpha                90
_cell_angle_beta                 93.496(3)
_cell_angle_gamma                90
_cell_formula_units_Z            4
_cell_length_a                   12.9298(6)
_cell_length_b                   4.9895(2)
_cell_length_c                   20.3524(10)
_cell_measurement_reflns_used    9950
_cell_measurement_temperature    100(2)
_cell_measurement_theta_max      27.504
_cell_measurement_theta_min      3.311
_cell_volume                     1310.56(10)
_computing_cell_refinement       'SAINT+ Ver. 8.38A (Bruker-AXS, 2016)'
_computing_data_collection       'Bruker APEX3 v2016.5-0 (Bruker, 2016)'
_computing_data_reduction        'SAINT+ Ver. 8.38A (Bruker-AXS, 2016)'
_computing_molecular_graphics    'Olex2 (Dolomanov et al., 2009)'
_computing_publication_material  'Olex2 (Dolomanov et al., 2009)'
_computing_structure_refinement  'XL (Sheldrick, 2008)'
_computing_structure_solution    'XT (Sheldrick, 2015)'
_diffrn_ambient_temperature      100(2)
_diffrn_detector                 'Bruker PHOTON-100 area detector'
_diffrn_detector_area_resol_mean 10.4
_diffrn_detector_type            'CMOS area detector'
_diffrn_measured_fraction_theta_full 0.999
_diffrn_measured_fraction_theta_max 0.999
_diffrn_measurement_device       'three-circle diffractometer'
_diffrn_measurement_device_type  'Bruker D8 QUEST'
_diffrn_measurement_method       '\w and \f scans'
_diffrn_radiation_monochromator  'mirror optics'
_diffrn_radiation_probe          x-ray
_diffrn_radiation_type           MoK\a
_diffrn_radiation_wavelength     0.71073
_diffrn_reflns_av_R_equivalents  0.0517
_diffrn_reflns_av_unetI/netI     0.0230
_diffrn_reflns_Laue_measured_fraction_full 0.999
_diffrn_reflns_Laue_measured_fraction_max 0.999
_diffrn_reflns_limit_h_max       16
_diffrn_reflns_limit_h_min       -16
_diffrn_reflns_limit_k_max       6
_diffrn_reflns_limit_k_min       -6
_diffrn_reflns_limit_l_max       26
_diffrn_reflns_limit_l_min       -26
_diffrn_reflns_number            28627
_diffrn_reflns_point_group_measured_fraction_full 0.999
_diffrn_reflns_point_group_measured_fraction_max 0.999
_diffrn_reflns_theta_full        27.535
_diffrn_reflns_theta_max         27.536
_diffrn_reflns_theta_min         3.157
_diffrn_source                   'microfocus sealed X-ray tube'
_diffrn_source_type              'Incoatec I\ms'
_diffrn_standards_number         0
_exptl_absorpt_coefficient_mu    0.103
_exptl_absorpt_correction_T_max  0.7456
_exptl_absorpt_correction_T_min  0.6580
_exptl_absorpt_correction_type   multi-scan
_exptl_absorpt_process_details
;
SADABS-2016/2 (Bruker,2016/2) was used for absorption correction.
wR2(int) was 0.0923 before and 0.0607 after correction.
The Ratio of minimum to maximum transmission is 0.8825.
The \l/2 correction factor is Not present.
;
_exptl_crystal_colour            yellow
_exptl_crystal_colour_primary    yellow
_exptl_crystal_density_diffrn    1.390
_exptl_crystal_description       plate
_exptl_crystal_F_000             576
_exptl_crystal_size_max          0.18
_exptl_crystal_size_mid          0.12
_exptl_crystal_size_min          0.04
_refine_diff_density_max         0.294
_refine_diff_density_min         -0.238
_refine_diff_density_rms         0.048
_refine_ls_extinction_coef       0.0162(19)
_refine_ls_extinction_expression Fc^*^=kFc[1+0.001xFc^2^\l^3^/sin(2\q)]^-1/4^
_refine_ls_extinction_method     'SHELXL-2018/3 (Sheldrick 2018)'
_refine_ls_goodness_of_fit_ref   1.018
_refine_ls_hydrogen_treatment    mixed
_refine_ls_matrix_type           full
_refine_ls_number_parameters     188
_refine_ls_number_reflns         3020
_refine_ls_number_restraints     0
_refine_ls_restrained_S_all      1.018
_refine_ls_R_factor_all          0.0498
_refine_ls_R_factor_gt           0.0398
_refine_ls_shift/su_max          0.000
_refine_ls_shift/su_mean         0.000
_refine_ls_structure_factor_coef Fsqd
_refine_ls_weighting_details
'w=1/[\s^2^(Fo^2^)+(0.0455P)^2^+0.7119P] where P=(Fo^2^+2Fc^2^)/3'
_refine_ls_weighting_scheme      calc
_refine_ls_wR_factor_gt          0.0961
_refine_ls_wR_factor_ref         0.1022
_reflns_Friedel_coverage         0.000
_reflns_number_gt                2546
_reflns_number_total             3020
_reflns_threshold_expression     'I > 2\s(I)'
_cod_data_source_file            ja9b13505_si_005.cif
_cod_data_source_block           ead3100
_cod_depositor_comments
;
The following automatic conversions were performed:

data item '_diffrn_radiation_probe' value 'X-ray' was changed to
'x-ray' in accordance with the
/home/data/users/saulius/crontab/automatic-downloads/rss-feeds/ACS/lib/dictionaries/cif_core.dic
dictionary named 'cif_core.dic' version 2.4.2 last updated on
2011-04-26.

Automatic conversion script
Id: cif_fix_values 7556 2019-12-06 15:28:31Z antanas 
;
_cod_database_code               4134304
_shelx_shelxl_version_number     2018/3
_shelx_space_group_comment
;
The symmetry employed for this shelxl refinement is uniquely defined
by the following loop, which should always be used as a source of
symmetry information in preference to the above space-group names.
They are only intended as comments.
;
_shelx_estimated_absorpt_t_max   0.996
_shelx_estimated_absorpt_t_min   0.982
_olex2_refinement_description
;
1. Fixed Uiso
 At 1.2 times of:
  All C(H) groups, All C(H,H) groups
 At 1.5 times of:
  All C(H,H,H) groups
2.a Secondary CH2 refined with riding coordinates:
 C5(H5A,H5B)
2.b Aromatic/amide H refined with riding coordinates:
 C8(H8), C10(H10), C11(H11), C13(H13), C14(H14)
2.c Idealised Me refined as rotating group:
 C4(H4A,H4B,H4C), C7(H7A,H7B,H7C)
;
_shelx_res_file
;
TITL ead3100_a.res in P2(1)/n
    ead3100.res
    created by SHELXL-2018/3 at 15:49:29 on 16-Jan-2019
REM Old TITL EAD3100 in P2(1)/n
REM SHELXT solution in P2(1)/n
REM R1 0.125, Rweak 0.003, Alpha 0.022, Orientation as input
REM Formula found by SHELXT: C14 N2 O4
CELL 0.71073 12.9298 4.9895 20.3524 90 93.496 90
ZERR 4 0.0006 0.0002 0.001 0 0.003 0
LATT 1
SYMM 0.5-X,0.5+Y,0.5-Z
SFAC C H N O
UNIT 56 56 8 16
EQIV $1 1.5-X,0.5+Y,0.5-Z

L.S. 7
PLAN  9
SIZE 0.04 0.12 0.18
TEMP -173(2)
HTAB O4 N2_$1
list 4
BOND $H
CONF
fmap 2 53
ACTA 55.07
OMIT -14 0 16
REM <olex2.extras>
REM <HklSrc "%.\\EAD3100.hkl">
REM </olex2.extras>

WGHT    0.045500    0.711900
EXTI    0.016190
FVAR       0.59865
O1    4    0.403800    0.708888    0.478081    11.00000    0.02996    0.03259 =
         0.02402   -0.00632    0.01502   -0.00346
O2    4    0.211542    0.703712    0.362137    11.00000    0.03018    0.02609 =
         0.02795    0.00565    0.00355   -0.00356
O3    4    0.123554    0.515988    0.442059    11.00000    0.02155    0.02947 =
         0.03416    0.00625    0.00829    0.00095
O4    4    0.962635    1.144477    0.296227    11.00000    0.02590    0.03201 =
         0.02322   -0.00212    0.01205   -0.00615
H4    2    0.967448    1.077383    0.255959    11.00000    0.05993
N1    3    0.380312    0.388749    0.396884    11.00000    0.02288    0.02186 =
         0.02070    0.00040    0.01000   -0.00062
N2    3    0.512929    0.474859    0.333652    11.00000    0.02366    0.02139 =
         0.01732    0.00040    0.00730    0.00211
C1    1    0.432885    0.598499    0.429024    11.00000    0.02338    0.02273 =
         0.01938    0.00117    0.00790    0.00147
C2    1    0.522521    0.645263    0.389256    11.00000    0.02195    0.02239 =
         0.01654    0.00149    0.00846    0.00311
C3    1    0.429380    0.333737    0.339484    11.00000    0.02422    0.01919 =
         0.01833    0.00297    0.00675    0.00378
C4    1    0.386272    0.137123    0.290571    11.00000    0.03177    0.02571 =
         0.02298   -0.00144    0.00773   -0.00293
AFIX 137
H4A   2    0.369288   -0.029412    0.313059    11.00000   -1.50000
H4B   2    0.437611    0.100008    0.258267    11.00000   -1.50000
H4C   2    0.323411    0.210761    0.268041    11.00000   -1.50000
AFIX   0
C5    1    0.279178    0.305808    0.416185    11.00000    0.02450    0.02181 =
         0.02490    0.00250    0.00987   -0.00235
AFIX  23
H5A   2    0.282936    0.259795    0.463587    11.00000   -1.20000
H5B   2    0.256137    0.144773    0.390918    11.00000   -1.20000
AFIX   0
C6    1    0.202342    0.532522    0.402887    11.00000    0.02164    0.02288 =
         0.02122   -0.00186    0.00272   -0.00565
C7    1    0.046470    0.726728    0.431917    11.00000    0.02424    0.03645 =
         0.06091    0.01187    0.01225    0.00679
AFIX 137
H7A   2    0.019070    0.724888    0.385950    11.00000   -1.50000
H7B   2    0.078595    0.900956    0.442061    11.00000   -1.50000
H7C   2   -0.010179    0.696299    0.460907    11.00000   -1.50000
AFIX   0
C8    1    0.596254    0.825655    0.408212    11.00000    0.02401    0.02240 =
         0.01673    0.00035    0.00757    0.00325
AFIX  43
H8    2    0.582709    0.924118    0.446705    11.00000   -1.20000
AFIX   0
C9    1    0.692751    0.893797    0.379454    11.00000    0.02155    0.02154 =
         0.01693    0.00328    0.00582    0.00180
C10   1    0.731337    0.750389    0.326878    11.00000    0.02318    0.01967 =
         0.01801    0.00031    0.00468    0.00134
AFIX  43
H10   2    0.694667    0.597842    0.309982    11.00000   -1.20000
AFIX   0
C11   1    0.821837    0.827435    0.299263    11.00000    0.02459    0.02268 =
         0.01754    0.00018    0.00798    0.00315
AFIX  43
H11   2    0.847057    0.727715    0.263834    11.00000   -1.20000
AFIX   0
C12   1    0.876051    1.052006    0.323548    11.00000    0.02012    0.02495 =
         0.01848    0.00395    0.00675    0.00088
C13   1    0.841975    1.187397    0.378227    11.00000    0.02652    0.02408 =
         0.02147   -0.00153    0.00582   -0.00236
AFIX  43
H13   2    0.881025    1.333213    0.396703    11.00000   -1.20000
AFIX   0
C14   1    0.751446    1.109259    0.405462    11.00000    0.02685    0.02446 =
         0.01777   -0.00189    0.00866    0.00135
AFIX  43
H14   2    0.728583    1.203304    0.442485    11.00000   -1.20000
AFIX   0
HKLF 4




REM  ead3100_a.res in P2(1)/n
REM wR2 = 0.1022, GooF = S = 1.018, Restrained GooF = 1.018 for all data
REM R1 = 0.0398 for 2546 Fo > 4sig(Fo) and 0.0498 for all 3020 data
REM 188 parameters refined using 0 restraints

END

WGHT      0.0455      0.7119

REM Highest difference peak  0.294,  deepest hole -0.238,  1-sigma level  0.048
Q1    1   0.4761  0.6416  0.4062  11.00000  0.05    0.29
Q2    1   0.8319  0.9746  0.3015  11.00000  0.05    0.26
Q3    1   0.2354  0.4037  0.4057  11.00000  0.05    0.24
Q4    1   0.7055  0.8821  0.3438  11.00000  0.05    0.23
Q5    1   0.7088  1.0426  0.3795  11.00000  0.05    0.23
Q6    1   0.7167  0.8148  0.3583  11.00000  0.05    0.22
Q7    1   0.5205  0.5758  0.3592  11.00000  0.05    0.22
Q8    1   0.3960  0.1931  0.2399  11.00000  0.05    0.22
Q9    1   0.7318  0.9629  0.4023  11.00000  0.05    0.22
;
_shelx_res_checksum              89469
_shelx_hkl_file
;
   1   0   0    0.00    0.20
   1   0   0    0.00    0.20
   1   0   0    0.00    0.10
   1   0   0    0.00    0.10
   1   0   0   -0.10    0.10
  -1   0   0    0.00    0.10
   2   0   0    4.70    0.60
   2   0   0    6.70    0.80
   2   0   0    4.80    0.50
   2   0   0    4.50    0.60
   2   0   0    5.50    0.80
   3   0   0   -0.10    0.70
   3   0   0    0.40    0.40
   3   0   0    0.30    0.60
   3   0   0    0.30    0.60
   3   0   0    0.10    0.50
   4   0   0    7.80    0.80
   4   0   0    7.80    1.10
   4   0   0    7.80    1.10
   4   0   0    8.10    1.10
   4   0   0    6.80    1.20
   5   0   0    1.20    0.90
   5   0   0    0.80    0.70
   5   0   0   -0.50    0.80
   5   0   0    0.30    0.40
   5   0   0    1.10    0.80
   6   0   0  363.46   11.30
   6   0   0  349.77   11.10
   6   0   0  326.17   11.70
  -6   0   0  360.16   11.30
   6   0   0  327.77   10.40
   6   0   0  347.07   10.80
   7   0   0   -0.30    1.00
   7   0   0   -0.40    0.60
   7   0   0    3.20    1.30
   7   0   0    0.20    0.90
   7   0   0    0.40    1.20
  -7   0   0   -0.30    1.00
   8   0   0  104.39    4.40
   8   0   0   94.09    5.20
   8   0   0   93.29    4.50
  -8   0   0   96.69    4.60
   8   0   0   94.69    3.60
   8   0   0   96.89    4.10
   9   0   0    1.70    1.30
  -9   0   0   -1.40    1.10
   9   0   0   -0.90    0.60
   9   0   0    0.00    1.10
   9   0   0   -0.80    1.50
   9   0   0   -0.10    1.20
  10   0   0  127.89    4.50
  10   0   0  118.89    5.80
  10   0   0  131.79    6.90
  10   0   0  127.39    5.70
 -10   0   0  125.39    5.80
  10   0   0  132.39    5.30
  11   0   0   -0.10    1.50
 -11   0   0   -0.80    1.30
  11   0   0   -0.30    0.80
  11   0   0    0.70    1.60
  11   0   0    0.40    1.60
  11   0   0    2.70    2.00
  12   0   0  131.89    6.80
  12   0   0  144.79    6.10
  12   0   0  139.59    6.50
 -12   0   0  133.69    6.70
  12   0   0  142.39    8.10
  13   0   0    0.60    1.90
  13   0   0   -1.30    2.80
  13   0   0    1.00    2.00
 -13   0   0    0.90    1.60
  13   0   0    0.30    2.00
 -14   0   0   31.30    5.00
  14   0   0   19.30    3.10
  14   0   0   20.90    4.50
  14   0   0   20.40    3.60
  14   0   0   23.70    3.30
 -14   0   0   22.80    3.20
 -15   0   0    1.60    2.00
  15   0   0    0.10    1.90
  15   0   0   -1.50    2.10
  15   0   0    2.10    2.40
  15   0   0   -2.70    3.90
 -15   0   0    0.20    3.10
  16   0   0    7.00    3.00
 -16   0   0    0.80    2.20
  16   0   0    5.70    2.30
  16   0   0    1.40    2.40
 -16   0   0    5.50    4.00
  16   0   0   16.10    5.70
   0  -1   0    2.50    0.70
   0  -1   0    3.80    0.70
   0   1   0    3.30    0.70
   0   1   0    3.50    0.70
   1  -1   0 1217.68   33.40
  -1  -1   0 1109.59   33.40
  -1  -1   0 1188.88   33.00
   1  -1   0 1073.49   33.40
  -1  -1   0 1198.68   33.50
   1  -1   0 1122.99   33.70
   1  -1   0 1204.48   33.40
   1   1   0 1106.49   33.10
  -1   1   0 1122.99   33.60
   1   1   0 1114.29   33.70
  -1   1   0 1207.48   33.30
   1   1   0 1177.28   33.50
   1   1   0 1170.38   33.40
   2  -1   0 2886.91   86.79
  -2  -1   0 3091.49   86.29
   2  -1   0 3142.79   86.59
   2  -1   0 3227.28   86.59
   2  -1   0 2848.52   86.89
  -2  -1   0 2812.22   86.39
  -2   1   0 3165.08   86.29
   2   1   0 2786.52   86.89
   2   1   0 3187.78   86.89
  -2   1   0 2984.80   86.89
   2   1   0 3161.78   86.69
  -3  -1   0 1210.58   36.50
   3  -1   0 1209.28   37.20
  -3  -1   0 1328.77   36.70
   3  -1   0 1343.57   37.00
   3  -1   0 1219.38   37.30
   3  -1   0 1303.37   37.00
   3   1   0 1309.37   37.10
  -3   1   0 1309.77   36.40
   3   1   0 1231.08   36.90
  -3   1   0 1199.38   37.20
   3   1   0 1336.37   37.20
   3   1   0 1267.37   37.30
  -4  -1   0   10.30    1.20
   4  -1   0    9.80    1.20
   4  -1   0    7.40    1.20
   4  -1   0    6.90    1.10
   4  -1   0   10.80    1.40
   4   1   0    7.90    1.10
  -4   1   0   10.00    1.40
   4   1   0   10.70    1.50
   4   1   0    9.60    1.30
   4   1   0    8.40    1.30
   5  -1   0    8.90    1.30
   5  -1   0    8.90    1.70
   5  -1   0   11.20    1.40
   5  -1   0    9.60    1.00
   5  -1   0    9.90    1.40
  -5  -1   0    8.10    1.20
   5   1   0    6.00    1.10
   5   1   0    5.30    1.10
   5   1   0   10.40    1.50
  -5   1   0    7.90    1.20
   5   1   0    6.30    1.20
  -6  -1   0  789.72   23.50
   6  -1   0  812.42   23.80
   6  -1   0  766.52   23.70
   6  -1   0  787.82   22.70
   6  -1   0  800.92   23.60
   6  -1   0  782.92   24.50
   6   1   0  780.32   23.80
   6   1   0  778.92   23.80
   6   1   0  760.22   24.00
  -6   1   0  772.62   24.10
   6   1   0  762.02   24.00
   7  -1   0   79.69    3.80
   7  -1   0   84.79    4.00
   7  -1   0   87.39    3.90
   7  -1   0   81.89    4.70
   7  -1   0   86.29    3.20
  -7  -1   0   86.59    3.80
   7   1   0   83.99    4.10
  -7   1   0   78.39    4.20
   7   1   0   80.59    4.30
   7   1   0   82.49    4.00
   7   1   0   86.59    4.20
   8  -1   0   18.90    1.90
   8  -1   0   17.50    2.00
  -8  -1   0   15.00    1.90
   8  -1   0   17.40    1.60
   8  -1   0   20.90    3.00
   8  -1   0   17.10    2.30
   8   1   0   18.10    2.10
   8   1   0   17.80    2.60
   8   1   0   15.90    2.10
  -8   1   0   18.70    2.30
   9  -1   0   48.30    4.20
   9  -1   0   50.19    2.60
   9  -1   0   43.10    3.10
   9  -1   0   47.20    3.10
   9  -1   0   48.60    3.10
  -9  -1   0   49.50    3.10
   9   1   0   46.60    3.20
  -9   1   0   45.80    3.20
   9   1   0   48.20    3.90
   9   1   0   44.20    3.20
  -9   1   0   48.20    3.60
  10  -1   0  416.96   14.80
  10  -1   0  460.95   13.60
  10  -1   0  431.16   14.20
  10  -1   0  444.36   14.60
  10  -1   0  443.26   16.20
 -10  -1   0  431.76   14.60
  10   1   0  438.16   15.60
 -10   1   0  428.36   15.00
 -10   1   0  432.06   15.30
  10   1   0  430.56   15.00
  10   1   0  415.46   14.50
  11  -1   0    0.10    1.40
 -11  -1   0    2.70    1.50
  11  -1   0    1.40    2.20
  11  -1   0    0.70    1.40
  11  -1   0    3.00    1.80
  11  -1   0    0.40    1.30
 -11   1   0    1.00    1.70
  11   1   0    0.90    1.80
  11   1   0    0.50    1.60
 -11   1   0    1.80    1.70
  11   1   0   -0.30    2.10
  12  -1   0   14.20    2.30
  12  -1   0   16.60    3.40
  12  -1   0   13.60    2.60
  12  -1   0   16.10    2.10
  12  -1   0   14.20    2.20
 -12  -1   0   12.70    2.40
  12   1   0   20.10    3.60
 -12   1   0   16.40    2.80
 -12   1   0   15.70    2.80
  12   1   0   11.80    2.50
  12   1   0   13.20    2.70
  13  -1   0   38.90    3.90
  13  -1   0   49.00    3.60
  13  -1   0   45.60    4.00
 -13  -1   0   40.50    3.90
  13  -1   0   46.60    3.40
  13  -1   0   41.60    5.50
 -13   1   0   36.30    3.80
  13   1   0   44.30    4.00
  13   1   0   42.60    5.60
  13   1   0   42.50    4.20
 -13   1   0   48.60    5.20
  14  -1   0    2.00    1.90
  14  -1   0    3.90    2.00
 -14  -1   0    1.30    1.80
  14  -1   0    3.30    2.00
  14  -1   0    2.20    2.00
  14  -1   0   -1.80    3.80
 -14   1   0   -1.30    1.70
  14   1   0    4.30    2.10
  14   1   0    2.20    3.70
 -14   1   0    5.40    3.00
  14   1   0    1.80    2.20
  15  -1   0    4.40    2.40
  15  -1   0   11.20    2.70
  15  -1   0    2.50    4.80
  15  -1   0    3.60    2.40
  15  -1   0    3.20    2.20
 -15  -1   0    6.30    2.10
  15   1   0    0.40    4.10
  15   1   0    7.80    2.50
 -15   1   0    6.80    2.30
  15   1   0    5.00    2.60
 -15   1   0    6.70    3.70
  16  -1   0   -1.60    6.80
  16  -1   0   -3.20    2.50
  16  -1   0    0.70    2.60
  16  -1   0    3.80    2.20
 -16  -1   0    2.20    2.20
 -16   1   0    1.70    2.40
  16   1   0    7.40    5.20
  16   1   0    5.40    3.10
  16   1   0    1.10    3.00
 -16   1   0   -2.60    4.30
   0  -2   0  772.82   23.70
   0  -2   0  791.02   23.40
   0   2   0  783.02   22.90
   0   2   0  795.22   23.50
   0   2   0  763.02   23.80
  -1  -2   0   37.80    2.30
   1  -2   0   39.60    2.30
  -1  -2   0   39.30    2.50
   1  -2   0   36.00    2.60
  -1   2   0   37.10    2.50
   1   2   0   39.20    2.40
   1   2   0   39.50    2.30
   1   2   0   36.90    1.60
   1   2   0   39.90    2.70
  -1   2   0   33.90    2.20
  -2  -2   0  188.48    6.60
   2  -2   0  191.58    6.50
   2  -2   0  177.38    6.50
  -2  -2   0  184.38    6.60
  -2  -2   0  190.08    5.80
   2  -2   0  187.68    6.60
   2  -2   0  178.78    7.00
  -2   2   0  189.48    6.30
   2   2   0  194.68    6.60
  -2   2   0  180.78    6.90
   2   2   0  181.48    7.00
   2   2   0  181.78    5.80
   2   2   0  186.88    6.80
   3  -2   0    1.40    1.10
  -3  -2   0    1.10    0.70
   3  -2   0    2.30    0.90
   3  -2   0    1.60    0.90
  -3  -2   0    0.60    0.90
  -3  -2   0   -0.30    0.80
   3  -2   0   -0.10    0.80
   3   2   0   -0.70    1.10
   3   2   0    2.40    0.70
  -3   2   0    0.40    0.90
  -3   2   0    1.50    1.00
   3   2   0    2.50    1.30
   3   2   0    0.30    0.80
   4  -2   0  145.49    5.40
   4  -2   0  149.09    5.50
   4  -2   0  139.69    6.00
   4  -2   0  133.99    5.80
  -4  -2   0  147.39    4.80
  -4  -2   0  134.39    5.00
  -4   2   0  137.19    5.80
   4   2   0  141.79    5.50
   4   2   0  139.89    5.80
   4   2   0  137.99    5.00
  -4   2   0  138.29    4.70
   4   2   0  137.39    5.90
   5  -2   0   89.89    4.70
   5  -2   0   97.99    4.20
   5  -2   0   86.59    4.70
  -5  -2   0   98.39    3.70
  -5  -2   0  103.49    3.80
   5  -2   0   86.39    4.10
  -5   2   0   99.39    4.80
  -5   2   0   94.59    3.40
   5   2   0   94.09    4.00
   5   2   0   99.39    4.80
   5   2   0  102.39    4.50
   5   2   0   99.69    4.60
  -6  -2   0  224.38    7.40
   6  -2   0  221.98    7.90
   6  -2   0  216.88    7.90
   6  -2   0  213.58    8.70
   6  -2   0  210.98    8.40
  -6  -2   0  219.48    6.80
   6   2   0  215.78    8.50
  -6   2   0  214.08    8.40
   6   2   0  218.18    8.30
   6   2   0  218.68    8.20
   6   2   0  215.88    7.80
   7  -2   0    0.70    1.30
  -7  -2   0    0.70    1.00
   7  -2   0    1.50    1.50
   7  -2   0   -0.70    0.80
   7  -2   0    0.70    1.20
   7  -2   0    1.90    1.30
   7   2   0    0.00    1.20
  -7   2   0    0.70    1.20
   7   2   0    0.60    1.20
   7   2   0    4.80    1.50
   7   2   0    0.20    1.30
   8  -2   0  184.38    7.20
  -8  -2   0  187.98    7.00
   8  -2   0  182.08    7.60
   8  -2   0  185.38    7.40
   8  -2   0  187.38    5.90
   8  -2   0  183.58    8.40
   8   2   0  182.88    7.60
  -8   2   0  185.18    7.90
   8   2   0  182.18    7.90
   8   2   0  185.68    7.70
   8   2   0  185.78    7.50
   9  -2   0  543.95   18.20
   9  -2   0  567.84   19.60
   9  -2   0  557.44   18.30
   9  -2   0  565.14   16.30
   9  -2   0  548.25   17.90
  -9  -2   0  552.94   17.70
   9   2   0  544.75   18.50
   9   2   0  540.95   18.30
   9   2   0  539.05   18.40
   9   2   0  553.54   18.80
  -9   2   0  573.64   18.90
  10  -2   0   14.70    2.40
  10  -2   0   14.70    2.40
  10  -2   0   11.30    2.20
  10  -2   0   11.60    2.90
 -10  -2   0   10.90    1.90
 -10   2   0   11.90    2.40
  10   2   0   13.20    2.70
  10   2   0    6.90    2.30
  10   2   0    9.80    2.30
  10   2   0    8.10    2.20
 -10   2   0    9.40    2.00
  11  -2   0    5.70    2.10
  11  -2   0   14.00    3.50
  11  -2   0   13.60    2.60
 -11  -2   0   12.50    2.20
  11  -2   0   13.40    2.30
  11   2   0   10.00    2.50
 -11   2   0   10.70    2.60
 -11   2   0    8.70    1.90
  11   2   0   12.40    2.80
  11   2   0   12.10    2.70
  12  -2   0   23.80    4.50
  12  -2   0   24.30    3.30
  12  -2   0   28.60    3.40
 -12  -2   0   25.60    3.20
  12  -2   0   30.60    4.00
  12   2   0   23.00    3.70
  12   2   0   18.20    2.90
 -12   2   0   25.10    3.40
  12   2   0   21.90    3.40
 -12   2   0   31.00    4.50
 -13  -2   0   -1.00    1.80
  13  -2   0    2.00    2.40
  13  -2   0   -2.30    3.90
  13  -2   0    2.50    1.90
  13  -2   0   -0.90    1.90
  13   2   0   -4.60    2.30
  13   2   0    1.20    3.20
 -13   2   0    3.30    2.80
  13   2   0   -2.90    2.00
 -13   2   0   -1.00    1.70
  14  -2   0    5.30    4.80
 -14  -2   0   -2.80    1.90
  14  -2   0    1.30    2.80
  14  -2   0    3.60    2.40
  14  -2   0    4.40    2.00
  14   2   0   -2.80    3.70
 -14   2   0   -0.60    3.30
 -14   2   0    2.50    2.10
  14   2   0    0.70    2.50
  14   2   0    5.50    2.60
  15  -2   0   -0.90    3.00
  15  -2   0   -2.10    2.40
 -15  -2   0   -0.90    2.40
  15  -2   0    3.40    5.50
  15  -2   0   -2.20    2.50
  15   2   0   -4.40    4.10
 -15   2   0    1.90    4.00
  15   2   0   -0.90    2.60
 -15   2   0    1.80    2.00
  15   2   0    0.60    3.00
   0  -3   0   -1.70    1.00
   0  -3   0   -0.10    1.20
   0   3   0    1.70    1.30
   0   3   0   -0.60    1.30
   0   3   0   -0.30    0.60
   1  -3   0  248.78    9.00
  -1  -3   0  254.57    9.10
   1  -3   0  250.07    9.50
  -1  -3   0  244.78    9.30
  -1   3   0  248.88    9.50
   1   3   0  245.58    9.10
   1   3   0  242.58    9.40
  -1   3   0  258.87    8.90
   1   3   0  245.28    7.80
   2  -3   0  237.88    8.40
  -2  -3   0  225.88    8.50
   2  -3   0  241.38    8.60
   2  -3   0  224.78    9.10
  -2  -3   0  228.88    8.70
   2   3   0  222.68    8.70
   2   3   0  224.38    7.20
  -2   3   0  226.78    8.10
  -2   3   0  234.98    9.10
   2   3   0  232.88    9.00
   3  -3   0   53.99    3.30
  -3  -3   0   60.69    3.60
   3  -3   0   59.09    3.30
   3  -3   0   51.69    4.00
  -3  -3   0   54.39    2.40
  -3  -3   0   55.09    3.40
  -3   3   0   57.69    3.10
   3   3   0   55.19    2.40
   3   3   0   57.39    3.60
  -3   3   0   59.39    3.80
   3   3   0   56.89    3.40
   3   3   0   55.99    3.80
  -4  -3   0    0.80    1.10
   4  -3   0    0.30    1.20
   4  -3   0    3.40    1.50
  -4  -3   0   -0.20    1.00
   4  -3   0    0.20    1.20
  -4  -3   0    1.90    1.10
   4   3   0    1.40    0.70
  -4   3   0    1.40    1.20
   4   3   0   -1.70    1.30
   4   3   0    1.00    1.40
   4   3   0    2.00    1.50
  -4   3   0    1.00    1.30
   5  -3   0    1.80    1.20
  -5  -3   0    0.70    1.20
  -5  -3   0    3.60    1.10
   5  -3   0    0.80    1.40
  -5  -3   0    2.60    1.30
   5  -3   0    3.70    1.70
   5  -3   0    0.70    1.40
   5   3   0    2.20    1.70
   5   3   0    0.90    0.90
   5   3   0    3.10    1.50
  -5   3   0    3.10    1.50
  -5   3   0    2.50    1.10
   5   3   0    0.50    1.50
  -6  -3   0  246.38    9.70
   6  -3   0  263.67    9.60
   6  -3   0  250.97   10.10
   6  -3   0  275.67   10.60
  -6  -3   0  263.27    8.90
   6  -3   0  259.77    9.60
  -6  -3   0  271.97    8.60
  -6   3   0  261.87    8.40
  -6   3   0  266.27   10.40
   6   3   0  236.68   10.00
   6   3   0  245.88    9.80
   6   3   0  269.87   10.40
   6   3   0  254.67    8.90
   7  -3   0    5.90    2.20
  -7  -3   0    7.30    1.80
   7  -3   0    6.20    1.60
  -7  -3   0    7.70    1.30
  -7  -3   0    9.60    1.60
   7  -3   0   12.10    2.10
   7  -3   0    6.40    2.00
   7   3   0    6.00    1.50
   7   3   0    5.70    1.60
   7   3   0    5.30    1.80
  -7   3   0   10.00    2.30
   7   3   0    7.70    2.00
   8  -3   0   -1.70    2.20
   8  -3   0    1.00    1.90
   8  -3   0    1.40    1.40
   8  -3   0    1.70    1.40
  -8  -3   0   -0.10    1.00
  -8  -3   0   -1.50    1.30
   8   3   0    0.90    1.90
   8   3   0    1.70    1.80
   8   3   0   -0.90    1.50
   8   3   0   -0.30    1.90
  -8   3   0    0.40    1.90
   9  -3   0   60.69    4.00
   9  -3   0   58.99    5.00
   9  -3   0   67.99    5.80
  -9  -3   0   65.79    3.70
   9  -3   0   65.89    4.30
   9   3   0   60.29    4.30
  -9   3   0   64.19    5.10
   9   3   0   51.49    4.50
   9   3   0   60.69    4.60
   9   3   0   68.19    5.30
 -10  -3   0   14.50    2.40
  10  -3   0    8.70    2.30
  10  -3   0   19.10    3.90
  10  -3   0   15.20    3.10
  10  -3   0   10.20    2.30
  10   3   0   11.40    2.60
 -10   3   0    8.20    2.30
  10   3   0   16.80    2.70
  10   3   0   10.70    2.70
  10   3   0   12.50    2.60
 -10   3   0   15.60    3.30
  11  -3   0   13.30    2.60
 -11  -3   0   14.60    2.30
  11  -3   0   10.20    2.50
  11  -3   0   18.70    4.20
  11  -3   0   17.20    3.40
 -11   3   0   12.60    3.20
  11   3   0   11.20    3.10
  11   3   0   13.30    2.90
  11   3   0   12.80    3.10
 -11   3   0   11.50    2.50
  11   3   0   10.20    2.90
  12  -3   0  187.78    9.20
  12  -3   0  151.78    7.90
 -12  -3   0  173.58    7.50
  12  -3   0  172.48    8.00
  12  -3   0  180.58   11.00
  12   3   0  161.08    8.50
  12   3   0  161.98    8.40
  12   3   0  166.58    8.60
  12   3   0  173.98    9.40
 -12   3   0  164.68    8.10
 -12   3   0  176.38    9.70
  13  -3   0   -7.60    4.70
  13  -3   0    5.60    3.30
 -13  -3   0    0.70    2.30
  13  -3   0   -1.30    2.10
  13  -3   0    2.40    2.30
  13   3   0    1.00    2.50
 -13   3   0   -2.40    1.90
  13   3   0    3.10    3.60
 -13   3   0   -0.10    3.40
  13   3   0   -1.10    2.60
  14  -3   0   41.50    7.00
  14  -3   0   40.30    4.40
 -14  -3   0   48.40    4.50
  14  -3   0   50.19    6.70
  14  -3   0   37.20    4.80
  14   3   0   38.10    5.20
  14   3   0   45.60    6.90
 -14   3   0   41.50    4.70
  14   3   0   42.10    4.90
 -14   3   0   54.99    8.00
   0  -4   0   32.00    3.20
   0  -4   0   31.50    4.10
   0   4   0   36.00    2.30
   0   4   0   35.90    3.30
   0   4   0   33.00    3.90
   1  -4   0    9.50    1.90
   1  -4   0    9.70    2.50
  -1  -4   0    6.90    2.10
  -1  -4   0    8.40    2.00
   1   4   0   11.70    2.40
   1   4   0   14.60    2.70
  -1   4   0    7.80    2.20
   1   4   0    9.80    1.30
  -1   4   0    9.20    1.60
  -1   4   0   12.20    2.60
  -2  -4   0   32.60    3.70
  -2  -4   0   34.20    3.40
   2  -4   0   34.20    3.10
   2  -4   0   41.00    4.30
   2  -4   0   35.80    3.40
   2   4   0   38.50    3.80
  -2   4   0   42.00    3.20
   2   4   0   34.70    3.60
   2   4   0   36.70    1.80
  -2   4   0   40.70    4.20
  -2   4   0   41.10    3.40
   3  -4   0    4.90    1.80
  -3  -4   0    6.00    1.90
   3  -4   0    3.30    2.10
  -3  -4   0    7.80    2.10
   3  -4   0    2.60    1.60
  -3   4   0    6.30    1.90
   3   4   0    4.10    1.80
   3   4   0    5.90    2.20
  -3   4   0    4.30    2.00
   4  -4   0    4.40    2.30
   4  -4   0    9.60    2.10
   4  -4   0    9.10    1.80
  -4  -4   0    7.80    2.10
  -4  -4   0    5.30    1.90
   4   4   0    8.40    2.10
   4   4   0    7.90    2.20
   4   4   0    5.80    2.00
  -4   4   0    6.30    1.90
  -4   4   0    5.10    1.80
   4   4   0    6.70    1.00
  -5  -4   0   25.30    3.30
   5  -4   0   21.60    2.80
   5  -4   0   24.30    2.90
  -5  -4   0   16.30    2.60
   5  -4   0   24.00    3.40
  -5   4   0   25.80    2.60
  -5   4   0   22.70    3.50
   5   4   0   19.30    2.90
   5   4   0   24.70    4.10
   5   4   0   26.80    2.00
   5   4   0   23.00    3.40
   6  -4   0   10.00    2.70
   6  -4   0    6.40    2.10
  -6  -4   0    2.80    1.90
   6  -4   0    6.00    1.90
  -6  -4   0    4.90    1.90
  -6  -4   0    9.30    1.80
   6   4   0    4.60    1.40
   6   4   0    7.60    2.20
  -6   4   0    5.10    1.80
   6   4   0    5.10    2.30
  -6   4   0    7.30    2.10
   6   4   0    3.40    2.40
  -7  -4   0  127.49    6.00
  -7  -4   0  120.19    6.50
   7  -4   0  133.89    7.50
  -7  -4   0  129.29    5.20
   7  -4   0  123.99    6.20
   7  -4   0  118.29    6.10
   7   4   0  124.49    7.40
  -7   4   0  129.79    5.10
   7   4   0  116.39    5.30
  -7   4   0  129.79    7.30
   7   4   0  122.09    6.70
   7   4   0  119.99    7.00
   8  -4   0   11.60    2.50
   8  -4   0    6.40    2.10
  -8  -4   0    9.10    2.10
   8  -4   0    8.50    2.90
  -8  -4   0   12.00    2.30
  -8  -4   0    7.10    2.30
   8   4   0   10.50    2.90
   8   4   0   11.10    2.10
  -8   4   0   10.40    2.90
   8   4   0   10.50    2.90
   8   4   0    8.70    2.80
   9  -4   0    2.30    2.10
  -9  -4   0    4.50    2.00
   9  -4   0    3.20    3.40
  -9  -4   0    2.00    1.80
   9  -4   0    1.90    2.20
   9  -4   0    5.70    3.30
  -9  -4   0    3.40    2.20
   9   4   0   -0.50    2.30
  -9   4   0    0.90    2.70
   9   4   0    1.30    2.10
   9   4   0    6.20    2.90
   9   4   0    1.60    2.70
  10  -4   0    2.10    3.40
  10  -4   0   12.50    4.10
  10  -4   0    7.40    2.30
 -10  -4   0    7.40    2.20
  10  -4   0    6.80    2.50
 -10  -4   0   10.50    2.40
  10   4   0    4.00    2.60
 -10   4   0   10.50    4.00
  10   4   0    5.20    2.60
 -10   4   0    3.30    2.00
  10   4   0   12.40    2.60
  10   4   0   10.70    3.20
  11  -4   0   13.00    4.20
 -11  -4   0   16.40    3.20
 -11  -4   0   17.60    2.70
  11  -4   0    9.50    2.60
  11  -4   0   13.40    2.90
  11  -4   0    6.00    4.60
  11   4   0   13.10    3.10
 -11   4   0    8.50    4.60
  11   4   0   15.80    3.90
  11   4   0   13.00    3.30
  11   4   0   16.90    3.20
 -11   4   0   13.30    2.70
  12  -4   0   -0.10    4.10
 -12  -4   0    5.20    2.70
  12  -4   0    4.30    4.90
  12  -4   0    4.70    2.60
 -12  -4   0    8.90    2.70
  12  -4   0   10.10    2.90
 -12   4   0    7.50    2.40
  12   4   0    7.60    4.40
 -12   4   0   13.10    4.80
  12   4   0    9.30    3.40
  12   4   0    5.80    3.20
  12   4   0   10.80    3.60
  13  -4   0   12.60    6.30
  13  -4   0   11.20    2.80
 -13  -4   0   17.40    3.10
 -13  -4   0   14.50    3.40
  13  -4   0   14.10    5.10
  13  -4   0   16.50    3.40
 -13   4   0   17.90    3.20
 -13   4   0   19.60    6.00
  13   4   0   16.10    4.00
  13   4   0   19.30    4.00
  13   4   0   17.40    3.90
   0  -5   0    1.80    2.00
   0  -5   0   -1.10    2.50
   0   5   0    2.00    2.90
   0   5   0    3.20    2.20
   0   5   0    0.10    1.20
   1  -5   0    3.40    2.10
  -1  -5   0    3.80    3.00
  -1  -5   0    2.90    2.10
   1  -5   0    5.20    2.30
   1  -5   0    7.60    2.90
   1   5   0    5.50    2.50
   1   5   0    5.80    2.50
  -1   5   0    7.40    2.80
  -1   5   0    4.60    2.40
  -1   5   0    3.50    1.40
  -2  -5   0   12.80    3.20
   2  -5   0    6.70    2.60
   2  -5   0    7.70    3.40
   2  -5   0   13.30    2.70
  -2  -5   0   11.20    2.50
   2   5   0   14.70    3.10
   2   5   0    5.80    2.60
  -2   5   0   15.50    3.50
  -2   5   0    9.70    2.80
  -2   5   0   12.90    2.00
   3  -5   0    4.00    3.10
   3  -5   0   -0.10    1.90
  -3  -5   0    2.90    2.60
   3  -5   0    2.60    2.20
  -3  -5   0    1.60    2.00
  -3   5   0    4.30    3.00
   3   5   0    3.80    2.70
   3   5   0    2.70    2.50
  -3   5   0    3.90    2.40
  -3   5   0    5.50    2.10
  -4  -5   0  108.09    6.80
  -4  -5   0  124.79    7.20
   4  -5   0  121.09    6.60
   4  -5   0  112.29    6.20
   4  -5   0  125.89    8.40
   4   5   0  108.29    6.90
   4   5   0  118.49    7.70
  -4   5   0  131.39    8.20
  -4   5   0  106.69    5.80
   5  -5   0   27.00    3.30
   5  -5   0   16.60    3.90
  -5  -5   0   30.10    3.80
  -5  -5   0   29.40    4.10
   5  -5   0   22.20    3.30
   5   5   0   26.20    4.00
  -5   5   0   25.50    3.40
   5   5   0   27.70    4.20
  -5   5   0   29.70    4.40
   6  -5   0    2.80    2.40
   6  -5   0    0.10    2.10
  -6  -5   0   -1.90    2.70
  -6  -5   0    2.30    2.10
   6  -5   0    5.40    3.50
   6   5   0    2.00    3.10
  -6   5   0   -1.20    2.10
   6   5   0    1.20    2.30
  -6   5   0    1.70    3.10
   7  -5   0   -4.20    2.00
   7  -5   0    0.40    2.30
  -7  -5   0   -1.50    2.70
  -7  -5   0    2.40    2.10
   7  -5   0    2.80    3.60
  -7   5   0   -0.80    3.30
  -7   5   0    3.00    2.20
  -7   5   0    3.00    1.80
   7   5   0    0.20    2.40
   7   5   0    1.40    3.80
   7   5   0    0.60    2.70
   8  -5   0    9.60    2.90
   8  -5   0    2.40    4.30
  -8  -5   0    7.10    3.00
  -8  -5   0    4.50    2.50
   8  -5   0   11.10    2.80
   8   5   0    8.30    3.10
   8   5   0    8.40    3.30
   8   5   0    9.70    3.70
  -8   5   0    3.80    3.80
  -8   5   0   11.20    2.70
  -8   5   0    7.40    2.30
   9  -5   0    5.20    2.30
  -9  -5   0    6.80    2.70
  -9  -5   0   10.60    3.00
   9  -5   0   15.20    4.60
   9  -5   0    7.30    3.10
  -9   5   0    7.40    2.70
   9   5   0    7.80    2.40
   9   5   0    8.70    3.30
  -9   5   0    9.90    4.60
   9   5   0    8.80    4.10
   9   5   0   11.60    2.80
 -10  -5   0   -1.80    2.80
  10  -5   0    3.60    2.60
  10  -5   0   -0.20    2.40
 -10  -5   0   -1.10    2.60
  10  -5   0   -7.30    4.80
  10   5   0   -0.60    2.70
  10   5   0    0.80    3.00
 -10   5   0    2.50    2.20
  10   5   0    9.80    6.10
  10   5   0   -1.20    3.00
 -10   5   0    6.00    4.30
   0  -6   0   39.10    4.90
   0  -6   0   47.50    4.80
   0  -6   0   47.10    6.50
   0   6   0   47.30    5.20
   0   6   0   44.90    5.90
  -1  -6   0   11.40    3.40
   1  -6   0   14.90    5.20
   1  -6   0   12.40    2.90
   1  -6   0   11.60    3.30
  -1  -6   0   17.30    4.90
   1   6   0   13.70    3.60
  -1   6   0   10.10    3.00
  -1   6   0   12.90    4.60
   1   6   0   12.50    3.80
   2  -6   0   16.40    3.40
   2  -6   0   19.30    3.60
  -2  -6   0   12.10    3.20
  -2  -6   0   21.80    5.30
   2  -6   0   18.80    5.00
  -2   6   0   18.80    3.40
  -2   6   0   23.20    3.60
   2   6   0   22.10    3.90
   2   6   0   17.40    4.30
  -2   6   0   23.20    5.60
  -3  -6   0    0.20    2.90
   3  -6   0   -9.60    4.60
  -3  -6   0    1.10    4.50
   3  -6   0    0.40    2.70
   3  -6   0    0.70    2.30
  -3   6   0    4.90    2.90
  -3   6   0    0.90    4.80
   3   6   0    2.30    3.80
  -3   6   0   -3.00    2.80
   3   6   0    2.40    3.00
  -4  -6   0    6.80    2.90
   4  -6   0    8.80    2.60
   4  -6   0    3.80    5.00
  -4  -6   0    4.00    4.80
   4  -6   0    2.00    2.90
  -4   6   0    2.30    3.20
  -4   6   0    3.90    5.00
  -4   6   0    6.40    3.10
  -4   6   0    9.00    2.50
   4   6   0   13.90    4.50
   4   6   0    8.60    3.40
  -5  -6   0   37.90    5.90
  -5  -6   0   29.00    4.70
   5  -6   0   47.80    4.50
   5  -6   0   29.60    4.30
   5  -6   0   16.40    7.20
   5   6   0   26.20    4.40
  -5   6   0   32.90    4.60
   5   6   0   16.30    5.50
  -5   6   0   33.30    4.60
  -5   6   0   38.50    3.90
  -5   6   0   30.20    6.20
   6  -6   0    1.60    3.60
  -6  -6   0   15.60    3.70
   6  -6   0    8.20    2.90
   6  -6   0   14.10    3.50
  -6  -6   0    8.50    4.50
  -6   6   0   15.20    3.30
  -6   6   0    5.40    4.60
   6   6   0    7.20    6.60
  -6   6   0   16.70    2.80
   6   6   0   13.10    4.10
  -6   6   0    2.90    5.20
  16   0  -1   -2.60    3.10
  16   0  -1   -1.10    1.90
 -16   0   1   -2.40    3.90
  16   0  -1   -2.00    2.20
 -16   0   1    0.70    1.90
  16   0  -1    7.70    5.50
 -15   0   1    7.30    3.40
  15   0  -1   11.10    2.70
  15   0  -1   10.90    2.70
  15   0  -1   18.10    4.70
 -15   0   1    8.60    2.60
  15   0  -1   10.90    2.50
 -14   0   1   -1.50    1.80
  14   0  -1   -1.00    3.50
  14   0  -1   -1.90    1.90
 -14   0   1    1.20    2.70
  14   0  -1   -1.10    2.20
  14   0  -1   -2.00    1.80
  13   0  -1   63.49    4.00
  13   0  -1   57.39    4.50
 -13   0   1   54.59    4.40
  13   0  -1   69.39    6.30
  13   0  -1   59.69    4.40
  12   0  -1   -1.40    1.60
  12   0  -1    0.50    1.70
  12   0  -1    1.40    2.70
  12   0  -1   -2.00    1.60
 -12   0   1    1.50    1.50
 -11   0   1  188.78    7.90
  11   0  -1  189.48    9.00
  11   0  -1  175.88    7.90
  11   0  -1  186.18    7.70
  11   0  -1  199.38    7.30
  11   0  -1  186.38    6.20
  10   0  -1    0.00    0.80
  10   0  -1   -0.50    1.30
  10   0  -1   -0.40    1.90
  10   0  -1   -1.90    1.20
 -10   0   1   -0.30    1.50
  10   0  -1    0.30    1.40
   9   0  -1   29.90    2.60
   9   0  -1   32.00    1.80
  -9   0   1   32.10    2.70
   9   0  -1   30.20    2.70
   9   0  -1   29.40    2.40
   9   0  -1   34.30    3.50
   8   0  -1   -0.80    1.20
   8   0  -1    0.00    1.30
   8   0  -1   -1.30    1.10
   8   0  -1   -0.70    0.60
   8   0  -1   -0.50    1.00
   7   0  -1 1592.64   45.90
   7   0  -1 1655.13   45.60
   7   0  -1 1506.55   46.80
   7   0  -1 1514.55   45.10
   7   0  -1 1552.74   46.10
   6   0  -1    1.10    1.00
   6   0  -1    0.20    0.90
   6   0  -1   -0.80    1.10
   6   0  -1   -0.60    0.50
   6   0  -1    1.10    0.80
   5   0  -1  464.25   13.70
   5   0  -1  447.36   14.50
   5   0  -1  433.46   13.40
   5   0  -1  461.15   14.10
   5   0  -1  456.15   13.90
   4   0  -1    0.10    0.40
   4   0  -1   -0.20    0.80
   4   0  -1    0.50    0.60
   4   0  -1    0.30    0.80
   4   0  -1   -1.00    0.60
   3   0  -1  731.43   22.40
   3   0  -1  775.22   22.10
   3   0  -1  809.42   21.90
   3   0  -1  689.23   21.80
   3   0  -1  769.12   22.10
   2   0  -1   -0.10    0.50
   2   0  -1    0.30    0.40
   2   0  -1    0.60    0.50
   2   0  -1    0.80    0.30
   2   0  -1    0.20    0.40
   0   0  -1   -0.10    0.10
   0   0   1    0.00    0.10
   0   0  -1    0.00    0.10
   2   0   1    0.10    0.30
  -2   0  -1    0.20    0.40
   2   0   1    1.00    0.50
   2   0   1   -0.50    0.40
   2   0   1   -0.20    0.40
   2   0   1    0.10    0.40
   3   0   1    8.70    1.00
  -3   0  -1    8.90    1.00
   3   0   1    8.00    1.20
   3   0   1    7.90    0.90
   3   0   1    6.90    0.80
   3   0   1    8.10    0.90
   4   0   1    0.30    0.70
   4   0   1   -0.10    0.40
   4   0   1   -0.70    0.70
   4   0   1   -0.10    0.70
  -4   0  -1    0.10    0.70
   4   0   1    0.30    0.70
   5   0   1  208.28    6.70
  -5   0  -1  220.58    7.30
   5   0   1  211.48    7.70
   5   0   1  221.08    7.10
   5   0   1  221.88    7.10
   5   0   1  216.28    7.30
  -6   0  -1    0.20    0.90
   6   0   1   -0.10    0.90
   6   0   1    2.00    1.00
   6   0   1   -0.10    0.90
   6   0   1    0.10    0.50
   6   0   1   -0.40    0.90
   7   0   1   32.90    1.80
   7   0   1   36.60    2.30
   7   0   1   38.80    2.40
  -7   0  -1   37.10    2.50
   7   0   1   39.40    2.60
   7   0   1   35.80    3.00
   8   0   1    0.90    1.30
   8   0   1   -0.40    0.60
   8   0   1    0.60    1.30
   8   0   1   -0.30    1.00
   8   0   1   -1.00    1.00
  -8   0  -1    0.30    1.10
  -9   0  -1  758.92   24.20
   9   0   1  753.22   22.90
   9   0   1  791.72   25.20
   9   0   1  813.72   23.70
   9   0   1  775.22   24.00
   9   0   1  765.52   24.30
  10   0   1   -0.50    0.90
  10   0   1   -0.10    1.20
  10   0   1    2.10    2.00
 -10   0  -1    2.70    1.30
  10   0   1   -0.10    1.40
  10   0   1    1.40    1.40
  11   0   1  122.19    5.30
  11   0   1  111.59    5.80
  11   0   1  119.39    5.60
 -11   0  -1  114.69    5.60
  11   0   1   95.39    6.50
  11   0   1  112.49    4.20
  12   0   1    0.40    1.40
  12   0   1    0.00    1.60
  12   0   1   -3.10    1.60
 -12   0  -1    0.60    1.60
  12   0   1    1.40    2.60
  13   0   1  481.15   17.40
  13   0   1  488.45   16.90
  13   0   1  501.65   16.20
 -13   0  -1  468.95   17.10
  13   0   1  493.05   18.70
  14   0   1    2.80    2.20
  14   0   1    0.40    2.00
 -14   0  -1    1.10    1.80
  14   0   1   -1.00    1.80
  14   0   1    5.20    4.00
  15   0   1   10.60    2.40
  15   0   1   11.00    3.00
  15   0   1    8.20    2.60
  15   0   1   10.70    5.00
 -15   0  -1   12.00    3.60
 -15   0  -1   15.80    3.10
  16   0   1   -6.80    5.10
  16   0   1    3.20    2.70
  16   0   1    2.00    2.00
  16   0   1    0.90    2.80
 -16   0  -1    3.40    2.20
 -16   0  -1   -3.50    4.10
  16  -1  -1   -5.90    5.80
  16  -1  -1    1.20    2.30
  16  -1  -1   -0.50    2.50
  16  -1  -1    3.30    2.80
 -16  -1   1    6.70    2.50
 -16   1   1    0.80    2.20
  16   1  -1   -3.40    5.10
  16   1  -1    7.20    3.00
  16   1  -1    0.90    3.00
 -16   1   1   -6.90    4.30
  15  -1  -1   11.20    2.50
  15  -1  -1   12.80    2.80
 -15  -1   1    8.40    2.40
  15  -1  -1   21.30    2.80
  15  -1  -1   13.10    5.30
  15   1  -1   11.70    3.20
 -15   1   1   14.40    3.90
 -15   1   1   14.40    3.30
  15   1  -1   12.10    4.50
  15   1  -1   15.80    3.20
 -14  -1   1   29.70    3.60
  14  -1  -1   33.70    3.40
  14  -1  -1   24.50    3.40
  14  -1  -1   22.70    4.60
  14  -1  -1   29.00    3.40
  14  -1  -1   24.80    3.80
  14   1  -1   23.90    3.40
 -14   1   1   33.50    3.70
  14   1  -1   25.50    3.40
  14   1  -1   26.80    4.40
 -14   1   1   26.40    4.20
 -13  -1   1    4.50    2.10
  13  -1  -1   10.40    3.90
  13  -1  -1    6.60    2.20
  13  -1  -1    9.40    2.10
  13  -1  -1    5.50    2.20
  13  -1  -1   10.00    1.80
  13   1  -1    9.30    2.40
 -13   1   1    5.40    2.20
 -13   1   1    6.40    2.60
  13   1  -1   13.50    3.30
  13   1  -1    2.60    2.30
  12  -1  -1  189.38    6.40
  12  -1  -1  177.88    9.60
  12  -1  -1  175.58    7.00
  12  -1  -1  169.58    7.90
 -12  -1   1  168.28    7.50
  12  -1  -1  178.48    7.60
  12   1  -1  178.08    7.50
 -12   1   1  176.28    8.60
  12   1  -1  184.98    9.10
  12   1  -1  164.98    8.00
 -12   1   1  158.28    7.70
 -11  -1   1    6.70    1.90
  11  -1  -1    5.20    1.90
  11  -1  -1    5.30    1.60
  11  -1  -1    3.00    2.20
  11  -1  -1    6.00    2.20
  11  -1  -1    1.50    1.60
 -11   1   1    5.30    1.80
  11   1  -1    5.00    2.40
  11   1  -1    8.30    1.80
  11   1  -1    4.60    1.90
  11   1  -1    4.00    1.60
 -11   1   1    3.20    1.80
  10  -1  -1   51.99    3.40
  10  -1  -1   48.10    3.30
  10  -1  -1   48.40    3.50
  10  -1  -1   50.59    2.70
 -10  -1   1   43.70    3.20
  10  -1  -1   48.30    4.60
  10   1  -1   44.20    3.20
  10   1  -1   43.90    3.40
 -10   1   1   50.39    4.00
  10   1  -1   47.60    3.60
  10   1  -1   47.20    4.30
   9  -1  -1   17.40    2.70
   9  -1  -1   23.50    2.40
   9  -1  -1   23.00    1.80
   9  -1  -1   22.40    2.30
   9  -1  -1   16.30    2.30
  -9  -1   1   21.20    2.40
   9   1  -1   21.40    2.20
  -9   1   1   23.10    2.80
   9   1  -1   22.30    2.60
   9   1  -1   25.30    2.70
   9   1  -1   26.00    3.00
   8  -1  -1   44.10    2.80
   8  -1  -1   45.90    3.70
   8  -1  -1   42.40    2.90
  -8  -1   1   49.20    2.90
   8  -1  -1   45.50    3.00
   8  -1  -1   47.70    2.20
   8   1  -1   46.60    3.10
   8   1  -1   49.40    3.50
   8   1  -1   45.10    2.90
  -8   1   1   46.10    3.30
   8   1  -1   49.00    3.10
   7  -1  -1   10.60    1.20
  -7  -1   1    8.60    1.50
   7  -1  -1   11.30    1.70
   7  -1  -1    8.60    1.50
   7  -1  -1    8.60    1.40
   7  -1  -1   12.30    2.20
   7   1  -1   10.50    1.80
   7   1  -1    9.80    1.50
   7   1  -1    8.50    1.80
   7   1  -1    7.40    1.50
  -7   1   1   10.20    1.70
  -6  -1   1   19.70    1.70
   6  -1  -1   19.90    1.80
   6  -1  -1   16.90    2.30
   6  -1  -1   14.60    1.60
   6  -1  -1   15.70    1.20
   6  -1  -1   15.80    1.70
   6   1  -1   17.30    2.00
   6   1  -1   16.50    1.80
   6   1  -1   14.60    1.80
   6   1  -1   15.10    1.90
  -6   1   1   17.90    2.00
   6   1  -1   16.70    1.60
   5  -1  -1   43.50    2.40
   5  -1  -1   41.30    3.00
   5  -1  -1   43.30    2.50
  -5  -1   1   44.60    2.30
   5  -1  -1   45.50    1.60
   5  -1  -1   46.40    2.50
   5   1  -1   48.30    2.60
  -5   1   1   45.50    2.80
   5   1  -1   42.60    2.60
   5   1  -1   42.70    2.60
   5   1  -1   47.50    2.60
   4  -1  -1    6.00    0.50
   4  -1  -1    5.40    1.20
  -4  -1   1    4.80    0.70
   4  -1  -1    9.10    1.20
  -4  -1   1    6.60    1.00
   4  -1  -1    5.70    1.10
   4  -1  -1    7.50    1.20
   4   1  -1    5.10    1.20
  -4   1   1    5.10    1.10
   4   1  -1    4.80    1.00
   4   1  -1    6.00    1.20
   4   1  -1    5.20    1.00
  -3  -1   1   23.30    1.20
   3  -1  -1   23.60    1.90
   3  -1  -1   24.80    1.50
  -3  -1   1   23.70    1.30
   3  -1  -1   22.80    1.80
   3  -1  -1   26.40    1.60
   3   1  -1   21.60    1.70
   3   1  -1   23.20    1.70
   3   1  -1   22.10    1.50
  -3   1   1   24.50    0.90
  -3   1   1   24.10    1.80
   3   1  -1   25.60    1.90
   2  -1  -1   12.80    1.40
  -2  -1   1   12.70    1.10
   2  -1  -1   11.40    1.40
  -2  -1   1   15.20    0.80
   2  -1  -1   13.90    1.20
   2  -1  -1   12.60    1.10
   2   1  -1   14.30    1.00
  -2   1   1   12.30    0.80
   2   1  -1   13.50    1.40
   2   1  -1   13.00    1.40
   2   1  -1   13.80    1.40
  -1  -1   1   11.50    1.20
   1  -1  -1   15.20    1.30
   1  -1  -1   11.70    1.40
   1  -1  -1   13.80    1.00
  -1   1   1   12.90    1.40
  -1   1   1   15.40    1.00
   1   1  -1   12.90    0.60
   1   1  -1   11.90    1.20
   1   1  -1   12.80    1.20
   1   1  -1   12.60    1.30
   0  -1   1 1009.20   29.90
   0  -1  -1  989.20   29.90
   0  -1   1  959.80   29.30
   0  -1   1 1051.59   29.70
   0  -1  -1 1069.59   29.80
   0   1   1  993.70   30.10
   0   1   1 1085.99   29.80
   0   1  -1 1037.30   29.90
   0   1   1 1005.20   29.70
   0   1  -1 1059.69   29.80
   1  -1   1   23.80    1.40
  -1  -1  -1   23.60    1.40
   1  -1   1   22.10    1.60
   1  -1   1   24.60    1.30
  -1  -1  -1   20.90    1.40
   1  -1   1   22.90    1.30
  -1  -1  -1   23.90    1.20
   1   1   1   21.90    1.30
  -1   1  -1   23.70    1.30
   1   1   1   22.20    1.50
  -1   1  -1   22.90    1.50
   1   1   1   24.00    1.30
   1   1   1   21.50    1.70
  -2  -1  -1 1728.03   46.70
   2  -1   1 1524.15   47.10
   2  -1   1 1661.03   47.00
   2  -1   1 1665.23   46.80
  -2  -1  -1 1586.74   46.70
   2  -1   1 1535.65   47.00
  -2   1  -1 1576.74   47.10
   2   1   1 1597.84   46.80
  -2   1  -1 1623.14   46.70
   2   1   1 1703.13   46.90
   2   1   1 1599.64   47.20
   2   1   1 1724.63   47.20
   3  -1   1  915.71   28.20
  -3  -1  -1  910.71   27.50
   3  -1   1  985.20   28.10
   3  -1   1  925.71   28.30
  -3  -1  -1  991.40   27.80
   3  -1   1  998.60   27.90
  -3   1  -1 1005.20   27.60
   3   1   1  937.21   28.30
  -3   1  -1  902.31   28.10
   3   1   1  910.71   28.00
   3   1   1  995.00   28.00
   3   1   1  984.30   28.20
   4  -1   1   59.39    3.30
  -4  -1  -1   68.79    2.70
   4  -1   1   59.49    3.00
   4  -1   1   64.19    2.70
  -4   1  -1   63.39    3.00
   4   1   1   68.69    3.00
   4   1   1   60.19    2.90
   4   1   1   62.89    3.10
   4   1   1   65.89    3.00
   5  -1   1   26.90    1.90
   5  -1   1   26.50    2.00
  -5  -1  -1   29.30    1.80
   5  -1   1   27.50    1.50
   5  -1   1   25.80    1.90
   5  -1   1   25.80    2.40
   5   1   1   23.60    2.00
   5   1   1   25.80    2.00
  -5   1  -1   29.10    2.10
   5   1   1   26.00    2.00
   5   1   1   27.10    2.00
   6  -1   1   29.30    2.10
   6  -1   1   25.60    2.10
  -6  -1  -1   29.70    2.10
   6  -1   1   25.10    2.20
   6  -1   1   30.00    1.80
   6  -1   1   29.90    2.80
  -6   1  -1   28.80    2.30
   6   1   1   27.50    2.40
   6   1   1   32.10    2.30
   6   1   1   30.40    2.20
   6   1   1   30.80    2.30
   7  -1   1  105.39    4.50
   7  -1   1  106.39    4.40
   7  -1   1  109.39    3.90
  -7  -1  -1  107.49    4.50
   7  -1   1  104.09    4.60
   7  -1   1   99.69    5.20
  -7   1  -1  100.19    4.60
   7   1   1  107.59    4.70
   7   1   1  102.09    4.80
   7   1   1  102.59    5.00
  -7   1  -1  106.29    4.80
   7   1   1   99.59    4.60
   8  -1   1  241.58    7.90
  -8  -1  -1  238.38    8.70
   8  -1   1  242.58    9.80
   8  -1   1  241.68    8.60
   8  -1   1  245.48    8.60
   8  -1   1  241.18    8.90
  -8   1  -1  246.58    9.00
   8   1   1  243.28    8.90
  -8   1  -1  245.98    9.20
   8   1   1  245.98    8.90
   8   1   1  243.38    9.30
  -9  -1  -1    5.50    1.50
   9  -1   1    5.50    1.50
   9  -1   1    5.40    1.60
   9  -1   1    5.00    1.50
   9  -1   1    6.40    2.50
   9  -1   1    8.80    1.40
   9   1   1    5.10    1.80
   9   1   1    5.90    1.60
  -9   1  -1    4.90    1.40
  -9   1  -1    6.60    1.60
   9   1   1    6.10    1.70
 -10  -1  -1  374.36   12.80
  10  -1   1  365.96   12.60
  10  -1   1  356.76   13.00
  10  -1   1  364.36   12.40
  10  -1   1  378.76   14.30
  10  -1   1  379.76   11.80
  10   1   1  377.36   13.80
  10   1   1  365.26   12.80
 -10   1  -1  360.66   13.10
  10   1   1  367.06   13.10
 -10   1  -1  377.26   13.50
 -11  -1  -1   44.30    3.60
  11  -1   1   48.20    4.00
  11  -1   1   47.10    3.00
  11  -1   1   54.79    3.70
  11  -1   1   53.89    5.30
  11  -1   1   46.40    3.40
  11   1   1   50.29    3.70
  11   1   1   44.00    3.60
 -11   1  -1   56.59    4.30
  11   1   1   45.50    4.70
 -11   1  -1   49.40    3.80
  12  -1   1    2.40    1.60
  12  -1   1    2.00    1.70
 -12  -1  -1    1.00    1.40
  12  -1   1    0.30    1.50
  12  -1   1    2.70    2.80
  12  -1   1    4.00    2.20
 -12   1  -1   -1.20    1.30
  12   1   1    1.60    2.40
 -12   1  -1    1.00    2.00
  12   1   1    2.80    1.70
  12   1   1    1.50    2.00
  13  -1   1    2.50    1.90
  13  -1   1    3.50    2.30
 -13  -1  -1   -2.70    1.70
  13  -1   1    2.10    1.90
  13  -1   1    2.20    3.20
  13  -1   1   -0.50    1.70
  13   1   1    2.00    2.10
  13   1   1    0.70    2.70
 -13   1  -1    2.50    2.40
 -13   1  -1   -2.70    1.60
  13   1   1    1.20    2.10
 -14  -1  -1   29.00    3.50
  14  -1   1   34.10    5.80
  14  -1   1   33.50    3.80
  14  -1   1   38.40    3.60
  14  -1   1   33.40    3.50
  14  -1   1   36.40    4.10
 -14   1  -1   32.00    4.30
 -14   1  -1   34.10    3.60
  14   1   1   35.50    3.80
  14   1   1   33.20    4.10
  14   1   1   33.80    5.00
  15  -1   1   51.59    4.20
  15  -1   1   38.90    4.80
 -15  -1  -1   46.80    4.30
  15  -1   1   44.40    6.00
  15  -1   1   47.40    4.20
  15  -1   1   51.09    4.70
  15   1   1   51.99    4.90
 -15   1  -1   34.10    5.10
  15   1   1   49.00    6.30
  15   1   1   52.59    4.70
 -15   1  -1   46.50    4.50
 -16  -1  -1    3.90    2.50
  16  -1   1    1.30    2.80
  16  -1   1    6.70    6.30
  16  -1   1    3.10    2.70
  16  -1   1    2.70    2.40
 -16   1  -1    3.70    2.40
  16   1   1    4.60    2.70
 -16   1  -1    5.20    4.40
  16   1   1   -1.10    4.90
  16   1   1    7.30    3.30
  15  -2  -1   -2.30    3.00
 -15  -2   1    0.90    2.30
  15  -2  -1   -4.10    2.20
  15  -2  -1    2.20    2.50
  15  -2  -1    1.00    5.10
  15   2  -1   -0.40    2.90
  15   2  -1    2.30    4.40
 -15   2   1    0.40    4.00
  15   2  -1   -4.00    2.10
 -15   2   1    1.20    2.30
  14  -2  -1   20.50    3.30
 -14  -2   1   16.70    3.00
  14  -2  -1   17.20    3.50
  14  -2  -1   14.80    2.90
  14  -2  -1   11.80    4.40
 -14   2   1   20.30    3.10
 -14   2   1   14.40    4.40
  14   2  -1   20.00    3.30
  14   2  -1   17.60    3.30
  14   2  -1   19.10    3.80
 -13  -2   1   11.40    2.50
  13  -2  -1   11.20    2.90
  13  -2  -1   10.00    2.50
  13  -2  -1    7.40    3.80
  13  -2  -1    9.30    2.40
 -13   2   1    7.50    3.10
 -13   2   1   11.10    2.80
  13   2  -1   12.20    2.80
  13   2  -1   16.20    3.40
  13   2  -1   12.70    2.80
  12  -2  -1   48.60    3.90
  12  -2  -1   51.59    6.30
  12  -2  -1   44.60    4.50
 -12  -2   1   48.50    3.80
  12  -2  -1   50.09    4.00
  12   2  -1   51.09    4.30
 -12   2   1   48.10    5.20
  12   2  -1   47.30    5.30
  12   2  -1   46.60    4.00
 -12   2   1   45.60    4.10
 -11  -2   1   21.90    2.60
  11  -2  -1   24.90    2.90
  11  -2  -1   19.40    2.90
  11  -2  -1   24.20    4.00
  11  -2  -1   21.40    3.10
  11   2  -1   19.90    3.10
  11   2  -1   20.80    3.10
 -11   2   1   20.90    3.10
  11   2  -1   19.50    2.90
  10  -2  -1    5.80    1.90
 -10  -2   1    5.90    1.60
  10  -2  -1    6.20    1.90
  10  -2  -1    5.80    1.80
  10  -2  -1    3.80    2.60
 -10   2   1   10.00    2.30
  10   2  -1    4.50    2.00
  10   2  -1    4.40    1.90
  10   2  -1    5.40    2.00
  10   2  -1    3.80    1.80
   9  -2  -1  195.28    7.70
   9  -2  -1  190.78    8.00
   9  -2  -1  193.08    7.80
   9  -2  -1  192.28    9.20
  -9  -2   1  195.38    7.40
  -9   2   1  198.98    8.60
   9   2  -1  189.18    8.10
   9   2  -1  187.58    8.10
   9   2  -1  200.98    8.10
   9   2  -1  198.38    8.50
   8  -2  -1   57.19    3.50
   8  -2  -1   56.09    4.60
  -8  -2   1   60.29    3.20
   8  -2  -1   58.99    3.90
   8  -2  -1   63.99    3.60
   8   2  -1   60.79    3.80
   8   2  -1   64.59    3.90
   8   2  -1   51.09    3.70
  -8   2   1   55.89    4.10
   8   2  -1   62.39    4.10
  -7  -2   1   23.10    1.90
   7  -2  -1   21.40    2.10
   7  -2  -1   19.80    2.10
   7  -2  -1   19.00    2.50
   7  -2  -1   16.30    2.50
   7   2  -1   21.20    2.40
   7   2  -1   19.50    2.40
   7   2  -1   23.10    2.60
   7   2  -1   20.60    2.30
  -7   2   1   24.90    2.80
   6  -2  -1    8.50    1.70
   6  -2  -1    9.30    2.00
   6  -2  -1   12.40    1.80
  -6  -2   1   10.50    1.40
   6  -2  -1    7.70    1.80
  -6  -2   1    9.60    1.20
   6   2  -1   12.50    1.70
  -6   2   1    6.70    1.70
   6   2  -1    8.90    1.80
   6   2  -1   10.30    2.00
   6   2  -1   11.20    1.90
   5  -2  -1  113.39    5.40
   5  -2  -1  109.99    4.70
  -5  -2   1  116.99    4.20
  -5  -2   1  118.49    4.20
   5  -2  -1  114.59    4.70
   5  -2  -1  111.59    5.20
   5   2  -1  113.49    5.20
  -5   2   1  114.69    3.80
   5   2  -1  111.89    5.10
   5   2  -1  108.69    4.40
  -5   2   1  114.49    5.30
   5   2  -1  114.89    5.10
   4  -2  -1    0.10    1.00
   4  -2  -1   -1.30    1.00
   4  -2  -1    0.10    1.00
  -4  -2   1    0.20    0.60
  -4  -2   1   -0.30    0.70
   4  -2  -1   -0.40    0.80
  -4   2   1    0.50    0.80
   4   2  -1    0.60    1.10
   4   2  -1   -0.10    0.50
   4   2  -1    1.50    1.20
   4   2  -1   -1.30    1.10
  -4   2   1    0.70    0.90
   3  -2  -1  252.67    8.50
  -3  -2   1  255.17    7.50
  -3  -2   1  245.78    8.50
  -3  -2   1  250.17    8.30
   3  -2  -1  238.98    8.70
   3  -2  -1  242.88    8.90
   3  -2  -1  246.88    8.30
   3   2  -1  250.47    8.70
  -3   2   1  255.07    9.00
   3   2  -1  244.58    7.70
   3   2  -1  245.48    8.50
   3   2  -1  241.68    8.80
  -3   2   1  249.78    7.80
  -2  -2   1    3.50    0.60
  -2  -2   1    2.20    0.90
   2  -2  -1    1.40    1.00
   2  -2  -1    2.90    1.10
  -2  -2   1    3.10    1.00
   2  -2  -1    5.90    1.10
   2   2  -1    2.80    0.90
   2   2  -1    3.20    1.20
  -2   2   1    2.90    1.00
   2   2  -1    3.90    0.60
   2   2  -1    3.80    1.20
  -2   2   1    2.60    1.00
   1  -2  -1    9.50    1.60
   1  -2  -1    9.00    1.40
  -1  -2   1    8.90    1.30
  -1  -2   1   10.80    1.50
   1   2  -1   12.70    1.70
   1   2  -1    8.00    0.60
   1   2  -1    8.60    1.40
  -1   2   1    6.70    1.20
  -1   2   1    8.90    1.40
   0  -2   1  383.16   11.80
   0  -2   1  361.16   12.10
   0  -2  -1  384.86   11.90
   0  -2  -1  371.16   12.20
   0   2   1  366.96   11.80
   0   2   1  374.96   12.30
   0   2   1  367.96   11.50
   0   2  -1  368.86   11.90
   0   2  -1  370.36   12.10
   1  -2   1  108.39    4.10
   1  -2   1  101.69    4.50
  -1  -2  -1   99.39    4.30
  -1  -2  -1  101.09    4.20
   1   2   1  100.39    3.70
   1   2   1  102.19    4.10
  -1   2  -1  101.09    4.40
   1   2   1  102.19    4.60
  -1   2  -1  106.29    4.10
   1   2   1  100.89    4.30
   2  -2   1  230.48    8.00
   2  -2   1  241.38    8.10
  -2  -2  -1  246.18    7.50
   2  -2   1  244.78    8.10
  -2  -2  -1  238.48    8.10
  -2  -2  -1  241.78    8.20
   2  -2   1  237.58    8.60
   2   2   1  243.48    8.10
   2   2   1  238.08    8.30
  -2   2  -1  235.68    8.40
   2   2   1  244.38    8.70
  -2   2  -1  243.48    7.90
   2   2   1  242.48    7.60
  -3  -2  -1  379.96   12.10
   3  -2   1  368.56   12.40
   3  -2   1  400.26   12.20
   3  -2   1  380.26   12.80
  -3  -2  -1  388.56   11.70
   3  -2   1  390.66   12.30
  -3  -2  -1  391.36   12.40
  -3   2  -1  373.96   12.60
   3   2   1  376.96   12.80
   3   2   1  363.66   11.80
   3   2   1  378.76   12.30
   3   2   1  399.46   12.70
  -3   2  -1  393.66   11.80
  -4  -2  -1  372.56   11.80
   4  -2   1  372.96   12.70
   4  -2   1  389.96   12.30
   4  -2   1  367.06   12.50
  -4  -2  -1  396.16   11.60
   4  -2   1  386.26   12.10
  -4  -2  -1  374.06   12.30
  -4   2  -1  374.46   11.50
   4   2   1  381.56   12.80
  -4   2  -1  366.56   12.50
   4   2   1  367.76   12.20
   4   2   1  366.66   11.80
   4   2   1  383.96   12.60
   5  -2   1  586.04   18.60
   5  -2   1  571.34   19.00
   5  -2   1  582.74   19.10
  -5  -2  -1  638.44   18.10
  -5  -2  -1  582.84   17.80
   5  -2   1  605.34   18.40
   5   2   1  604.84   19.00
   5   2   1  593.64   18.70
  -5   2  -1  609.14   17.70
   5   2   1  596.24   19.10
  -5   2  -1  595.14   19.10
   5   2   1  584.44   18.30
   6  -2   1   19.40    2.00
  -6  -2  -1   20.00    1.40
   6  -2   1   18.40    2.50
   6  -2   1   20.40    2.60
   6  -2   1   17.50    1.90
  -6  -2  -1   18.40    1.80
  -6   2  -1   20.30    2.20
   6   2   1   15.70    2.10
   6   2   1   15.70    2.20
   6   2   1   15.00    2.20
   6   2   1   19.00    2.00
  -7  -2  -1   29.10    2.30
   7  -2   1   25.20    2.30
   7  -2   1   26.00    3.00
   7  -2   1   26.80    2.40
   7  -2   1   23.10    2.90
   7   2   1   25.40    2.60
   7   2   1   25.20    2.70
   7   2   1   21.00    2.40
   7   2   1   25.40    2.40
  -7   2  -1   24.40    2.70
   8  -2   1   27.40    3.30
  -8  -2  -1   28.00    2.40
   8  -2   1   31.20    2.70
   8  -2   1   29.20    3.50
   8  -2   1   30.10    2.50
   8  -2   1   33.30    2.00
  -8   2  -1   29.10    2.90
   8   2   1   24.30    2.70
   8   2   1   20.90    2.70
   8   2   1   24.40    2.80
   8   2   1   28.80    2.90
   9  -2   1  217.08    6.80
   9  -2   1  218.98    8.10
  -9  -2  -1  207.58    7.90
   9  -2   1  213.38    9.60
   9  -2   1  209.28    8.60
   9  -2   1  205.08    8.40
  -9   2  -1  218.48    8.80
   9   2   1  196.18    8.50
   9   2   1  204.28    8.60
   9   2   1  209.28    8.90
   9   2   1  207.28    8.50
  -9   2  -1  211.88    8.50
  10  -2   1  249.38    9.80
  10  -2   1  261.77   11.20
  10  -2   1  237.58    9.80
 -10  -2  -1  254.77    9.40
  10  -2   1  256.07    8.10
  10  -2   1  258.97    9.40
  10   2   1  233.08    9.80
  10   2   1  257.37   10.50
 -10   2  -1  263.17   10.40
 -10   2  -1  244.58    9.90
  10   2   1  245.18    9.90
  10   2   1  251.97   10.20
  11  -2   1   16.00    2.60
  11  -2   1   21.20    3.90
  11  -2   1   20.30    2.90
  11  -2   1   14.30    2.40
 -11  -2  -1   19.40    2.60
  11  -2   1   22.10    2.20
  11   2   1   20.30    3.20
 -11   2  -1   18.60    3.10
  11   2   1   17.80    2.90
  11   2   1   19.20    3.20
 -11   2  -1   17.20    2.60
  12  -2   1   25.60    3.30
  12  -2   1   30.00    2.50
  12  -2   1   28.30    3.30
  12  -2   1   28.30    3.90
 -12  -2  -1   23.00    3.20
  12  -2   1   27.80    4.40
  12   2   1   26.00    3.50
  12   2   1   29.70    3.70
  12   2   1   26.10    3.80
 -12   2  -1   29.30    4.50
 -12   2  -1   18.70    3.00
 -13  -2  -1    1.60    2.00
  13  -2   1    4.10    4.10
  13  -2   1    1.30    2.00
  13  -2   1   -0.30    2.30
  13  -2   1    3.80    2.20
 -13   2  -1    0.00    2.00
 -13   2  -1    1.40    2.70
  13   2   1    1.30    3.20
  13   2   1    2.60    2.30
  13   2   1   -3.90    2.00
  14  -2   1    1.80    2.60
 -14  -2  -1    1.50    2.20
  14  -2   1    1.00    2.30
  14  -2   1    2.70    2.70
  14  -2   1    0.60    4.60
 -14   2  -1   -1.50    3.10
  14   2   1   -0.40    2.50
  14   2   1   -0.70    2.20
  14   2   1    1.40    3.50
 -14   2  -1   -0.50    1.80
  15  -2   1    2.10    2.60
  15  -2   1    7.00    2.90
  15  -2   1   11.90    6.50
 -15  -2  -1    5.80    2.20
  15   2   1    7.80    3.20
  15   2   1    9.90    3.00
 -15   2  -1   16.80    4.30
 -15   2  -1    7.70    2.30
  15   2   1    2.30    4.60
  14  -3  -1    0.80    2.70
  14  -3  -1   -0.70    5.20
  14  -3  -1    3.90    2.30
 -14  -3   1   -0.10    2.40
  14  -3  -1    2.30    3.80
  14   3  -1    0.30    3.80
 -14   3   1    4.50    4.20
  14   3  -1    1.20    2.70
 -14   3   1    4.40    2.30
  14   3  -1    6.30    3.00
  13  -3  -1    4.40    2.40
  13  -3  -1    6.70    3.40
 -13  -3   1    5.40    2.40
  13  -3  -1    4.50    2.50
 -13   3   1    2.80    3.50
  13   3  -1    3.20    2.50
 -13   3   1    5.50    2.40
  13   3  -1    1.20    3.20
  13   3  -1    4.60    2.70
  12  -3  -1    4.80    4.10
 -12  -3   1    8.30    2.30
  12  -3  -1    8.10    2.00
  12  -3  -1   10.60    2.90
  12  -3  -1   10.70    3.40
  12   3  -1    9.30    3.10
 -12   3   1    6.30    2.10
  12   3  -1    5.40    2.80
  12   3  -1    9.10    2.80
 -12   3   1    6.80    3.30
  12   3  -1    5.90    3.20
 -11  -3   1   17.80    2.70
  11  -3  -1   20.80    3.50
  11  -3  -1   15.80    4.10
  11  -3  -1   18.30    3.00
  11  -3  -1   17.50    2.80
  11   3  -1   22.10    3.60
  11   3  -1   18.70    3.50
  11   3  -1   21.90    3.40
  11   3  -1   13.50    3.00
 -11   3   1   18.90    3.30
  10  -3  -1   -0.90    1.60
  10  -3  -1    0.80    1.50
  10  -3  -1    1.20    2.30
  10  -3  -1   -3.20    2.40
 -10  -3   1   -0.20    1.40
  10   3  -1   -1.70    2.00
  10   3  -1   -2.20    2.20
  10   3  -1    2.40    2.20
  10   3  -1    2.10    2.10
 -10   3   1    1.10    2.30
  -9  -3   1   59.49    3.50
   9  -3  -1   52.89    5.30
   9  -3  -1   53.09    4.70
   9  -3  -1   53.39    4.00
   9  -3  -1   51.19    3.80
   9   3  -1   55.79    4.40
   9   3  -1   49.70    4.20
   9   3  -1   55.49    4.10
  -9   3   1   59.89    5.10
   9   3  -1   53.59    5.00
   8  -3  -1  165.48    7.10
  -8  -3   1  168.38    5.80
  -8  -3   1  169.08    6.40
   8  -3  -1  165.38    7.10
   8  -3  -1  166.38    7.90
   8  -3  -1  175.58    8.50
  -8   3   1  168.48    8.10
   8   3  -1  161.78    6.80
   8   3  -1  174.98    8.10
   8   3  -1  161.18    7.70
   8   3  -1  157.38    7.60
   7  -3  -1   -0.40    1.50
   7  -3  -1   -0.30    1.40
   7  -3  -1   -0.20    1.90
  -7  -3   1   -1.30    1.10
   7  -3  -1    2.40    1.40
  -7  -3   1    2.50    1.10
   7   3  -1    2.90    1.80
   7   3  -1    1.90    1.90
   7   3  -1    0.50    1.70
   7   3  -1    1.40    1.30
  -7   3   1    1.00    1.80
   6  -3  -1  236.98    9.50
  -6  -3   1  233.58    7.60
   6  -3  -1  218.08    9.20
   6  -3  -1  234.18    8.60
  -6  -3   1  229.08    8.10
   6  -3  -1  221.48    8.60
  -6  -3   1  216.38    8.80
   6   3  -1  219.38    7.80
  -6   3   1  239.08    9.50
  -6   3   1  241.38    7.40
   6   3  -1  213.58    8.90
   6   3  -1  211.28    9.10
   6   3  -1  236.08    9.40
  -5  -3   1   -0.50    1.10
  -5  -3   1    0.90    1.20
   5  -3  -1    1.40    1.60
   5  -3  -1    1.90    1.10
   5  -3  -1   -0.10    1.20
  -5  -3   1   -0.60    1.00
   5   3  -1   -0.80    1.50
   5   3  -1   -0.60    1.50
   5   3  -1    0.60    0.80
   5   3  -1   -0.60    1.50
  -5   3   1    1.70    1.50
  -5   3   1   -2.50    1.10
   4  -3  -1  119.79    6.00
  -4  -3   1  122.09    5.30
   4  -3  -1  119.99    5.10
  -4  -3   1  122.19    4.10
   4  -3  -1  116.89    5.40
  -4  -3   1  118.09    5.40
   4   3  -1  115.79    5.70
  -4   3   1  118.49    4.60
   4   3  -1  116.49    4.10
   4   3  -1  112.69    5.50
   4   3  -1  122.69    5.90
  -4   3   1  114.79    5.90
   3  -3  -1   79.99    4.10
  -3  -3   1   82.39    4.10
   3  -3  -1   79.09    4.80
  -3  -3   1   82.59    4.20
   3  -3  -1   74.59    3.90
   3   3  -1   75.59    4.30
   3   3  -1   73.79    4.40
   3   3  -1   76.69    2.80
  -3   3   1   80.09    4.60
  -3   3   1   78.49    3.70
   3   3  -1   79.99    4.20
   2  -3  -1   60.09    3.10
   2  -3  -1   56.49    4.00
   2  -3  -1   58.49    3.50
  -2  -3   1   52.49    3.60
  -2  -3   1   48.80    3.30
  -2   3   1   56.39    3.70
  -2   3   1   58.29    3.20
   2   3  -1   53.99    3.60
   2   3  -1   52.99    3.60
  -1  -3   1   17.60    2.30
   1  -3  -1   19.50    2.10
   1  -3  -1   18.40    2.50
  -1  -3   1   15.80    2.40
  -1   3   1   16.30    2.30
   1   3  -1   18.40    2.50
   1   3  -1   15.00    2.40
   1   3  -1   13.30    1.00
  -1   3   1   11.40    1.80
  -1   3   1   13.80    1.80
   0  -3   1    6.30    1.60
   0  -3   1    4.00    1.40
   0  -3  -1    4.00    1.50
   0  -3  -1    5.50    1.60
   0   3  -1    3.90    1.50
   0   3   1    5.00    1.50
   0   3   1    6.40    1.60
   0   3  -1    4.10    0.80
   0   3   1    6.80    1.10
   0   3  -1    2.60    1.30
  -1  -3  -1   19.20    2.40
   1  -3   1   19.20    2.20
  -1  -3  -1   20.40    2.30
   1  -3   1   17.00    2.40
   1   3   1   15.80    1.50
   1   3   1   20.90    2.50
  -1   3  -1   18.00    2.20
   1   3   1   15.40    2.50
  -1   3  -1   15.10    2.50
   2  -3   1   21.30    2.30
  -2  -3  -1   18.10    2.40
   2  -3   1   13.50    2.10
   2  -3   1   23.50    2.10
  -2  -3  -1   19.30    2.20
  -2   3  -1   21.60    2.50
   2   3   1   16.50    2.30
   2   3   1   22.50    1.50
   2   3   1   20.50    2.60
  -2   3  -1   18.80    2.10
  -3  -3  -1   63.19    3.60
   3  -3   1   60.29    3.40
  -3  -3  -1   61.29    3.70
  -3  -3  -1   60.19    2.80
   3  -3   1   61.79    4.10
   3  -3   1   63.39    3.50
   3   3   1   56.69    2.60
  -3   3  -1   61.39    3.90
   3   3   1   55.19    3.80
   3   3   1   61.49    3.50
  -3   3  -1   61.79    3.20
   3   3   1   59.99    3.80
  -4  -3  -1    0.90    1.10
   4  -3   1    0.00    1.30
  -4  -3  -1   -1.40    1.00
   4  -3   1    2.20    1.30
   4  -3   1    0.40    1.20
   4  -3   1   -0.20    1.10
  -4  -3  -1   -0.50    1.10
   4   3   1   -0.60    1.40
   4   3   1    1.20    1.20
   4   3   1    0.50    1.40
  -4   3  -1   -0.90    1.10
  -4   3  -1   -0.20    1.20
   4   3   1    1.60    0.90
   5  -3   1  139.29    6.60
  -5  -3  -1  144.79    6.40
   5  -3   1  144.99    6.10
  -5  -3  -1  150.48    5.40
  -5  -3  -1  150.58    5.90
   5  -3   1  146.59    7.10
   5  -3   1  145.09    6.20
   5   3   1  152.18    7.00
   5   3   1  149.29    5.60
  -5   3  -1  154.78    6.80
   5   3   1  134.89    6.60
   5   3   1  147.99    6.30
  -5   3  -1  154.88    5.50
   6  -3   1   -0.80    1.30
  -6  -3  -1    2.70    1.20
  -6  -3  -1    0.10    1.30
   6  -3   1   -0.10    1.40
   6  -3   1    0.80    1.60
   6  -3   1    0.50    1.60
  -6  -3  -1   -0.60    1.10
  -6   3  -1    3.10    1.30
  -6   3  -1    2.10    1.70
   6   3   1    1.30    1.70
   6   3   1    3.20    1.70
   6   3   1   -0.50    1.10
   6   3   1    0.60    1.60
  -7  -3  -1   55.39    2.90
  -7  -3  -1   56.99    3.80
   7  -3   1   57.49    4.70
   7  -3   1   58.79    4.50
   7  -3   1   55.29    3.80
   7  -3   1   57.09    3.50
  -7  -3  -1   51.99    3.10
   7   3   1   53.69    4.00
   7   3   1   51.89    3.90
  -7   3  -1   56.39    4.40
   7   3   1   58.89    4.30
   7   3   1   50.19    3.40
  -8  -3  -1   36.40    3.50
   8  -3   1   35.50    4.40
  -8  -3  -1   36.90    2.80
   8  -3   1   32.80    3.20
   8  -3   1   31.20    3.00
  -8  -3  -1   30.20    2.20
   8  -3   1   30.90    4.00
   8   3   1   32.70    3.20
  -8   3  -1   31.60    3.70
   8   3   1   35.70    3.50
   8   3   1   31.40    3.90
   8   3   1   33.30    3.60
  -9  -3  -1    0.00    1.40
   9  -3   1    3.40    1.90
   9  -3   1    3.40    2.30
   9  -3   1    3.20    1.70
   9  -3   1    2.60    2.50
   9  -3   1    2.60    1.30
  -9   3  -1    1.00    1.80
   9   3   1    0.90    1.70
  -9   3  -1    3.90    2.10
   9   3   1    1.80    2.30
   9   3   1    2.50    2.10
   9   3   1    3.00    2.10
  10  -3   1    1.00    1.30
 -10  -3  -1    0.00    1.50
  10  -3   1   -0.50    1.70
  10  -3   1   -4.00    2.60
  10  -3   1    5.00    2.30
  10  -3   1   -2.70    1.60
  10   3   1    2.80    2.40
 -10   3  -1   -2.50    2.30
  10   3   1   -2.40    1.60
 -10   3  -1    1.20    1.50
  10   3   1   -0.70    2.00
  10   3   1   -1.90    2.20
 -11  -3  -1   35.70    3.40
  11  -3   1   35.70    3.70
  11  -3   1   34.00    3.70
  11  -3   1   41.20    5.90
  11  -3   1   40.60    5.10
  11   3   1   32.90    4.10
  11   3   1   41.70    5.00
  11   3   1   46.40    5.30
 -11   3  -1   43.80    5.30
 -11   3  -1   38.80    3.70
  11   3   1   42.00    4.40
  12  -3   1    0.80    1.90
  12  -3   1    0.70    2.10
 -12  -3  -1   -0.50    1.70
  12  -3   1    0.80    3.80
  12  -3   1   -3.90    2.60
  12   3   1   -0.60    2.80
 -12   3  -1   -0.30    1.80
 -12   3  -1    0.40    3.10
  12   3   1   -1.50    2.70
  12   3   1   -1.70    2.10
  12   3   1    1.10    2.40
  13  -3   1   21.10    3.80
  13  -3   1   16.00    2.90
  13  -3   1   25.50    5.40
  13  -3   1   17.20    2.90
 -13  -3  -1   16.40    2.90
  13   3   1   13.20    3.10
  13   3   1   17.00    3.70
 -13   3  -1   15.80    2.90
  13   3   1   15.40    3.60
 -13   3  -1   11.60    4.20
  14  -3   1   25.00    4.50
 -14  -3  -1   23.40    3.30
  14  -3   1   22.40    3.40
  14  -3   1   38.10    7.40
  14  -3   1   23.60    3.80
  14   3   1   21.20    3.50
  14   3   1   22.90    4.10
  14   3   1   28.10    4.80
 -14   3  -1   11.00    4.20
 -14   3  -1   24.40    3.60
  13  -4  -1   41.40    4.90
  13  -4  -1   35.20    4.80
 -13  -4   1   51.39    5.00
  13  -4  -1   45.40    6.10
 -13  -4   1   52.89    4.70
 -13   4   1   45.80    4.60
  13   4  -1   42.00    5.20
  13   4  -1   46.50    5.50
 -13   4   1   68.39    9.30
  13   4  -1   45.20    5.40
  12  -4  -1   37.90    4.20
  12  -4  -1   34.90    4.10
  12  -4  -1   29.20    5.20
 -12  -4   1   41.50    4.10
 -12  -4   1   31.60    4.40
 -12   4   1   35.30    3.80
 -12   4   1   50.79    6.70
  12   4  -1   36.60    4.40
  12   4  -1   27.00    4.50
  12   4  -1   35.40    5.00
  12   4  -1   36.60    5.80
  11  -4  -1   11.90    4.10
 -11  -4   1   10.50    2.50
  11  -4  -1   17.30    3.10
  11  -4  -1   11.30    2.50
 -11  -4   1   17.80    2.70
  11   4  -1   12.40    3.10
 -11   4   1   16.60    4.80
  11   4  -1   10.80    2.90
 -11   4   1   15.00    2.80
  11   4  -1   13.30    3.40
  11   4  -1   19.50    4.20
 -10  -4   1    3.60    2.20
  10  -4  -1    3.30    3.50
  10  -4  -1    2.30    2.20
 -10  -4   1   -1.60    1.80
  10  -4  -1    0.80    1.90
  10   4  -1   -0.50    2.30
 -10   4   1   -1.50    3.90
  10   4  -1    3.20    3.00
  10   4  -1    5.70    2.90
  10   4  -1   -2.50    2.10
   9  -4  -1    4.90    2.00
  -9  -4   1    2.60    1.70
   9  -4  -1    1.40    2.00
  -9  -4   1    1.80    2.00
  -9  -4   1    0.70    2.00
   9  -4  -1   -2.20    2.90
   9   4  -1    5.00    2.70
   9   4  -1    0.90    2.30
  -9   4   1    2.80    3.00
   9   4  -1    4.50    2.70
   9   4  -1   -0.60    1.80
  -8  -4   1    9.40    2.30
  -8  -4   1    6.20    2.10
   8  -4  -1    8.00    2.00
   8  -4  -1    3.80    2.00
  -8  -4   1    9.30    2.00
   8  -4  -1    5.60    2.70
   8   4  -1    7.50    2.60
   8   4  -1   10.00    1.90
   8   4  -1    8.00    3.00
   8   4  -1    7.00    2.80
  -8   4   1   12.00    3.10
   7  -4  -1  114.79    7.20
  -7  -4   1  105.59    5.40
   7  -4  -1  103.59    5.60
   7  -4  -1  102.59    5.70
  -7  -4   1   99.29    5.90
  -7  -4   1  104.89    4.50
  -7   4   1  111.39    4.50
   7   4  -1  109.69    4.70
   7   4  -1   97.19    6.10
   7   4  -1  116.29    6.90
   7   4  -1  100.09    6.40
  -7   4   1  116.89    6.90
  -6  -4   1  330.67    9.90
  -6  -4   1  333.87   11.50
  -6  -4   1  292.47   11.90
   6  -4  -1  307.97   11.80
   6  -4  -1  308.77   11.60
   6  -4  -1  320.77   13.00
   6   4  -1  326.57   12.70
   6   4  -1  313.17   10.00
  -6   4   1  312.37   10.50
   6   4  -1  312.57   12.60
   6   4  -1  309.67   12.10
   5  -4  -1   21.70    3.10
  -5  -4   1   26.30    3.20
   5  -4  -1   24.70    2.90
   5  -4  -1   24.50    3.60
  -5  -4   1   20.90    3.20
  -5   4   1   29.60    3.80
   5   4  -1   28.40    3.80
   5   4  -1   26.90    4.00
  -5   4   1   22.80    2.50
   5   4  -1   25.90    3.40
  -4  -4   1   21.90    2.80
  -4  -4   1   19.60    3.00
   4  -4  -1   21.00    3.10
   4  -4  -1   25.60    3.50
   4  -4  -1   27.20    2.70
   4   4  -1   17.80    2.70
   4   4  -1   16.00    2.80
  -4   4   1   23.40    3.50
  -4   4   1   20.20    2.70
   4   4  -1   17.80    2.90
  -3  -4   1    1.90    1.50
   3  -4  -1    2.10    1.40
   3  -4  -1    2.50    1.80
   3  -4  -1    4.40    2.10
  -3  -4   1    4.90    2.00
  -3   4   1    1.40    1.70
  -3   4   1    2.50    1.90
   3   4  -1    3.00    1.90
   3   4  -1    4.20    2.20
   2  -4  -1   -1.20    1.30
  -2  -4   1    0.30    1.90
   2  -4  -1    2.40    1.70
   2  -4  -1    2.20    1.90
  -2  -4   1   -0.40    1.70
   2   4  -1    0.70    1.80
   2   4  -1    1.00    1.60
  -2   4   1    0.60    1.70
  -2   4   1   -1.90    1.50
  -2   4   1    0.20    1.50
   1  -4  -1   75.39    5.20
   1  -4  -1   64.49    4.20
  -1  -4   1   69.49    5.30
  -1  -4   1   68.99    4.40
   1  -4  -1   71.79    4.00
   1   4  -1   71.39    4.80
  -1   4   1   61.79    4.10
  -1   4   1   70.59    3.70
  -1   4   1   68.59    5.10
   1   4  -1   67.29    4.30
   0  -4   1   -0.80    1.40
   0  -4  -1    3.10    2.10
   0  -4   1    2.80    2.20
   0  -4  -1    1.40    1.40
   0   4  -1   -1.90    1.60
   0   4   1   -1.40    1.60
   0   4  -1    0.00    0.80
   0   4   1   -0.60    1.60
   0   4  -1   -2.70    1.60
   0   4   1   -1.10    1.00
   1  -4   1  179.08    8.40
  -1  -4  -1  171.08    7.50
  -1  -4  -1  176.28    8.00
   1  -4   1  172.78    7.40
  -1   4  -1  179.68    6.30
   1   4   1  170.18    7.50
   1   4   1  178.08    8.20
   1   4   1  174.28    6.10
  -1   4  -1  160.58    7.90
  -1   4  -1  169.78    7.30
  -2  -4  -1   43.10    3.90
   2  -4   1   38.50    3.40
  -2  -4  -1   40.90    3.50
   2  -4   1   38.60    3.20
   2  -4   1   44.40    4.50
  -2   4  -1   40.90    3.30
   2   4   1   36.60    2.20
  -2   4  -1   37.00    4.00
   2   4   1   41.30    3.70
   2   4   1   45.80    4.00
  -3  -4  -1   91.69    5.20
   3  -4   1   78.79    6.00
   3  -4   1   93.69    5.00
   3  -4   1   93.09    4.80
  -3  -4  -1   89.89    5.30
   3   4   1   89.69    3.50
   3   4   1   84.99    5.30
  -3   4  -1  100.09    4.80
  -3   4  -1   87.99    5.60
   3   4   1   95.49    5.80
   4  -4   1   49.40    3.60
   4  -4   1   45.60    5.30
   4  -4   1   45.10    3.50
  -4  -4  -1   52.49    4.20
  -4  -4  -1   45.30    3.90
  -4   4  -1   52.49    4.30
   4   4   1   50.09    4.50
   4   4   1   43.80    3.60
   4   4   1   48.60    2.60
   4   4   1   41.80    4.20
  -4   4  -1   47.70    3.20
  -5  -4  -1    0.60    1.80
   5  -4   1    0.80    1.50
   5  -4   1   -0.80    1.50
  -5  -4  -1    2.00    1.90
  -5  -4  -1    1.10    1.40
   5  -4   1   -2.90    2.00
   5   4   1    1.10    1.60
  -5   4  -1    1.70    1.70
   5   4   1    0.70    2.10
   5   4   1    1.60    2.00
   5   4   1    0.50    1.00
  -5   4  -1    0.40    1.70
   6  -4   1   32.30    4.80
   6  -4   1   36.00    3.40
  -6  -4  -1   32.20    3.50
  -6  -4  -1   36.10    2.90
  -6  -4  -1   34.80    3.70
   6  -4   1   35.00    3.40
   6   4   1   36.90    4.50
   6   4   1   36.40    3.90
   6   4   1   26.60    2.60
  -6   4  -1   35.00    4.40
   6   4   1   33.50    3.70
  -6   4  -1   33.80    2.90
   7  -4   1   56.59    5.70
  -7  -4  -1   62.59    4.70
   7  -4   1   61.19    4.50
   7  -4   1   62.59    4.20
  -7  -4  -1   65.99    4.10
  -7  -4  -1   65.69    3.80
   7   4   1   60.69    5.00
   7   4   1   58.99    3.70
   7   4   1   55.09    4.60
  -7   4  -1   61.49    5.30
  -7   4  -1   56.49    3.80
   7   4   1   70.99    5.70
  -7   4  -1   58.79    3.50
   8  -4   1   -1.90    2.50
   8  -4   1    4.00    2.00
   8  -4   1    3.10    2.80
  -8  -4  -1    2.60    1.80
  -8  -4  -1    0.70    1.70
  -8  -4  -1    3.00    2.00
   8  -4   1    2.50    2.10
   8   4   1    3.30    2.10
  -8   4  -1    2.60    1.70
  -8   4  -1   -0.30    2.40
   8   4   1    3.70    1.80
   8   4   1    2.30    2.30
   8   4   1    3.90    2.20
   9  -4   1    2.40    2.00
   9  -4   1   -3.00    3.10
   9  -4   1    2.90    2.90
  -9  -4  -1   -2.10    1.80
   9  -4   1    1.00    2.00
  -9  -4  -1    0.80    1.70
  -9  -4  -1   -1.40    2.00
   9   4   1    0.10    2.40
   9   4   1    3.40    2.10
   9   4   1   -0.80    2.00
   9   4   1    1.40    3.10
  -9   4  -1   -0.20    1.80
  -9   4  -1   -0.70    2.80
  10  -4   1   12.20    3.90
 -10  -4  -1    6.40    2.50
  10  -4   1   11.50    2.70
 -10  -4  -1   12.90    2.50
  10  -4   1   12.30    2.70
  10  -4   1   11.30    4.40
 -10   4  -1   10.80    2.60
 -10   4  -1   15.00    3.40
  10   4   1    7.10    3.60
  10   4   1   10.90    2.80
  10   4   1   11.50    2.90
  10   4   1   13.30    2.70
  11  -4   1   11.30    4.80
  11  -4   1   -0.90    2.10
 -11  -4  -1   -1.40    2.20
 -11  -4  -1    0.50    2.10
  11  -4   1    2.30    2.20
  11  -4   1   -1.10    3.60
 -11   4  -1   -0.40    2.00
  11   4   1   -3.70    4.00
  11   4   1    0.30    2.60
  11   4   1   -3.40    2.50
  11   4   1    1.10    2.70
 -11   4  -1   -7.50    4.10
  12  -4   1   -3.20    4.10
  12  -4   1    1.80    2.10
  12  -4   1   15.70    5.90
 -12  -4  -1    1.10    2.50
 -12  -4  -1    7.20    2.40
  12  -4   1    8.70    2.60
  12   4   1   -2.50    2.60
  12   4   1    5.40    2.80
  12   4   1    3.70    4.40
  12   4   1   -2.80    3.20
 -12   4  -1    5.20    2.40
 -12   4  -1   11.80    4.50
  13  -4   1   34.10    4.40
 -13  -4  -1   21.10    3.40
  13  -4   1   23.80    7.50
 -13  -4  -1   19.40    3.60
  13  -4   1   25.00    5.40
  13  -4   1   21.30    3.90
 -13   4  -1   24.20    6.00
  13   4   1   19.80    4.10
 -13   4  -1   24.20    3.70
  13   4   1   19.60    3.90
  13   4   1   25.50    4.40
  10  -5  -1   11.00    3.00
  10  -5  -1   11.00    3.20
 -10  -5   1   10.60    3.10
 -10  -5   1   18.50    3.00
  10  -5  -1   21.80    5.60
  10   5  -1   18.60    4.00
 -10   5   1   12.00    4.80
 -10   5   1   11.20    2.70
  10   5  -1   14.90    3.70
  10   5  -1    9.50    5.40
   9  -5  -1   10.80    3.10
   9  -5  -1   11.10    4.70
   9  -5  -1   21.00    3.60
  -9  -5   1   12.80    3.40
  -9  -5   1   15.40    3.30
  -9   5   1   16.70    4.40
  -9   5   1   13.40    2.50
   9   5  -1   19.30    4.80
   9   5  -1   11.30    4.20
   9   5  -1   13.70    3.30
  -8  -5   1   -1.80    2.70
   8  -5  -1   -0.10    2.20
   8  -5  -1   -0.30    2.40
   8  -5  -1   -2.40    4.20
  -8  -5   1    1.40    2.10
   8   5  -1    1.20    2.90
  -8   5   1    0.30    3.50
  -8   5   1    2.10    2.50
   8   5  -1   -4.40    3.50
   8   5  -1    1.00    2.60
  -7  -5   1    7.00    2.40
   7  -5  -1    5.50    3.90
  -7  -5   1    7.20    3.30
   7  -5  -1    3.30    2.30
   7  -5  -1    9.30    2.70
   7   5  -1    7.00    3.40
  -7   5   1   11.00    3.60
   7   5  -1    5.10    2.70
   7   5  -1    6.00    3.10
  -7   5   1    3.40    2.50
   6  -5  -1   36.20    3.80
  -6  -5   1   33.40    4.10
   6  -5  -1   37.20    4.00
   6  -5  -1   42.60    6.40
  -6  -5   1   43.20    5.30
   6   5  -1   31.30    4.70
  -6   5   1   30.90    3.60
  -6   5   1   23.70    4.10
   6   5  -1   26.50    4.10
   5  -5  -1   39.30    3.80
   5  -5  -1   42.70    6.50
   5  -5  -1   41.00    4.00
  -5  -5   1   40.60    4.40
  -5  -5   1   45.60    5.60
  -5   5   1   39.30    3.70
   5   5  -1   34.30    4.60
   5   5  -1   40.50    4.80
  -5   5   1   38.00    5.80
   4  -5  -1  146.69    9.30
   4  -5  -1  147.09    7.60
  -4  -5   1  145.09    7.80
  -4  -5   1  163.18    8.20
   4  -5  -1  157.08    7.40
  -4   5   1  151.38    6.90
   4   5  -1  156.08    8.80
  -4   5   1  156.88    7.60
  -4   5   1  159.78    9.20
   4   5  -1  147.39    8.20
  -3  -5   1  225.08   10.00
   3  -5  -1  222.38   10.00
   3  -5  -1  221.28    9.50
  -3  -5   1  247.38   10.70
   3  -5  -1  234.58   11.40
  -3   5   1  240.48    9.30
  -3   5   1  227.48    9.20
   3   5  -1  238.98   10.80
  -3   5   1  230.78   11.10
   3   5  -1  221.88   10.20
  -2  -5   1  112.49    6.40
   2  -5  -1  116.49    6.60
   2  -5  -1  117.19    6.20
  -2  -5   1  116.79    7.40
   2  -5  -1  117.19    8.00
  -2   5   1  122.19    8.10
  -2   5   1  121.59    5.70
   2   5  -1  120.09    6.90
   2   5  -1  119.79    7.20
  -2   5   1  111.59    6.20
  -1  -5   1   69.19    5.00
   1  -5  -1   67.49    6.40
  -1  -5   1   75.89    6.30
   1  -5  -1   67.79    4.70
   1  -5  -1   61.99    5.00
   1   5  -1   69.39    5.90
  -1   5   1   63.19    6.10
  -1   5   1   70.49    4.00
  -1   5   1   65.79    4.90
   1   5  -1   68.49    5.10
   0  -5  -1   92.69    5.90
   0  -5   1   94.99    6.90
   0  -5  -1   95.09    6.80
   0  -5   1   93.89    5.70
   0   5  -1   98.19    6.80
   0   5   1   91.09    5.70
   0   5  -1   95.59    5.90
   0   5   1   90.29    7.00
   0   5   1   93.49    4.20
   1  -5   1   12.60    2.70
  -1  -5  -1   11.20    2.60
  -1  -5  -1   21.00    3.80
   1  -5   1   17.10    2.80
   1  -5   1   18.50    3.90
   1   5   1   15.00    1.90
  -1   5  -1   20.70    3.80
   1   5   1   16.00    3.10
  -1   5  -1   14.40    3.00
   1   5   1   17.10    3.20
  -1   5  -1   14.00    2.30
  -1   5  -1   22.00    1.90
   2  -5   1   -1.10    2.80
   2  -5   1    1.70    2.00
  -2  -5  -1    2.70    2.10
  -2  -5  -1    0.90    2.80
   2  -5   1    0.90    1.90
  -2   5  -1    0.80    1.40
   2   5   1   -0.50    2.40
  -2   5  -1   -0.60    1.60
  -2   5  -1    4.80    2.80
  -2   5  -1   -0.50    2.30
   2   5   1   -1.10    2.20
   3  -5   1   -0.70    3.10
  -3  -5  -1   -0.60    1.90
  -3  -5  -1    3.20    2.70
   3  -5   1    1.50    2.10
   3   5   1    1.80    2.50
  -3   5  -1   -2.90    2.90
  -3   5  -1   -1.50    2.00
  -3   5  -1   -1.70    1.40
  -3   5  -1    0.00    2.00
   4  -5   1   -0.20    1.90
   4  -5   1   -5.90    3.00
  -4  -5  -1    0.50    2.60
  -4  -5  -1    0.60    1.80
   4  -5   1   -0.60    1.80
  -4   5  -1   -0.50    1.50
  -4   5  -1   -1.00    2.80
   4   5   1    1.30    2.10
   4   5   1    4.70    3.00
  -4   5  -1   -1.60    2.10
   5  -5   1   43.90    4.10
  -5  -5  -1   50.09    4.40
   5  -5   1   49.10    6.80
  -5  -5  -1   52.29    5.70
   5  -5   1   42.10    4.10
   5   5   1   52.29    6.20
  -5   5  -1   44.50    5.90
   5   5   1   36.80    4.50
  -5   5  -1   44.00    3.90
  -5   5  -1   43.30    3.40
   6  -5   1   -0.30    2.10
  -6  -5  -1   -1.60    1.90
  -6  -5  -1    0.80    2.60
   6  -5   1   -3.20    1.90
   6  -5   1    1.80    3.40
  -6   5  -1   -3.30    1.80
  -6   5  -1    2.60    3.20
   6   5   1    0.30    2.10
   6   5   1    0.10    3.30
  -6   5  -1   -0.60    2.20
   7  -5   1    1.40    2.40
  -7  -5  -1   -0.60    2.70
   7  -5   1    4.80    2.50
  -7  -5  -1    4.90    2.60
   7  -5   1    2.40    3.80
  -7   5  -1    2.50    2.30
   7   5   1    2.10    2.50
   7   5   1   -0.70    2.50
   7   5   1    0.80    1.70
  -7   5  -1    1.10    1.90
  -7   5  -1    2.90    3.00
   7   5   1    0.90    3.60
   8  -5   1   12.20    2.90
   8  -5   1   13.30    4.80
  -8  -5  -1   14.60    3.30
  -8  -5  -1   10.10    3.00
   8  -5   1   13.50    2.90
  -8   5  -1   16.80    2.80
   8   5   1   14.70    2.40
  -8   5  -1   15.50    2.90
   8   5   1   14.20    4.40
   8   5   1   17.50    3.50
  -8   5  -1   18.00    4.00
   8   5   1   12.40    3.70
  -9  -5  -1   -3.70    2.90
   9  -5   1    0.10    4.40
   9  -5   1    1.30    2.20
   9  -5   1    0.30    2.70
  -9  -5  -1   -4.60    6.30
  -9  -5  -1    3.30    2.90
   9   5   1    0.10    3.10
  -9   5  -1   -0.60    2.20
   9   5   1    2.10    2.50
   9   5   1    2.00    4.20
   9   5   1    0.20    3.00
  -9   5  -1   -7.30    3.60
  10  -5   1   10.80    3.00
  10  -5   1    8.30    5.20
 -10  -5  -1   10.50    7.40
  10  -5   1   16.70    3.10
 -10  -5  -1   14.20    3.30
 -10  -5  -1    7.50    3.00
  10   5   1    6.70    3.10
  10   5   1    9.70    3.30
 -10   5  -1   11.60    3.00
  10   5   1   13.10    3.70
 -10   5  -1    8.80    4.60
  10   5   1   13.70    6.30
   6  -6  -1   70.09    5.90
   6  -6  -1   62.99    5.70
  -6  -6   1   74.29    9.00
  -6  -6   1   54.89    6.00
  -6   6   1   62.29    9.80
   6   6  -1   60.89    6.20
  -6   6   1   60.09    8.00
  -6   6   1   71.59    5.30
  -6   6   1   74.79    4.90
   6   6  -1   70.29   10.50
   5  -6  -1   -9.20    6.60
  -5  -6   1   -3.10    4.50
   5  -6  -1    0.40    2.60
   5  -6  -1   -3.30    2.50
  -5  -6   1   -1.80    2.60
   5   6  -1   -0.50    4.60
  -5   6   1    6.40    4.00
  -5   6   1    6.60    2.30
  -5   6   1    4.00    2.90
   5   6  -1    1.00    3.30
  -5   6   1    1.80    5.30
   4  -6  -1   82.79    5.90
   4  -6  -1   86.59    6.30
  -4  -6   1   91.89    6.50
   4  -6  -1   97.09   10.50
  -4  -6   1   98.39    9.20
  -4   6   1   91.29    6.10
   4   6  -1   95.39    9.10
   4   6  -1   78.99    6.70
  -4   6   1   91.59    6.60
  -4   6   1   86.29   10.70
  -4   6   1   97.59    5.00
   3  -6  -1    1.10    2.50
   3  -6  -1   -2.40    5.00
  -3  -6   1    3.60    4.60
  -3  -6   1   -3.00    2.30
   3  -6  -1    0.80    2.50
   3   6  -1    5.50    4.00
   3   6  -1    1.20    3.10
  -3   6   1    5.30    2.30
  -3   6   1    4.20    3.00
  -3   6   1    0.70    2.70
  -3   6   1    2.50    4.90
   2  -6  -1   27.10    4.00
   2  -6  -1   20.50    3.70
  -2  -6   1   19.00    5.20
  -2  -6   1   14.40    3.50
   2  -6  -1   29.00    5.50
   2   6  -1   22.60    4.10
  -2   6   1   23.70    3.70
  -2   6   1   25.10    5.10
  -2   6   1   26.30    4.20
   2   6  -1   31.10    4.80
  -1  -6   1    5.00    2.70
   1  -6  -1   13.00    5.30
   1  -6  -1    3.60    2.70
  -1  -6   1   13.80    4.50
   1  -6  -1    6.40    3.20
  -1   6   1   12.40    4.50
   1   6  -1   17.30    3.90
  -1   6   1   10.30    2.00
   1   6  -1    9.50    3.20
  -1   6   1    8.30    2.90
   0  -6   1   -1.00    2.40
   0  -6  -1    5.70    4.90
   0  -6  -1   -0.50    2.40
   0  -6   1    0.00    2.30
   0  -6   1    8.40    4.40
   0  -6  -1   -0.50    2.80
   0   6   1    0.80    2.90
   0   6   1   -4.80    3.50
   0   6  -1    0.40    2.90
   1  -6   1    1.10    4.60
  -1  -6  -1    0.90    2.40
   1  -6   1   -0.40    2.60
   1  -6   1    4.20    2.50
  -1  -6  -1    5.20    4.50
  -1  -6  -1    1.40    3.10
  -1   6  -1    4.80    2.80
   1   6   1    3.80    4.20
   1   6   1    4.70    3.00
  -1   6  -1    4.90    3.80
  -2  -6  -1   37.20    4.80
  -2  -6  -1   29.60    5.70
   2  -6   1   37.30    4.30
   2  -6   1   41.70    6.20
   2  -6   1   19.80    3.60
   2   6   1   28.80    5.20
   2   6   1   35.40    4.80
  -2   6  -1   32.60    4.50
  -2   6  -1   27.40    5.40
   3  -6   1   70.19    6.00
   3  -6   1   79.19    5.80
   3  -6   1   77.09    9.90
  -3  -6  -1   86.99    9.00
  -3  -6  -1   67.59    6.00
   3   6   1   81.89    6.40
  -3   6  -1   95.79    8.90
  -3   6  -1   92.69    5.30
  -3   6  -1   78.29    5.90
   3   6   1   81.79    8.30
   4  -6   1   -5.10    5.30
  -4  -6  -1   -4.80    4.70
   4  -6   1   -4.20    2.30
  -4  -6  -1   -4.00    2.20
   4  -6   1   -0.10    2.60
   4   6   1   -0.80    4.40
  -4   6  -1   -1.00    3.00
  -4   6  -1   -1.50    4.50
   4   6   1   -0.80    2.80
  -4   6  -1    1.60    2.90
  -4   6  -1   -3.00    2.50
   5  -6   1   -2.60    6.70
  -5  -6  -1    3.40    4.20
   5  -6   1    7.70    3.10
   5  -6   1    6.80    2.80
  -5  -6  -1    9.20    3.30
  -5   6  -1    7.40    3.30
  -5   6  -1   12.40    2.60
  -5   6  -1    8.90    4.10
   5   6   1    7.20    3.60
  -5   6  -1    2.90    5.60
   5   6   1    8.30    5.00
   6  -6   1   40.00    5.00
  -6  -6  -1   56.69    8.00
  -6  -6  -1   36.90    5.00
   6  -6   1   35.40    4.80
  -6   6  -1   39.80    4.80
  -6   6  -1   39.10    5.50
  -6   6  -1   43.70    6.70
   6   6   1   49.30    5.90
  -6   6  -1   48.80    4.10
 -16   0   2   51.59    7.40
  16   0  -2   59.09    5.10
  16   0  -2   49.40    4.90
 -16   0   2   37.60    4.40
  16   0  -2   42.90    6.60
  16   0  -2   50.69    4.70
  15   0  -2    3.10    2.50
  15   0  -2   -0.20    2.00
  15   0  -2    0.90    2.20
 -15   0   2   -0.10    3.40
 -15   0   2    1.80    2.00
  15   0  -2    4.90    4.40
  14   0  -2    1.00    2.30
  14   0  -2    3.50    2.10
 -14   0   2   -0.50    2.50
  14   0  -2    1.10    2.10
 -14   0   2    0.30    1.70
  14   0  -2   -1.40    3.50
  13   0  -2    0.30    2.80
  13   0  -2   -2.30    1.90
  13   0  -2    2.20    2.10
  13   0  -2    0.50    1.80
 -13   0   2   -1.30    1.70
 -13   0   2    1.10    2.30
  12   0  -2   86.09    5.30
 -12   0   2   91.79    5.30
  12   0  -2  102.29    6.80
  12   0  -2  100.59    5.30
  12   0  -2   92.79    4.70
 -11   0   2   -0.70    1.40
  11   0  -2    0.30    1.70
  11   0  -2    0.70    1.50
  11   0  -2   -2.60    1.90
  11   0  -2   -1.20    1.50
  11   0  -2    0.00    0.80
  10   0  -2   31.30    2.50
  10   0  -2   28.90    2.80
 -10   0   2   30.90    2.80
  10   0  -2   22.30    3.50
  10   0  -2   29.20    2.80
  10   0  -2   31.40    2.00
   9   0  -2    1.00    1.60
   9   0  -2    0.80    1.10
   9   0  -2    0.00    1.20
   9   0  -2   -2.10    1.10
   9   0  -2    1.10    0.80
   8   0  -2  113.59    4.10
   8   0  -2  121.69    4.60
   8   0  -2  112.89    5.80
   8   0  -2  115.29    5.00
   8   0  -2  114.69    5.00
   7   0  -2    0.60    1.20
   7   0  -2    0.90    0.90
   7   0  -2   -0.90    0.90
   7   0  -2    0.00    0.60
   7   0  -2    0.00    0.90
   6   0  -2 3518.75   96.29
   6   0  -2 3396.06   96.69
   6   0  -2 3383.36   96.79
   6   0  -2 3279.27   95.99
   6   0  -2 3214.38   97.39
   5   0  -2   -0.40    0.80
   5   0  -2    0.80    0.50
   5   0  -2    0.10    0.80
   5   0  -2   -0.20    0.70
   5   0  -2   -0.40    0.70
   4   0  -2   18.60    1.50
   4   0  -2   15.20    1.10
   4   0  -2   17.80    1.40
   4   0  -2   17.10    1.20
   4   0  -2   14.30    1.70
   3   0  -2    0.30    0.70
   3   0  -2    0.80    0.60
   3   0  -2    0.30    0.60
   3   0  -2    0.30    0.60
   3   0  -2    0.10    0.40
   2   0  -2  264.47    7.70
   2   0  -2  256.07    7.70
   2   0  -2  244.18    8.00
   2   0  -2  243.28    7.60
   2   0  -2  256.87    7.50
   1   0  -2    0.50    0.30
   1   0  -2    0.10    0.20
   1   0  -2   -0.20    0.30
  -1   0   2    0.40    0.30
   1   0   2   -0.20    0.40
   1   0   2    0.30    0.20
   1   0   2    0.00    0.30
   1   0   2    0.30    0.30
  -1   0  -2    0.20    0.30
   2   0   2  397.06   11.30
   2   0   2  398.46   11.30
   2   0   2  388.46   11.10
   2   0   2  359.86   11.50
   2   0   2  371.16   11.20
   2   0   2  354.96   11.20
  -2   0  -2  388.56   11.40
  -3   0  -2    0.10    0.60
   3   0   2    0.40    0.60
   3   0   2    0.00    0.50
   3   0   2   -0.80    0.60
   3   0   2    0.40    0.60
   3   0   2    0.40    0.40
   4   0   2 1131.09   32.00
  -4   0  -2 1127.99   32.20
   4   0   2 1111.19   31.90
   4   0   2 1069.29   32.50
   4   0   2 1103.59   32.10
   4   0   2 1049.89   31.70
   5   0   2    0.60    0.50
  -5   0  -2    0.50    0.80
   5   0   2    0.30    0.70
   5   0   2    0.80    0.70
   5   0   2   -0.10    0.90
   5   0   2    0.50    0.80
   6   0   2   87.19    3.60
   6   0   2   80.79    3.20
   6   0   2   84.59    3.50
   6   0   2   86.29    4.30
   7   0   2    1.50    1.00
  -7   0  -2    1.00    1.00
   7   0   2    0.00    0.70
   7   0   2    0.70    1.10
   7   0   2   -0.50    1.00
   7   0   2    1.10    1.00
   8   0   2   18.00    1.60
   8   0   2   19.50    2.10
   8   0   2   21.60    2.00
   8   0   2   18.50    2.60
  -8   0  -2   16.60    1.90
   8   0   2   19.70    2.00
   9   0   2    0.30    1.80
   9   0   2    1.30    1.40
   9   0   2   -0.30    0.80
  -9   0  -2    0.90    1.10
   9   0   2   -0.10    1.10
   9   0   2   -1.10    1.30
  10   0   2  224.18    9.60
  10   0   2  221.78    8.70
  10   0   2  218.08    7.20
  10   0   2  221.98    8.10
  10   0   2  216.78    8.30
 -10   0  -2  215.88    8.60
  11   0   2    0.50    1.40
  11   0   2    0.90    1.50
  11   0   2    1.00    2.20
  11   0   2   -0.80    1.00
  11   0   2    0.70    1.80
 -11   0  -2    2.00    1.30
  12   0   2  110.09    5.90
  12   0   2  113.49    5.70
  12   0   2  112.99    7.30
  12   0   2  109.29    5.30
 -12   0  -2  110.09    6.00
  12   0   2  113.79    4.20
 -13   0  -2   -1.00    1.60
  13   0   2    2.30    1.80
  13   0   2    0.70    1.60
  13   0   2    2.30    3.30
  13   0   2    0.80    1.90
  14   0   2   10.10    4.00
  14   0   2    8.20    2.50
  14   0   2    9.40    2.50
 -14   0  -2   11.40    2.60
  14   0   2    7.80    2.10
  15   0   2   -5.00    2.10
  15   0   2    0.50    1.90
 -15   0  -2    2.60    2.00
  15   0   2   -2.20    4.20
  15   0   2   -5.50    2.40
 -15   0  -2    6.30    3.40
 -16   0  -2   22.60    4.80
  16   0   2   28.20    6.00
  16   0   2   27.10    4.20
 -16   0  -2   24.20    4.10
  16   0   2   35.20    4.20
  16  -1  -2    5.40    2.70
 -16  -1   2    3.70    2.30
  16  -1  -2    6.90    5.70
  16  -1  -2    4.70    2.50
  16  -1  -2    5.60    2.60
  16   1  -2    9.10    3.20
  16   1  -2    2.20    2.80
  16   1  -2   -0.90    5.20
 -16   1   2    4.30    2.40
 -16   1   2    9.20    4.40
  15  -1  -2   88.49    9.30
  15  -1  -2   70.79    5.10
  15  -1  -2   68.59    5.40
  15  -1  -2   77.99    4.90
 -15  -1   2   68.79    5.00
  15   1  -2   76.19    5.30
 -15   1   2   63.89    7.30
 -15   1   2   68.89    5.40
  15   1  -2   63.89    5.40
  15   1  -2   74.19    8.50
  14  -1  -2    5.40    2.30
  14  -1  -2    7.70    4.00
 -14  -1   2    8.90    2.20
  14  -1  -2    6.00    2.20
  14  -1  -2    9.60    2.20
  14  -1  -2    8.20    2.50
  14   1  -2    8.40    2.70
 -14   1   2    5.20    2.10
 -14   1   2    2.60    3.00
  14   1  -2    8.20    4.00
  14   1  -2    5.80    2.20
 -13  -1   2   11.40    2.40
  13  -1  -2    8.40    3.20
  13  -1  -2    9.40    2.60
  13  -1  -2   12.60    2.00
  13  -1  -2   13.40    2.10
  13  -1  -2    5.20    2.30
  13   1  -2   12.60    2.60
  13   1  -2    9.80    2.50
 -13   1   2    8.40    2.30
  13   1  -2   17.10    3.50
 -13   1   2   11.70    3.00
 -12  -1   2    2.60    1.50
  12  -1  -2    4.30    2.00
  12  -1  -2    4.80    1.70
  12  -1  -2    6.80    2.80
  12  -1  -2    5.20    1.80
  12  -1  -2    4.70    1.90
  12   1  -2    3.80    2.10
  12   1  -2    4.30    1.80
  12   1  -2    7.70    2.60
 -12   1   2    5.30    2.60
  12   1  -2    6.40    2.10
 -12   1   2    1.80    1.70
  11  -1  -2   22.90    2.90
  11  -1  -2   19.90    3.90
  11  -1  -2   19.10    2.60
  11  -1  -2   23.40    2.10
 -11  -1   2   21.90    2.80
  11  -1  -2   22.00    2.80
  11   1  -2   19.30    2.50
  11   1  -2   23.40    3.30
 -11   1   2   23.10    3.20
  11   1  -2   24.20    2.80
  11   1  -2   17.70    2.70
  10  -1  -2   68.89    3.90
  10  -1  -2   66.89    5.50
  10  -1  -2   70.19    4.30
  10  -1  -2   81.19    3.30
  10  -1  -2   77.89    4.20
 -10  -1   2   69.49    4.00
  10   1  -2   72.99    4.40
  10   1  -2   73.99    4.20
  10   1  -2   77.69    5.20
 -10   1   2   77.59    4.90
  10   1  -2   72.49    4.20
   9  -1  -2   49.10    4.40
  -9  -1   2   51.09    3.30
   9  -1  -2   55.79    2.50
   9  -1  -2   54.79    3.40
   9  -1  -2   49.20    3.30
   9  -1  -2   52.59    3.30
   9   1  -2   51.29    3.60
   9   1  -2   51.09    3.30
  -9   1   2   51.89    3.80
   9   1  -2   59.79    4.00
   9   1  -2   57.89    3.50
   8  -1  -2   31.10    2.50
   8  -1  -2   33.50    2.50
   8  -1  -2   33.20    3.50
   8  -1  -2   34.90    1.80
   8  -1  -2   36.50    2.70
  -8  -1   2   38.20    2.70
   8   1  -2   36.40    2.90
   8   1  -2   32.90    3.10
   8   1  -2   38.00    2.70
   8   1  -2   35.40    2.50
  -8   1   2   32.60    3.00
   7  -1  -2  371.56   10.30
   7  -1  -2  344.77   11.50
  -7  -1   2  336.67   11.40
   7  -1  -2  368.36   11.60
   7  -1  -2  357.66   11.60
   7  -1  -2  350.36   12.60
   7   1  -2  343.77   11.80
   7   1  -2  345.67   12.00
   7   1  -2  315.87   11.50
  -7   1   2  355.26   12.20
   7   1  -2  335.27   11.50
   6  -1  -2    8.30    1.40
   6  -1  -2    8.80    1.80
   6  -1  -2    8.30    1.40
   6  -1  -2    7.00    1.20
  -6  -1   2   10.10    1.50
   6   1  -2    7.90    1.50
   6   1  -2    8.50    1.50
  -6   1   2    6.70    1.20
   6   1  -2    7.60    1.40
   6   1  -2    7.40    1.40
   6   1  -2    8.40    1.40
   5  -1  -2  174.38    6.20
   5  -1  -2  176.78    6.10
  -5  -1   2  172.98    5.30
   5  -1  -2  170.28    6.90
   5  -1  -2  164.08    6.20
  -5   1   2  170.48    6.70
   5   1  -2  181.18    6.40
   5   1  -2  171.18    6.10
   5   1  -2  180.58    6.30
   5   1  -2  173.48    6.40
   5   1  -2  172.58    6.50
   4  -1  -2   21.00    1.60
   4  -1  -2   21.90    1.50
  -4  -1   2   20.80    1.10
   4  -1  -2   17.90    1.80
   4  -1  -2   18.90    2.00
  -4   1   2   20.20    1.90
   4   1  -2   20.90    1.70
   4   1  -2   20.30    1.70
   4   1  -2   22.40    1.80
   4   1  -2   21.10    1.80
  -3  -1   2   60.59    2.40
   3  -1  -2   60.99    3.20
   3  -1  -2   69.39    2.90
   3  -1  -2   69.19    2.60
   3  -1  -2   61.49    3.00
   3   1  -2   65.59    3.00
   3   1  -2   65.19    2.90
   3   1  -2   60.99    2.90
   3   1  -2   60.99    2.60
  -3   1   2   62.39    3.10
   2  -1  -2  206.78    7.00
   2  -1  -2  213.28    6.60
   2  -1  -2  217.58    6.90
  -2  -1   2  202.48    6.60
   2   1  -2  202.88    6.90
   2   1  -2  210.58    6.90
   2   1  -2  225.88    7.00
  -2   1   2  211.88    7.20
   2   1  -2  200.38    6.40
  -2   1   2  211.78    6.30
  -1  -1   2 1760.22   52.29
   1  -1  -2 1739.03   52.59
   1  -1  -2 1869.41   52.09
  -1   1   2 1940.21   52.09
   1   1  -2 1746.13   52.39
   1   1  -2 1835.32   52.49
   1   1  -2 1844.32   52.49
   0  -1   2  275.47    8.00
   0  -1  -2  267.27    8.10
   0  -1   2  265.07    7.80
   0  -1  -2  251.47    8.30
   0  -1  -2  267.57    8.30
   0  -1   2  251.97    8.30
   0   1   2  272.27    8.20
   0   1  -2  275.57    8.30
   0   1  -2  276.07    7.70
   0   1   2  257.67    8.30
   0   1   2  254.47    8.50
   0   1  -2  258.67    8.20
  -1  -1  -2 4335.97  147.09
   1  -1   2 4774.02  147.39
  -1  -1  -2 5452.85  147.29
   1  -1   2 4487.15  146.99
   1  -1   2 5373.06  146.99
  -1  -1  -2 5677.73  147.09
   1   1   2 5183.18  147.59
  -1   1  -2 5011.30  146.89
   1   1   2 5686.13  147.39
   1   1   2 5688.13  146.99
  -1   1  -2 5565.24  147.19
   1   1   2 4722.03  147.19
  -2  -1  -2  242.88    7.40
   2  -1   2  244.08    7.30
   2  -1   2  249.08    7.70
   2  -1   2  225.78    7.60
   2  -1   2  222.88    7.80
  -2  -1  -2  248.68    7.60
  -2  -1  -2  231.38    7.40
   2   1   2  234.08    7.60
   2   1   2  248.18    7.70
   2   1   2  230.48    7.80
  -2   1  -2  229.18    7.30
  -2   1  -2  228.48    7.50
   2   1   2  240.98    7.40
  -2   1  -2  241.88    7.40
   3  -1   2   64.69    2.60
  -3  -1  -2   62.39    2.40
   3  -1   2   65.09    2.80
  -3  -1  -2   71.59    2.70
   3  -1   2   60.49    3.00
   3  -1   2   64.09    3.00
  -3   1  -2   65.69    2.50
  -3   1  -2   66.69    2.80
   3   1   2   64.09    2.90
   3   1   2   65.79    3.10
   3   1   2   70.09    3.00
  -3   1  -2   62.89    2.80
   3   1   2   70.39    2.80
   4  -1   2 1283.07   35.50
   4  -1   2 1203.28   36.20
  -4  -1  -2 1228.28   35.60
   4  -1   2 1229.78   35.80
   4  -1   2 1179.18   35.90
   4   1   2 1237.48   35.70
  -4   1  -2 1275.37   35.80
   4   1   2 1231.18   35.90
   4   1   2 1186.78   35.90
  -4   1  -2 1203.78   35.90
   4   1   2 1164.98   36.00
   5  -1   2   33.20    2.30
   5  -1   2   32.30    2.00
  -5  -1  -2   29.60    2.00
   5  -1   2   31.20    2.20
   5  -1   2   32.60    2.60
   5   1   2   34.40    2.40
  -5   1  -2   33.60    2.20
  -5   1  -2   33.30    2.20
   5   1   2   31.50    2.10
   5   1   2   28.00    2.20
   5   1   2   32.30    2.30
   6  -1   2   -0.60    1.00
   6  -1   2   -1.00    0.90
   6  -1   2    1.30    1.10
   6  -1   2   -0.80    0.80
  -6  -1  -2    0.30    0.80
   6  -1   2   -0.90    0.80
  -6   1  -2   -0.40    0.70
   6   1   2    0.70    1.00
   6   1   2    0.20    0.80
   6   1   2    1.50    1.20
   6   1   2    0.00    0.90
  -6   1  -2    0.20    1.10
   7  -1   2   -0.50    0.90
   7  -1   2    2.30    1.20
   7  -1   2   -0.10    1.00
   7  -1   2    1.80    1.40
   7  -1   2    0.80    0.90
  -7  -1  -2    0.70    0.90
  -7   1  -2    1.10    0.90
   7   1   2    2.70    1.10
  -7   1  -2    1.70    1.10
   7   1   2    0.30    1.10
   7   1   2   -0.40    1.00
   7   1   2   -0.40    1.10
   8  -1   2  388.16   12.70
   8  -1   2  387.46   13.10
   8  -1   2  381.96   12.80
   8  -1   2  390.96   14.10
   8  -1   2  394.96   12.20
  -8  -1  -2  398.46   13.00
   8   1   2  386.46   13.10
  -8   1  -2  387.36   13.10
   8   1   2  403.56   13.20
   8   1   2  389.96   13.60
  -8   1  -2  382.36   13.30
   8   1   2  387.96   13.40
   9  -1   2   14.20    2.90
   9  -1   2   16.40    1.80
  -9  -1  -2    9.70    1.60
   9  -1   2   10.70    2.00
   9  -1   2   14.60    2.00
   9  -1   2   14.00    2.00
   9   1   2   18.20    2.30
   9   1   2   19.00    2.90
  -9   1  -2   14.60    2.30
  -9   1  -2   16.80    2.40
   9   1   2   11.20    2.10
  10  -1   2  163.98    6.70
 -10  -1  -2  159.68    6.90
  10  -1   2  174.18    8.40
  10  -1   2  161.78    7.10
  10  -1   2  173.08    6.20
  10  -1   2  170.18    6.70
  10   1   2  168.08    7.90
  10   1   2  167.28    7.20
  10   1   2  160.88    7.00
 -10   1  -2  165.48    7.40
 -10   1  -2  161.88    7.30
  11  -1   2    0.90    1.20
  11  -1   2   -1.30    1.50
  11  -1   2   -0.50    1.50
 -11  -1  -2   -0.30    1.30
  11  -1   2   -0.70    1.70
  11  -1   2    0.10    2.60
 -11   1  -2   -1.40    1.40
  11   1   2    0.10    1.70
  11   1   2    0.20    1.70
 -11   1  -2    1.60    1.70
  11   1   2    2.80    2.00
  12  -1   2    4.60    1.90
  12  -1   2    3.30    2.80
  12  -1   2    6.90    1.80
 -12  -1  -2    3.90    1.80
  12  -1   2    4.80    2.00
  12  -1   2    7.70    1.80
  12   1   2    5.90    3.10
  12   1   2    3.40    2.00
 -12   1  -2    5.30    1.90
  12   1   2    1.80    1.90
 -12   1  -2    6.00    2.20
  13  -1   2  142.49    6.40
  13  -1   2  133.69    7.30
  13  -1   2  136.79    6.70
 -13  -1  -2  145.89    7.20
  13  -1   2  146.39    6.00
  13  -1   2  159.48    9.60
  13   1   2  142.79    6.90
 -13   1  -2  140.29    7.30
  13   1   2  141.19    7.40
  13   1   2  160.38    8.80
 -13   1  -2  153.58    7.90
  14  -1   2   -0.10    2.00
  14  -1   2   -0.90    1.90
 -14  -1  -2    1.20    2.00
  14  -1   2   -3.00    3.40
  14  -1   2   -1.10    2.00
  14  -1   2   -0.90    2.10
 -14   1  -2   -3.30    2.70
  14   1   2   -1.90    2.30
 -14   1  -2    0.00    1.60
  14   1   2   -5.50    3.40
  14   1   2    0.00    2.60
  15  -1   2   31.30    6.10
 -15  -1  -2   30.60    3.80
  15  -1   2   32.90    4.00
  15  -1   2   35.10    4.10
  15  -1   2   30.40    3.80
  15  -1   2   32.90    4.40
 -15   1  -2   30.00    4.10
 -15   1  -2   25.00    4.40
  15   1   2   32.00    5.20
  15   1   2   21.10    4.00
  15   1   2   25.80    3.90
  16  -1   2    9.70    3.10
  16  -1   2   -1.80    6.60
  16  -1   2    3.10    2.70
 -16  -1  -2    8.80    3.10
  16  -1   2    4.80    2.70
  16  -1   2    0.50    2.60
  16   1   2   11.80    3.60
  16   1   2    5.50    5.80
  16   1   2    2.60    2.70
 -16   1  -2    4.20    2.50
 -16   1  -2    3.90    4.30
  15  -2  -2   11.60    3.10
 -15  -2   2   10.80    2.60
  15  -2  -2   10.60    3.10
  15  -2  -2   14.30    5.80
  15  -2  -2    8.90    2.80
  15   2  -2    4.80    3.20
  15   2  -2    7.40    2.90
 -15   2   2    8.20    2.40
  15   2  -2   14.60    5.00
 -15   2   2    4.30    4.90
  14  -2  -2   -3.10    2.50
 -14  -2   2    3.10    1.90
  14  -2  -2   -9.90    4.50
  14  -2  -2    2.60    2.20
  14  -2  -2    2.30    2.10
  14   2  -2    4.50    2.60
 -14   2   2    0.50    1.90
  14   2  -2    3.90    2.30
 -14   2   2   -2.90    3.40
  13  -2  -2   30.60    4.10
  13  -2  -2   33.70    3.90
 -13  -2   2   32.90    3.60
  13  -2  -2   48.30    7.40
  13  -2  -2   30.70    3.80
  13   2  -2   44.30    5.50
  13   2  -2   41.40    4.30
  13   2  -2   31.90    3.90
 -13   2   2   32.10    3.70
 -13   2   2   39.20    5.60
  12  -2  -2   35.80    3.60
  12  -2  -2   38.20    4.40
 -12  -2   2   33.00    3.40
  12  -2  -2   39.20    6.20
  12  -2  -2   37.90    3.60
 -12   2   2   37.60    4.90
  12   2  -2   34.70    3.80
  12   2  -2   32.40    4.60
  12   2  -2   38.60    4.00
  11  -2  -2   21.00    2.90
  11  -2  -2   19.60    2.80
 -11  -2   2   22.60    2.80
  11  -2  -2   16.90    3.60
  11  -2  -2   25.80    3.70
  11   2  -2   19.40    3.10
  11   2  -2   24.90    3.90
 -11   2   2   27.30    4.10
  11   2  -2   23.50    3.20
  10  -2  -2    1.20    2.50
  10  -2  -2    1.00    1.60
  10  -2  -2    1.00    1.60
 -10  -2   2   -1.00    1.40
  10  -2  -2    0.10    1.60
  10   2  -2    0.60    1.90
  10   2  -2   -1.40    1.70
 -10   2   2    1.40    1.70
  10   2  -2    1.20    1.90
   9  -2  -2   24.90    2.80
   9  -2  -2   29.40    4.20
   9  -2  -2   27.90    2.80
  -9  -2   2   31.20    2.70
   9  -2  -2   34.80    3.30
   9   2  -2   33.00    3.20
  -9   2   2   34.70    3.70
   9   2  -2   29.90    3.30
   9   2  -2   33.30    3.30
   9   2  -2   34.50    3.20
   8  -2  -2   48.30    3.20
  -8  -2   2   42.00    2.70
   8  -2  -2   35.40    4.10
   8  -2  -2   39.50    3.30
   8  -2  -2   39.70    3.00
   8   2  -2   38.50    3.10
   8   2  -2   35.60    3.10
   8   2  -2   37.40    3.20
  -8   2   2   38.00    3.60
   8   2  -2   42.40    3.60
  -7  -2   2    2.10    1.10
   7  -2  -2    4.90    1.40
   7  -2  -2    3.20    1.30
   7  -2  -2    0.50    1.60
   7  -2  -2    2.70    1.30
   7   2  -2    0.70    1.20
   7   2  -2    2.40    1.40
  -7   2   2    4.60    1.40
   7   2  -2    1.50    1.30
   7   2  -2    0.60    1.30
   6  -2  -2   25.30    2.00
  -6  -2   2   26.50    1.90
   6  -2  -2   21.70    2.60
   6  -2  -2   22.50    2.20
  -6  -2   2   25.80    1.70
   6  -2  -2   26.90    2.90
   6   2  -2   28.10    2.50
   6   2  -2   24.50    2.10
  -6   2   2   21.50    2.50
   6   2  -2   21.50    2.40
   6   2  -2   23.20    2.40
   5  -2  -2  183.88    7.90
  -5  -2   2  198.28    6.70
   5  -2  -2  191.78    7.60
   5  -2  -2  199.68    7.30
  -5  -2   2  205.88    6.50
   5  -2  -2  196.98    7.10
   5   2  -2  198.98    7.50
   5   2  -2  202.38    7.70
  -5   2   2  198.08    7.90
   5   2  -2  200.38    6.90
   5   2  -2  199.28    7.70
  -5   2   2  199.98    6.00
   4  -2  -2   14.80    2.20
   4  -2  -2   19.80    1.80
   4  -2  -2   18.30    1.90
   4  -2  -2   14.40    2.10
  -4  -2   2   17.70    1.70
  -4  -2   2   15.10    1.30
  -4   2   2   12.30    1.30
  -4   2   2   17.70    2.20
   4   2  -2   15.90    1.40
   4   2  -2   16.20    2.00
   4   2  -2   15.20    1.90
   4   2  -2   16.70    2.20
  -3  -2   2    1.20    0.50
   3  -2  -2    1.10    0.90
   3  -2  -2    0.70    0.90
   3  -2  -2    0.30    0.90
  -3  -2   2    1.40    0.80
   3   2  -2    1.30    1.00
   3   2  -2    1.70    0.50
  -3   2   2    1.90    0.80
   3   2  -2    0.10    1.10
  -3   2   2    1.70    1.10
   3   2  -2   -0.40    1.10
   2  -2  -2  601.64   17.40
   2  -2  -2  563.44   18.20
  -2  -2   2  577.24   17.70
  -2  -2   2  573.94   17.70
   2  -2  -2  577.64   17.80
   2   2  -2  596.04   18.00
   2   2  -2  576.04   17.90
  -2   2   2  603.64   17.30
  -2   2   2  548.45   18.20
   2   2  -2  546.15   18.00
  -1  -2   2  349.17   10.90
  -1  -2   2  339.77   11.20
   1  -2  -2  326.97   11.40
   1  -2  -2  351.86   11.20
   1   2  -2  345.27   11.20
  -1   2   2  344.57   10.80
  -1   2   2  338.47   11.60
   1   2  -2  343.37   11.30
   0  -2  -2    1.90    0.90
   0  -2  -2    1.80    0.90
   0  -2   2    2.60    1.00
   0  -2   2    2.30    1.00
   0   2   2    2.80    0.70
   0   2  -2    3.90    1.10
   0   2  -2    3.10    1.00
   0   2   2    1.90    1.10
   0   2  -2    3.80    0.50
   0   2   2    2.60    1.00
  -1  -2  -2  580.44   18.30
   1  -2   2  564.04   17.60
   1  -2   2  567.24   18.50
  -1  -2  -2  603.14   18.30
  -1  -2  -2  606.64   17.70
   1  -2   2  610.84   18.00
   1   2   2  616.14   18.30
  -1   2  -2  590.04   18.40
   1   2   2  592.14   17.90
  -1   2  -2  597.44   18.10
   1   2   2  590.34   18.80
   1   2   2  614.74   18.00
  -2  -2  -2   46.90    2.70
  -2  -2  -2   46.80    2.30
   2  -2   2   49.00    2.50
   2  -2   2   48.70    2.70
   2  -2   2   49.70    2.50
   2  -2   2   48.40    3.10
  -2  -2  -2   49.20    2.80
   2   2   2   49.90    2.60
  -2   2  -2   49.80    2.70
   2   2   2   46.40    3.10
   2   2   2   48.10    2.40
   2   2   2   49.00    2.90
  -2   2  -2   52.99    2.60
  -3  -2  -2 1590.04   44.80
  -3  -2  -2 1505.25   45.10
   3  -2   2 1511.95   45.40
   3  -2   2 1616.24   45.20
   3  -2   2 1535.15   45.90
   3  -2   2 1603.94   45.50
   3   2   2 1475.85   45.00
  -3   2  -2 1586.14   45.00
   3   2   2 1523.25   46.00
   3   2   2 1575.94   45.30
  -3   2  -2 1506.35   45.60
  -4  -2  -2   94.39    4.10
  -4  -2  -2   91.99    3.60
  -4  -2  -2   87.49    3.60
   4  -2   2   87.79    4.00
   4  -2   2   91.49    3.80
   4  -2   2   81.49    4.10
   4  -2   2   81.39    4.30
   4   2   2   82.79    3.60
   4   2   2   84.79    4.30
   4   2   2   87.79    3.90
  -4   2  -2   87.29    3.50
  -4   2  -2   87.99    4.20
   4   2   2   86.89    4.40
   5  -2   2   41.70    3.20
   5  -2   2   45.40    3.20
  -5  -2  -2   43.80    2.20
   5  -2   2   48.10    3.00
  -5  -2  -2   49.30    2.50
   5  -2   2   44.20    2.60
   5   2   2   46.90    3.20
  -5   2  -2   47.70    2.40
   5   2   2   41.40    2.80
  -5   2  -2   44.00    3.00
   5   2   2   43.30    3.20
   5   2   2   43.60    2.70
   6  -2   2    1.20    1.30
   6  -2   2    1.00    1.20
   6  -2   2    1.80    1.00
  -6  -2  -2   -0.70    0.90
  -6  -2  -2    0.10    0.70
   6  -2   2    0.60    1.30
  -6   2  -2    0.00    1.00
  -6   2  -2    0.00    1.00
   6   2   2    1.90    1.40
   6   2   2    1.20    1.00
   6   2   2    1.40    1.40
   6   2   2    0.30    0.90
   7  -2   2   79.59    4.30
   7  -2   2   80.49    4.60
  -7  -2  -2   86.89    4.00
   7  -2   2   83.39    5.00
   7  -2   2   87.59    4.00
  -7   2  -2   89.59    4.60
   7   2   2   84.69    4.60
   7   2   2   81.19    4.30
  -7   2  -2   86.19    4.30
   7   2   2   79.19    4.30
   7   2   2   79.59    4.40
  -8  -2  -2    7.30    1.50
   8  -2   2    5.70    1.80
   8  -2   2   11.40    1.80
   8  -2   2    8.10    2.30
   8  -2   2    5.80    1.70
   8  -2   2   11.10    1.40
   8   2   2    8.40    2.00
   8   2   2    7.40    1.80
   8   2   2    5.70    1.80
  -8   2  -2    8.70    1.70
   8   2   2    2.40    1.50
  -8   2  -2    9.00    1.70
   9  -2   2   63.49    4.50
   9  -2   2   64.39    5.30
   9  -2   2   65.49    4.10
   9  -2   2   65.69    3.80
   9  -2   2   62.39    3.00
  -9  -2  -2   68.99    3.90
   9   2   2   63.19    4.20
  -9   2  -2   64.49    4.40
   9   2   2   64.69    4.40
   9   2   2   64.69    4.50
  -9   2  -2   68.69    4.00
   9   2   2   63.09    4.20
  10  -2   2   49.80    2.60
  10  -2   2   41.70    3.20
  10  -2   2   45.30    3.70
  10  -2   2   47.60    5.00
  10  -2   2   40.50    4.00
 -10  -2  -2   50.29    3.50
 -10   2  -2   41.60    3.60
  10   2   2   35.10    3.50
  10   2   2   44.50    3.70
  10   2   2   38.30    4.10
 -10   2  -2   41.00    4.00
  10   2   2   46.40    4.10
  11  -2   2    6.70    2.10
  11  -2   2    8.40    2.90
 -11  -2  -2    7.00    1.90
  11  -2   2    6.00    1.80
  11  -2   2    9.00    1.60
  11  -2   2    7.00    2.40
  11   2   2    7.60    2.70
 -11   2  -2    7.40    2.20
 -11   2  -2    8.70    2.10
  11   2   2   11.90    2.70
  11   2   2    4.50    2.30
  11   2   2    7.60    2.40
  12  -2   2    0.80    3.30
  12  -2   2    0.50    2.00
 -12  -2  -2    2.90    2.00
  12  -2   2    4.50    1.90
  12  -2   2    9.10    1.70
  12  -2   2    4.40    1.80
 -12   2  -2   -0.40    2.30
  12   2   2    1.90    2.30
  12   2   2    3.20    2.20
  12   2   2    6.70    2.80
 -12   2  -2    1.20    1.90
  13  -2   2   -1.10    2.30
  13  -2   2    3.20    2.00
  13  -2   2   -3.40    3.50
  13  -2   2    0.30    2.10
 -13  -2  -2    3.30    1.90
  13  -2   2   -1.10    1.80
  13   2   2   -0.50    2.20
  13   2   2   -1.20    3.10
  13   2   2    2.20    2.20
 -13   2  -2   -0.20    1.80
 -13   2  -2   -0.20    2.70
  14  -2   2   -2.30    2.70
  14  -2   2    0.90    2.00
  14  -2   2    0.90    1.90
  14  -2   2    8.20    5.00
 -14  -2  -2    1.80    2.10
 -14   2  -2    1.80    1.90
  14   2   2    3.90    2.60
  14   2   2    0.10    2.50
  14   2   2    0.80    4.10
 -14   2  -2    1.00    3.20
  15  -2   2    3.20    6.40
  15  -2   2   -2.90    3.10
  15  -2   2    2.10    2.40
 -15  -2  -2    1.00    2.10
  15  -2   2    1.10    2.30
 -15   2  -2    1.50    2.30
  15   2   2   -1.90    2.40
  15   2   2    1.00    3.10
 -15   2  -2   -1.20    3.80
  15   2   2   11.30    4.90
  14  -3  -2   59.69    5.10
  14  -3  -2   61.49    5.10
  14  -3  -2   50.79    8.00
  14  -3  -2   59.79    6.80
 -14  -3   2   61.49    4.60
  14   3  -2   61.79    5.70
  14   3  -2   70.59    7.50
 -14   3   2   63.29    5.20
  14   3  -2   63.39    6.00
 -14   3   2   76.29    8.60
  13  -3  -2    8.90    2.60
 -13  -3   2    4.60    2.20
  13  -3  -2    5.00    2.30
  13  -3  -2    5.20    5.30
  13  -3  -2   11.40    3.60
  13   3  -2    8.20    3.20
  13   3  -2    7.00    3.20
  13   3  -2   -2.50    3.20
 -13   3   2    6.50    2.30
 -13   3   2    3.40    3.90
  12  -3  -2   13.70    4.80
  12  -3  -2   15.40    3.40
  12  -3  -2   15.10    3.00
 -12  -3   2   18.40    2.70
  12  -3  -2   21.30    3.10
  12   3  -2   16.40    3.30
  12   3  -2   21.50    3.80
  12   3  -2   16.70    3.30
 -12   3   2   21.20    4.30
 -11  -3   2   44.90    3.50
  11  -3  -2   46.50    3.90
  11  -3  -2   43.40    3.80
  11  -3  -2   50.69    6.90
  11  -3  -2   37.00    5.30
  11   3  -2   37.70    4.50
  11   3  -2   43.50    5.30
  11   3  -2   39.20    4.60
  11   3  -2   38.50    4.30
 -11   3   2   49.80    5.80
  10  -3  -2   11.50    2.90
  10  -3  -2   16.80    2.90
  10  -3  -2   18.40    4.20
  10  -3  -2   13.70    2.60
 -10  -3   2   16.00    2.30
 -10   3   2   17.80    3.40
  10   3  -2   13.00    3.10
  10   3  -2   12.70    2.50
  10   3  -2   16.10    3.20
  10   3  -2    8.90    2.70
   9  -3  -2   64.99    6.10
   9  -3  -2   58.99    5.10
   9  -3  -2   64.79    4.30
   9  -3  -2   65.39    4.50
  -9  -3   2   76.59    3.90
   9   3  -2   77.79    5.50
   9   3  -2   75.99    4.90
   9   3  -2   72.79    4.40
  -9   3   2   81.29    5.60
   9   3  -2   65.59    4.90
   8  -3  -2  382.16   13.30
   8  -3  -2  404.06   14.40
  -8  -3   2  373.26   12.40
   8  -3  -2  396.66   14.90
   8  -3  -2  375.66   13.40
  -8  -3   2  385.36   12.00
   8   3  -2  374.76   14.20
  -8   3   2  393.86   14.60
   8   3  -2  367.76   14.00
   8   3  -2  386.96   14.30
   8   3  -2  384.26   13.00
   7  -3  -2   66.09    4.60
   7  -3  -2   57.19    3.80
  -7  -3   2   63.79    3.30
   7  -3  -2   63.09    4.90
  -7  -3   2   69.39    3.30
   7  -3  -2   60.29    3.80
   7   3  -2   64.89    4.40
   7   3  -2   63.69    4.50
   7   3  -2   64.29    3.60
  -7   3   2   71.09    4.90
   7   3  -2   61.89    4.70
   6  -3  -2   15.70    2.40
   6  -3  -2   18.20    2.40
  -6  -3   2   17.40    2.30
   6  -3  -2   17.00    2.20
  -6  -3   2   22.10    1.90
  -6  -3   2   15.50    2.30
  -6   3   2   19.40    3.00
   6   3  -2   19.80    2.90
   6   3  -2   20.40    2.80
   6   3  -2   15.00    1.90
   6   3  -2   21.00    3.00
  -6   3   2   14.60    1.70
  -5  -3   2    9.40    1.20
   5  -3  -2    9.40    1.80
  -5  -3   2    6.80    1.40
  -5  -3   2    8.30    1.70
   5  -3  -2    8.20    2.00
   5  -3  -2    8.50    1.70
  -5   3   2    9.20    1.40
   5   3  -2    6.00    1.10
   5   3  -2    6.30    1.90
   5   3  -2    4.60    1.90
  -5   3   2    6.20    1.80
   5   3  -2    9.00    1.90
   4  -3  -2   50.09    3.00
  -4  -3   2   48.30    3.20
  -4  -3   2   50.89    3.20
   4  -3  -2   48.50    3.30
   4  -3  -2   51.79    3.90
  -4  -3   2   51.19    2.10
  -4   3   2   49.99    2.70
  -4   3   2   50.49    3.90
   4   3  -2   50.19    3.70
   4   3  -2   53.49    3.60
   4   3  -2   49.20    2.00
   4   3  -2   45.50    3.60
   3  -3  -2   53.09    3.40
   3  -3  -2   52.59    3.80
  -3  -3   2   51.39    3.40
  -3  -3   2   49.00    3.20
   3  -3  -2   54.99    3.10
   3   3  -2   49.99    3.40
  -3   3   2   52.89    3.80
   3   3  -2   50.29    3.30
  -3   3   2   51.99    3.00
   3   3  -2   56.59    3.60
   2  -3  -2    1.90    1.40
   2  -3  -2    1.00    1.00
   2  -3  -2    2.00    1.30
  -2  -3   2    2.20    1.40
  -2  -3   2    1.60    1.20
   2   3  -2    0.70    1.30
  -2   3   2    2.20    1.30
   2   3  -2    2.10    1.30
  -2   3   2    1.90    1.20
  -1  -3   2  636.74   19.80
   1  -3  -2  621.54   20.40
   1  -3  -2  626.84   20.00
  -1  -3   2  632.54   20.20
  -1   3   2  643.74   19.60
   1   3  -2  627.44   20.30
  -1   3   2  631.34   19.60
  -1   3   2  633.34   20.60
   1   3  -2  615.74   20.00
   0  -3   2  180.98    6.90
   0  -3  -2  174.98    7.30
   0  -3   2  178.98    7.40
   0  -3  -2  182.48    7.10
   0   3  -2  179.88    5.70
   0   3  -2  170.88    7.20
   0   3   2  179.38    6.90
   0   3   2  177.68    7.60
   0   3  -2  169.58    6.90
   0   3   2  178.48    6.50
  -1  -3  -2  153.98    6.60
   1  -3   2  152.28    6.80
   1  -3   2  156.48    6.20
  -1  -3  -2  149.99    6.40
  -1   3  -2  160.58    6.70
   1   3   2  157.28    6.90
   1   3   2  162.38    5.70
   1   3   2  154.38    6.40
  -1   3  -2  162.58    6.30
   2  -3   2   -0.50    1.30
  -2  -3  -2   -1.50    1.30
  -2  -3  -2    0.00    1.20
   2  -3   2    0.90    1.30
   2  -3   2    1.90    1.20
   2   3   2    0.00    0.80
   2   3   2   -1.00    1.20
  -2   3  -2    0.30    1.10
   2   3   2   -0.30    1.40
  -2   3  -2    0.90    1.00
   3  -3   2   87.69    5.00
   3  -3   2   87.29    4.20
   3  -3   2   94.59    4.40
   3  -3   2   84.79    4.20
  -3  -3  -2   91.79    3.60
  -3  -3  -2   83.19    4.50
  -3  -3  -2   87.59    4.40
  -3   3  -2   86.19    4.60
   3   3   2   86.79    3.70
   3   3   2   91.49    5.00
  -3   3  -2   89.59    4.10
   3   3   2   91.49    4.30
   3   3   2   89.49    4.70
   4  -3   2    5.10    1.50
  -4  -3  -2    7.30    1.50
  -4  -3  -2    6.70    1.70
   4  -3   2    5.80    1.50
   4  -3   2    4.90    1.50
  -4  -3  -2    8.20    1.30
   4  -3   2    4.60    1.50
   4   3   2    7.40    1.70
   4   3   2    6.40    1.50
   4   3   2    7.80    1.80
  -4   3  -2    6.20    1.50
  -4   3  -2    6.80    1.50
   4   3   2    5.40    1.10
  -5  -3  -2  286.57   10.60
   5  -3   2  277.17   10.30
  -5  -3  -2  292.27    9.40
   5  -3   2  292.17   11.20
  -5  -3  -2  284.37    9.80
   5  -3   2  279.87   10.50
   5  -3   2  296.47   10.10
   5   3   2  280.27    9.60
  -5   3  -2  288.27    9.50
   5   3   2  288.67   11.10
  -5   3  -2  292.57   10.70
   5   3   2  279.87   10.70
   5   3   2  276.67   10.20
   6  -3   2  148.89    6.00
  -6  -3  -2  133.59    6.40
  -6  -3  -2  145.59    5.60
   6  -3   2  149.49    7.10
   6  -3   2  144.89    6.30
   6  -3   2  142.29    6.80
  -6  -3  -2  144.69    5.60
  -6   3  -2  144.39    6.60
   6   3   2  149.39    6.80
   6   3   2  134.09    6.30
   6   3   2  137.19    5.80
  -6   3  -2  146.69    6.00
  -6   3  -2  147.39    5.40
   6   3   2  146.89    7.00
   7  -3   2   -1.00    1.50
  -7  -3  -2    2.70    1.30
   7  -3   2    2.90    1.90
   7  -3   2    4.60    2.10
  -7  -3  -2    3.90    1.10
  -7  -3  -2    2.00    1.40
   7  -3   2    0.70    1.40
   7   3   2    2.40    1.30
   7   3   2    1.50    1.90
  -7   3  -2    3.30    1.90
  -7   3  -2    3.40    1.30
   7   3   2    3.20    1.80
   7   3   2    2.30    1.90
  -8  -3  -2   57.29    3.50
   8  -3   2   64.09    5.00
  -8  -3  -2   58.89    2.80
  -8  -3  -2   55.29    4.00
   8  -3   2   62.49    4.10
   8  -3   2   62.89    3.90
   8  -3   2   69.69    5.40
   8   3   2   66.49    4.80
   8   3   2   63.29    4.00
  -8   3  -2   63.59    4.70
   8   3   2   62.29    4.90
   8   3   2   60.09    4.30
  -8   3  -2   60.79    4.00
  -9  -3  -2  280.77    9.90
   9  -3   2  268.07   10.60
  -9  -3  -2  277.97   10.90
   9  -3   2  277.67   10.20
   9  -3   2  229.88   11.00
   9  -3   2  289.37   12.00
  -9   3  -2  272.17   10.40
  -9   3  -2  293.07   11.30
   9   3   2  266.87   11.10
   9   3   2  289.37   11.40
   9   3   2  274.17   10.50
   9   3   2  264.37   10.80
  10  -3   2    3.50    2.00
  10  -3   2    4.20    1.70
  10  -3   2    8.00    2.60
  10  -3   2    9.60    3.30
  10  -3   2    4.90    2.10
 -10  -3  -2    5.80    1.80
  10   3   2    2.50    2.20
 -10   3  -2    3.30    2.40
  10   3   2    4.10    2.40
 -10   3  -2    3.90    1.90
  10   3   2    8.80    2.50
  10   3   2    1.80    2.40
  11  -3   2   10.30    2.10
  11  -3   2   17.80    4.30
  11  -3   2   12.90    2.90
 -11  -3  -2   11.00    2.30
  11  -3   2   19.90    2.00
  11  -3   2   12.30    2.50
  11   3   2   15.70    3.00
  11   3   2   14.80    3.10
  11   3   2   16.90    3.20
  11   3   2   14.70    3.40
 -11   3  -2   16.50    2.80
 -11   3  -2   19.40    3.40
 -12  -3  -2   -1.80    1.90
  12  -3   2   -0.10    1.80
  12  -3   2    2.20    1.80
  12  -3   2   -5.70    4.10
  12  -3   2   -4.20    2.70
  12   3   2    0.00    3.00
  12   3   2    0.30    2.60
  12   3   2   -0.30    2.10
 -12   3  -2    0.70    1.80
  12   3   2   -0.40    2.80
 -12   3  -2    2.60    2.90
  13  -3   2    8.00    2.60
  13  -3   2    5.00    2.10
  13  -3   2   13.10    5.60
  13  -3   2    7.80    3.30
 -13  -3  -2    7.60    2.30
 -13   3  -2   10.20    3.90
  13   3   2    3.30    3.70
  13   3   2    4.90    2.70
  13   3   2    8.90    2.60
  13   3   2   11.20    3.70
 -13   3  -2    4.50    2.10
 -14  -3  -2    1.50    2.20
  14  -3   2   -0.60    2.40
  14  -3   2   -6.90    5.90
  14  -3   2   -3.50    2.10
  14  -3   2    5.70    3.90
  14   3   2    0.10    2.30
  14   3   2   -5.50    4.10
 -14   3  -2    3.30    4.20
  14   3   2    0.60    3.20
 -14   3  -2   -0.70    2.20
  13  -4  -2  125.99   10.50
 -13  -4   2  125.29    6.40
  13  -4  -2  116.29    7.00
  13  -4  -2  122.79    7.20
 -13  -4   2  118.59    7.60
  13   4  -2  124.19    8.20
  13   4  -2  124.39    8.10
  13   4  -2  122.09    8.00
 -13   4   2  111.89    7.10
 -13   4   2  106.89   10.70
  12  -4  -2    4.50    2.30
 -12  -4   2   -0.30    2.50
  12  -4  -2    2.00    4.10
 -12  -4   2   -1.10    2.40
  12  -4  -2   -1.10    2.30
 -12   4   2    1.10    4.60
 -12   4   2   -2.70    2.00
  12   4  -2    2.40    3.00
  12   4  -2    1.70    3.10
  12   4  -2    1.40    3.80
  12   4  -2    3.20    2.70
 -11  -4   2   29.70    3.50
 -11  -4   2   16.90    3.40
  11  -4  -2   31.80    4.90
  11  -4  -2   28.80    4.00
  11  -4  -2   17.90    2.90
  11   4  -2   27.30    3.50
 -11   4   2   29.40    5.30
  11   4  -2   20.60    3.80
  11   4  -2   26.70    4.80
  11   4  -2   22.10    4.00
 -10  -4   2   23.30    2.80
  10  -4  -2   31.50    4.80
 -10  -4   2   25.50    3.50
  10  -4  -2   23.30    3.40
  10  -4  -2   14.90    2.90
  10   4  -2   16.60    3.00
  10   4  -2   26.10    3.80
  10   4  -2   23.00    3.90
 -10   4   2   24.60    4.80
  10   4  -2   20.40    4.10
  -9  -4   2   17.10    2.30
  -9  -4   2   18.20    3.10
   9  -4  -2   15.70    2.80
   9  -4  -2   14.50    3.80
  -9  -4   2   17.30    2.10
   9  -4  -2   12.70    2.60
  -9   4   2   20.00    3.90
   9   4  -2   14.30    3.40
   9   4  -2   18.60    2.30
   9   4  -2   15.70    3.30
   9   4  -2   18.60    3.50
  -8  -4   2    2.10    1.80
   8  -4  -2   -0.30    1.80
  -8  -4   2   -1.50    1.80
   8  -4  -2   -0.40    2.80
  -8  -4   2   -0.30    1.70
   8  -4  -2    3.10    2.00
  -8   4   2    0.20    2.70
   8   4  -2   -2.70    1.90
   8   4  -2    0.00    2.40
   8   4  -2   -2.40    2.20
   8   4  -2    1.80    1.60
   7  -4  -2  152.58    8.20
   7  -4  -2  137.09    7.00
   7  -4  -2  138.39    6.60
  -7  -4   2  142.49    6.40
  -7  -4   2  134.69    7.00
  -7  -4   2  134.79    5.20
   7   4  -2  162.48    7.90
   7   4  -2  139.89    5.30
  -7   4   2  145.09    5.30
   7   4  -2  129.69    7.50
   7   4  -2  141.79    7.30
  -7   4   2  147.89    8.00
   6  -4  -2    3.80    2.30
   6  -4  -2    2.70    1.80
   6  -4  -2    2.40    1.70
  -6  -4   2    2.60    1.70
  -6  -4   2    2.10    1.70
   6   4  -2    4.40    2.30
  -6   4   2    1.50    1.70
   6   4  -2    7.60    2.20
   6   4  -2    4.90    2.60
  -6   4   2    3.90    2.10
   5  -4  -2   31.90    4.40
  -5  -4   2   27.30    3.60
   5  -4  -2   26.10    3.10
   5  -4  -2   32.60    2.80
  -5  -4   2   28.00    3.10
   5   4  -2   32.50    3.90
  -5   4   2   28.90    2.70
   5   4  -2   29.20    4.00
  -5   4   2   28.30    4.30
   5   4  -2   25.60    3.30
   4  -4  -2  117.99    5.40
   4  -4  -2  114.09    5.80
  -4  -4   2  108.39    6.00
  -4  -4   2  102.39    5.70
   4  -4  -2  116.59    6.80
  -4   4   2  109.29    5.10
   4   4  -2  102.79    5.70
   4   4  -2  110.99    6.20
  -4   4   2  111.89    6.50
   4   4  -2  117.19    6.40
   3  -4  -2   37.60    4.50
   3  -4  -2   45.90    3.80
   3  -4  -2   50.19    3.40
  -3  -4   2   47.40    4.20
  -3  -4   2   45.10    3.70
  -3   4   2   46.30    4.40
  -3   4   2   49.90    3.40
   3   4  -2   38.50    3.90
   3   4  -2   48.50    4.30
  -2  -4   2   48.50    4.40
   2  -4  -2   51.19    3.40
   2  -4  -2   46.80    4.50
  -2  -4   2   45.00    3.60
   2  -4  -2   47.70    3.70
  -2   4   2   47.90    4.50
   2   4  -2   52.99    4.00
  -2   4   2   48.40    3.60
  -2   4   2   48.30    3.60
   2   4  -2   48.60    4.10
   1  -4  -2   16.10    2.30
   1  -4  -2   10.90    2.20
   1  -4  -2   12.60    2.70
  -1  -4   2   13.10    2.30
  -1  -4   2   12.50    2.80
   1   4  -2   12.70    2.50
  -1   4   2   10.80    2.50
  -1   4   2   14.50    2.50
   1   4  -2   15.00    2.40
  -1   4   2   14.70    2.00
   0  -4  -2   39.50    4.20
   0  -4  -2   33.00    3.20
   0  -4   2   34.10    3.10
   0  -4   2   42.80    4.40
   0   4  -2   41.30    4.00
   0   4   2   39.20    2.70
   0   4  -2   34.60    3.40
   0   4   2   37.30    3.30
   0   4   2   34.20    4.00
  -1  -4  -2   40.80    4.10
   1  -4   2   33.20    4.20
   1  -4   2   36.60    3.30
  -1  -4  -2   38.20    3.40
  -1   4  -2   35.20    3.20
   1   4   2   38.50    3.50
  -1   4  -2   37.70    2.40
   1   4   2   38.00    4.10
   1   4   2   41.30    2.80
  -1   4  -2   38.60    2.00
  -1   4  -2   42.10    3.80
   2  -4   2  236.38    9.20
  -2  -4  -2  234.18    9.40
  -2  -4  -2  242.18    9.70
   2  -4   2  214.48    8.90
   2  -4   2  234.48   10.10
  -2   4  -2  223.88    8.90
  -2   4  -2  246.68    7.70
   2   4   2  232.78   10.00
   2   4   2  225.38    9.50
   2   4   2  235.38    7.90
  -2   4  -2  227.98    9.70
   3  -4   2   41.50    3.30
   3  -4   2   31.70    4.30
  -3  -4  -2   39.40    4.00
  -3  -4  -2   36.40    3.50
   3  -4   2   44.40    3.60
  -3   4  -2   39.40    4.00
   3   4   2   39.10    4.10
   3   4   2   43.30    3.70
  -3   4  -2   41.60    3.20
  -3   4  -2   41.70    2.60
   3   4   2   40.80    2.50
   4  -4   2    6.00    1.90
   4  -4   2    6.80    2.00
  -4  -4  -2    8.00    2.20
   4  -4   2    3.40    2.50
  -4  -4  -2    5.00    2.10
  -4   4  -2    5.80    2.10
   4   4   2    7.30    1.40
   4   4   2    8.40    2.40
  -4   4  -2    5.20    1.70
  -4   4  -2    5.40    1.50
   4   4   2    2.60    2.00
   4   4   2    7.90    2.10
  -5  -4  -2   41.80    2.80
   5  -4   2   35.80    3.30
   5  -4   2   39.40    4.90
  -5  -4  -2   35.40    3.60
   5  -4   2   31.70    3.20
  -5  -4  -2   44.50    3.90
  -5   4  -2   37.00    3.90
  -5   4  -2   32.30    2.80
   5   4   2   35.40    3.40
  -5   4  -2   41.20    3.20
   5   4   2   30.60    3.70
   5   4   2   37.50    2.70
   5   4   2   36.20    4.30
  -6  -4  -2    2.10    1.80
   6  -4   2    3.00    1.90
   6  -4   2    2.30    1.70
  -6  -4  -2    1.80    1.70
   6  -4   2   -1.40    2.00
   6  -4   2    6.20    2.60
  -6  -4  -2    3.50    1.70
   6   4   2    5.00    2.80
   6   4   2    1.40    1.90
   6   4   2    5.10    2.30
  -6   4  -2    4.90    1.70
  -6   4  -2    0.50    1.60
   6   4   2    5.30    1.60
  -6   4  -2    4.20    1.90
   7  -4   2   75.59    6.80
  -7  -4  -2   63.79    4.80
   7  -4   2   70.59    5.80
  -7  -4  -2   72.89    4.30
   7  -4   2   68.69    4.50
   7  -4   2   75.49    4.70
  -7  -4  -2   69.69    4.10
  -7   4  -2   72.69    4.30
   7   4   2   63.69    4.00
   7   4   2   78.39    6.00
  -7   4  -2   69.49    5.60
  -7   4  -2   72.99    4.00
   7   4   2   70.09    5.30
   7   4   2   62.49    4.70
   8  -4   2   14.40    2.70
  -8  -4  -2    8.50    2.50
  -8  -4  -2   12.80    2.10
   8  -4   2   11.40    2.90
   8  -4   2   12.30    3.40
   8  -4   2   10.50    2.40
  -8  -4  -2   13.40    2.30
  -8   4  -2   13.30    2.90
  -8   4  -2   14.20    2.40
   8   4   2   15.40    3.10
   8   4   2   10.80    2.90
   8   4   2   11.30    3.20
   8   4   2   10.80    2.30
  -9  -4  -2    6.80    2.30
   9  -4   2   14.50    2.70
   9  -4   2   10.50    3.40
   9  -4   2   15.50    2.90
   9  -4   2   11.60    3.60
  -9  -4  -2    9.50    2.40
  -9  -4  -2   19.70    2.70
   9   4   2   12.00    3.60
   9   4   2   15.40    2.70
  -9   4  -2   15.00    2.50
  -9   4  -2   14.40    3.20
   9   4   2   10.50    2.90
   9   4   2   18.10    3.50
  10  -4   2   58.59    6.60
  10  -4   2   38.40    3.90
  10  -4   2   46.90    6.90
  10  -4   2   54.49    4.40
 -10  -4  -2   39.60    4.20
 -10  -4  -2   40.10    3.80
  10   4   2   32.10    4.50
  10   4   2   37.90    4.60
 -10   4  -2   41.40    4.00
  10   4   2   34.80    4.60
  10   4   2   54.99    6.50
 -10   4  -2   52.99    6.10
  11  -4   2   11.30    4.70
 -11  -4  -2   -1.00    2.10
  11  -4   2    6.40    2.40
 -11  -4  -2    8.40    2.50
  11  -4   2    7.20    4.00
  11  -4   2    1.00    2.10
 -11   4  -2   -0.10    3.30
  11   4   2    5.70    2.90
  11   4   2    3.00    3.70
  11   4   2   -0.80    2.20
 -11   4  -2    3.70    2.10
  11   4   2    6.30    3.10
  12  -4   2   78.79    5.40
 -12  -4  -2   74.89    6.00
  12  -4   2   88.39    9.90
  12  -4   2   80.19    5.80
 -12  -4  -2   83.39    5.30
  12  -4   2   85.89    8.50
  12   4   2   80.79    6.10
 -12   4  -2   92.19    8.60
  12   4   2   98.09    7.00
  12   4   2   72.89    6.00
 -12   4  -2   81.19    5.40
  12   4   2   74.09    8.50
  13  -4   2   13.20    4.90
 -13  -4  -2    9.30    3.20
 -13  -4  -2   11.10    3.10
  13  -4   2   13.20    3.30
  13  -4   2   23.90    7.10
  13  -4   2   13.10    3.20
 -13   4  -2   25.50    5.60
  13   4   2   12.30    4.00
  13   4   2   11.00    3.50
  13   4   2    9.50    4.40
 -13   4  -2    8.40    2.60
  10  -5  -2    9.70    5.10
  10  -5  -2    6.10    2.60
  10  -5  -2    8.80    2.90
 -10  -5   2    8.80    2.80
 -10  -5   2   10.90    2.80
  10   5  -2    8.10    3.30
 -10   5   2    9.30    5.10
  10   5  -2    7.10    3.70
  10   5  -2   13.80    5.30
  -9  -5   2    3.60    2.90
  -9  -5   2    3.30    2.80
   9  -5  -2    6.60    2.60
   9  -5  -2    4.50    2.50
   9  -5  -2    5.00    4.60
  -9   5   2    6.30    4.60
   9   5  -2    0.30    2.80
   9   5  -2   -0.40    3.70
   9   5  -2    1.20    2.80
  -8  -5   2    2.20    3.30
   8  -5  -2   10.80    4.10
   8  -5  -2    1.10    2.20
   8  -5  -2    3.90    2.40
  -8  -5   2    1.80    2.30
  -8   5   2    1.40    5.60
   8   5  -2    1.60    2.80
   8   5  -2   -2.00    3.60
   8   5  -2   -0.40    2.50
  -8   5   2   -4.70    3.60
   7  -5  -2   -0.60    3.90
  -7  -5   2   -4.90    2.90
  -7  -5   2   -0.90    2.50
   7  -5  -2   -3.50    2.10
   7  -5  -2   -3.60    1.90
  -7   5   2    2.80    3.30
  -7   5   2   -2.00    2.10
   7   5  -2    2.50    2.60
   7   5  -2    3.00    2.20
   7   5  -2    0.70    3.00
  -6  -5   2   19.00    3.60
   6  -5  -2   25.70    3.50
   6  -5  -2   16.40    4.10
   6  -5  -2   17.50    3.10
  -6  -5   2   18.80    3.50
   6   5  -2   15.40    3.50
   6   5  -2   22.30    4.40
  -6   5   2   18.80    2.90
  -6   5   2   12.90    3.30
   5  -5  -2   -1.60    1.90
  -5  -5   2   -0.80    2.00
   5  -5  -2    1.20    1.90
   5  -5  -2    1.10    3.70
  -5  -5   2   -0.40    2.80
   5   5  -2    0.70    2.50
  -5   5   2    0.80    2.30
   5   5  -2   -0.30    2.80
  -5   5   2   -1.30    3.00
   4  -5  -2   26.00    4.30
  -4  -5   2   21.90    3.50
  -4  -5   2   31.90    4.00
   4  -5  -2   22.30    3.50
   4  -5  -2   25.90    3.40
  -4   5   2   23.70    3.90
   4   5  -2   19.90    3.70
  -4   5   2   26.10    3.50
   4   5  -2   32.70    5.30
  -4   5   2   25.40    3.50
   3  -5  -2    0.50    2.10
  -3  -5   2    1.70    2.80
   3  -5  -2    2.10    2.00
  -3  -5   2    0.40    1.80
   3  -5  -2    2.10    3.10
   3   5  -2    2.70    2.70
  -3   5   2    1.80    2.10
  -3   5   2    2.80    2.30
  -3   5   2    0.40    3.00
   3   5  -2    1.40    2.50
   2  -5  -2   17.10    3.30
   2  -5  -2   13.80    3.80
   2  -5  -2   17.50    2.80
  -2  -5   2   14.00    2.70
  -2  -5   2   24.00    3.70
   2   5  -2   21.60    3.60
   2   5  -2   21.30    3.50
  -2   5   2   20.50    3.30
  -2   5   2   25.10    3.50
  -2   5   2   24.70    4.40
   1  -5  -2    1.20    2.70
   1  -5  -2    3.50    1.90
  -1  -5   2    5.80    3.10
  -1  -5   2    1.40    2.00
   1  -5  -2    0.80    2.00
  -1   5   2    4.80    3.20
   1   5  -2    0.00    2.30
  -1   5   2    1.60    1.70
   1   5  -2    3.70    2.40
  -1   5   2    1.90    2.20
   0  -5  -2   29.60    3.60
   0  -5   2   38.70    3.70
   0  -5  -2   31.80    3.50
   0  -5   2   42.40    5.60
   0  -5  -2   41.80    5.40
   0   5  -2   34.40    4.00
   0   5   2   32.90    3.00
   0   5   2   37.70    4.80
   0   5  -2   35.00    4.50
   0   5   2   31.40    4.00
  -1  -5  -2   95.29    6.10
   1  -5   2   89.89    5.70
  -1  -5  -2  105.69    7.40
   1  -5   2  104.99    5.80
   1  -5   2   97.89    7.50
   1   5   2  104.89    6.20
  -1   5  -2  106.39    7.00
   1   5   2   94.09    7.10
   1   5   2  108.69    4.50
  -1   5  -2   99.19    5.90
   2  -5   2   42.20    3.80
  -2  -5  -2   38.80    4.00
   2  -5   2   38.20    4.10
   2  -5   2   43.70    6.10
  -2  -5  -2   39.50    5.70
  -2   5  -2   40.70    4.10
   2   5   2   37.40    5.30
  -2   5  -2   40.20    3.10
   2   5   2   42.20    4.50
  -2   5  -2   47.30    5.40
  -2   5  -2   40.60    2.50
   2   5   2   46.70    2.70
   3  -5   2   -3.60    1.90
  -3  -5  -2   -0.20    2.10
  -3  -5  -2   -3.20    2.70
   3  -5   2    0.10    3.10
   3  -5   2    1.70    2.00
   3   5   2   -0.10    2.40
  -3   5  -2   -0.80    2.70
   3   5   2   -0.10    2.40
   3   5   2   -0.70    1.20
  -3   5  -2   -2.40    1.40
  -3   5  -2    1.20    2.10
  -3   5  -2   -0.60    1.90
   4  -5   2   15.20    2.90
   4  -5   2   19.50    4.60
  -4  -5  -2   12.40    2.60
  -4  -5  -2   18.00    3.50
   4  -5   2   19.40    3.20
  -4   5  -2   18.00    2.50
   4   5   2   13.50    3.10
  -4   5  -2   26.50    4.20
   4   5   2   15.20    3.60
   4   5   2   21.80    2.20
  -4   5  -2   16.90    2.90
  -5  -5  -2    5.10    2.80
  -5  -5  -2    3.00    1.90
   5  -5   2    5.30    2.40
   5  -5   2    6.90    2.30
   5  -5   2   -0.50    3.40
  -5   5  -2    3.80    1.80
   5   5   2    5.30    1.50
   5   5   2    9.90    3.40
  -5   5  -2    7.40    2.50
  -5   5  -2    8.70    3.20
   5   5   2    7.40    2.50
  -6  -5  -2   63.89    5.70
   6  -5   2   67.19    7.30
   6  -5   2   59.29    4.70
  -6  -5  -2   59.59    5.10
   6  -5   2   59.79    4.80
  -6   5  -2   59.59    4.10
   6   5   2   61.89    7.20
   6   5   2   64.79    3.60
   6   5   2   62.69    5.30
  -6   5  -2   64.29    6.10
  -6   5  -2   58.79    4.20
  -7  -5  -2    7.30    3.00
  -7  -5  -2    1.30    2.60
   7  -5   2   -4.40    3.70
   7  -5   2    3.40    2.60
   7  -5   2    4.10    2.50
  -7   5  -2    5.90    2.20
   7   5   2    3.30    3.80
   7   5   2    3.70    2.70
  -7   5  -2    4.10    3.50
   7   5   2    3.60    2.10
   7   5   2    3.90    2.80
  -7   5  -2    3.70    2.00
   8  -5   2   34.70    5.10
   8  -5   2   31.40    4.00
  -8  -5  -2   25.80    4.20
  -8  -5  -2   31.70    3.80
   8  -5   2   23.10    3.40
  -8  -5  -2   26.10    3.00
   8   5   2   22.30    4.40
   8   5   2   37.20    4.10
  -8   5  -2   29.60    3.90
  -8   5  -2   38.50    3.80
   8   5   2   36.70    4.70
   8   5   2   29.90    4.70
  -8   5  -2   30.90    4.80
  -9  -5  -2   28.40    3.50
  -9  -5  -2   19.50    3.90
  -9  -5  -2   17.40    3.10
   9  -5   2   17.40    3.10
   9  -5   2   17.60    3.20
   9  -5   2   20.30    5.10
   9   5   2   19.50    5.10
   9   5   2   23.80    4.30
  -9   5  -2   20.90    2.90
  -9   5  -2   26.40    4.70
   9   5   2   25.70    3.30
   9   5   2   19.70    4.50
 -10  -5  -2   33.00    3.80
  10  -5   2   15.40    5.30
 -10  -5  -2   20.60    3.10
 -10  -5  -2   21.50    3.70
  10  -5   2   17.60    3.30
  10  -5   2   22.50    3.50
 -10   5  -2   19.40    3.10
  10   5   2   21.30    6.90
 -10   5  -2   15.20    4.70
  10   5   2   19.50    4.30
  10   5   2   28.90    3.90
  10   5   2   27.20    4.30
   6  -6  -2   13.30    3.40
   6  -6  -2    5.60    3.10
  -6  -6   2    6.40    3.50
  -6  -6   2   16.30    5.30
   6   6  -2   16.80    5.90
  -6   6   2   17.80    5.00
   6   6  -2    8.60    3.40
  -6   6   2   24.10    6.00
  -6   6   2   16.90    3.40
  -5  -6   2    3.30    2.60
   5  -6  -2   -4.00    6.80
  -5  -6   2    3.70    4.90
   5  -6  -2    3.70    2.60
   5  -6  -2    1.40    2.70
  -5   6   2    3.90    5.50
   5   6  -2    7.30    4.90
  -5   6   2   -0.10    3.00
   5   6  -2    6.10    3.20
  -5   6   2    3.80    3.70
  -4  -6   2   19.00    4.00
   4  -6  -2   19.70    5.90
   4  -6  -2   29.50    4.10
  -4  -6   2   27.60    5.20
   4  -6  -2   20.90    3.80
   4   6  -2   16.40    4.20
  -4   6   2   33.50    6.60
  -4   6   2   22.90    4.00
  -4   6   2   22.40    3.90
   4   6  -2   25.90    5.50
  -3  -6   2   11.40    3.00
   3  -6  -2   17.70    5.60
  -3  -6   2   16.10    4.70
   3  -6  -2   17.10    3.10
   3  -6  -2   10.50    2.90
  -3   6   2    9.50    3.10
   3   6  -2   15.30    4.30
   3   6  -2   12.10    4.40
  -3   6   2   12.20    3.20
  -3   6   2   17.20    5.20
   2  -6  -2    9.70    3.20
   2  -6  -2    8.10    3.00
  -2  -6   2    4.60    2.80
  -2  -6   2   10.40    4.90
   2  -6  -2   10.30    4.90
  -2   6   2   13.80    5.00
   2   6  -2   13.50    4.70
  -2   6   2   12.70    3.40
  -2   6   2   10.70    3.00
   2   6  -2    6.20    3.20
   1  -6  -2   72.69    5.40
  -1  -6   2   75.39    5.70
  -1  -6   2   75.09    8.70
   1  -6  -2   67.19    5.70
   1  -6  -2   81.69    9.80
   1   6  -2   70.39    6.00
  -1   6   2   72.59    5.80
  -1   6   2   80.19    4.70
  -1   6   2   78.69    9.40
   1   6  -2   80.09    7.70
   0  -6  -2    8.50    2.90
   0  -6   2    3.50    2.60
   0  -6  -2   11.10    5.30
   0  -6   2    5.40    4.40
   0  -6   2    5.60    2.90
   0  -6  -2    4.20    2.40
   0   6   2    6.60    3.20
   0   6  -2    9.10    2.90
   0   6   2    7.20    1.70
   0   6  -2   -1.80    3.60
   0   6   2   11.30    4.20
  -1  -6  -2    8.80    4.80
  -1  -6  -2    2.20    2.50
   1  -6   2    4.70    2.70
   1  -6   2   13.20    3.20
   1  -6   2    9.20    4.70
  -1   6  -2    8.90    4.20
   1   6   2    8.60    3.30
   1   6   2    7.70    4.10
  -1   6  -2   11.30    3.20
   2  -6   2   12.40    3.20
  -2  -6  -2    4.80    2.50
   2  -6   2   13.70    5.10
  -2  -6  -2   10.10    5.00
   2  -6   2   11.80    3.30
   2   6   2   10.70    3.30
  -2   6  -2    8.60    3.00
   2   6   2   10.30    4.10
  -2   6  -2    9.10    4.10
  -3  -6  -2   18.70    3.60
   3  -6   2   20.90    3.70
   3  -6   2   37.00    6.40
  -3  -6  -2   31.80    6.00
   3  -6   2   25.50    4.00
  -3   6  -2   27.50    3.90
  -3   6  -2   32.50    5.30
   3   6   2   29.40    4.30
   3   6   2   14.70    4.30
  -3   6  -2   23.90    4.00
  -4  -6  -2    6.00    3.00
  -4  -6  -2    5.40    4.60
   4  -6   2   11.30    5.30
   4  -6   2    5.90    2.90
   4  -6   2    9.50    3.30
  -4   6  -2   14.30    3.20
  -4   6  -2   14.40    4.90
   4   6   2   12.00    3.80
  -4   6  -2   15.30    3.20
   4   6   2    7.80    4.40
   5  -6   2   31.20    8.00
  -5  -6  -2   37.80    5.10
  -5  -6  -2   41.60    5.90
   5  -6   2   45.30    4.80
   5  -6   2   52.59    5.00
  -5   6  -2   46.90    5.00
  -5   6  -2   48.60    6.40
  -5   6  -2   41.40    4.00
   5   6   2   41.60    5.90
  -5   6  -2   49.90    6.60
   5   6   2   63.29   10.00
   6  -6   2   27.60    4.10
  -6  -6  -2   34.10    4.70
  -6  -6  -2   40.00    5.80
   6  -6   2   31.80    4.40
  -6   6  -2   42.50    6.80
  -6   6  -2   27.50    3.90
  -6   6  -2   35.10    4.10
   6   6   2   26.60    5.30
 -16   0   3   -1.90    2.10
  16   0  -3   -0.50    5.50
  16   0  -3    0.80    2.40
  16   0  -3    1.00    2.20
 -16   0   3   -7.50    3.60
  16   0  -3   10.30    3.10
 -15   0   3   53.69    6.70
  15   0  -3   67.39    8.10
  15   0  -3   49.30    4.50
 -15   0   3   40.20    4.20
  15   0  -3   45.20    4.40
  15   0  -3   48.60    4.50
  14   0  -3   -0.20    1.70
  14   0  -3   -1.30    1.80
 -14   0   3   -0.60    2.10
  14   0  -3    0.10    3.50
  14   0  -3    2.90    2.30
 -14   0   3   -5.50    2.60
  13   0  -3  411.46   15.20
 -13   0   3  397.96   15.00
  13   0  -3  421.36   16.80
  13   0  -3  428.96   13.90
  13   0  -3  391.36   14.80
 -13   0   3  424.46   16.00
  12   0  -3    0.70    1.50
  12   0  -3    2.20    1.80
 -12   0   3    0.50    1.70
  12   0  -3   -2.80    2.40
  12   0  -3    0.10    1.80
  11   0  -3   91.79    6.20
  11   0  -3   79.99    4.10
  11   0  -3   82.79    4.90
  11   0  -3   76.89    4.60
  10   0  -3   -1.70    1.30
  10   0  -3   -2.20    1.30
  10   0  -3   -1.20    1.40
  10   0  -3    0.30    1.70
  10   0  -3   -1.20    0.80
   9   0  -3   91.09    3.70
   9   0  -3   95.29    4.50
   9   0  -3   86.99    4.60
   9   0  -3   97.19    5.50
   9   0  -3   98.99    4.20
   8   0  -3   -1.10    1.10
   8   0  -3    0.20    1.00
   8   0  -3   -2.40    1.30
   8   0  -3   -2.10    1.10
   8   0  -3    0.30    0.80
   7   0  -3   11.90    1.60
   7   0  -3   10.40    1.50
   7   0  -3   13.60    1.80
   7   0  -3   14.30    2.30
   7   0  -3   11.90    1.30
   6   0  -3   -1.40    0.90
   6   0  -3    1.40    1.10
   6   0  -3    0.70    0.60
   6   0  -3    0.50    1.00
   6   0  -3   -0.30    0.90
   5   0  -3  113.29    4.00
   5   0  -3  106.89    4.90
   5   0  -3  114.59    4.40
   5   0  -3  117.39    4.10
   5   0  -3  119.39    4.50
   4   0  -3    0.00    0.80
   4   0  -3    0.30    0.70
   4   0  -3   -0.50    0.60
   4   0  -3    2.40    0.80
   4   0  -3   -0.30    0.50
   3   0  -3   66.79    2.40
   3   0  -3   66.49    2.70
   3   0  -3   62.79    2.50
   3   0  -3   69.29    2.70
   3   0  -3   62.29    3.00
   2   0  -3    0.30    0.60
   2   0  -3   -0.10    0.50
   2   0  -3   -0.10    0.40
   1   0  -3  745.13   21.00
   1   0  -3  729.93   21.00
   1   0  -3  752.22   21.00
  -1   0   3  679.23   21.10
   0   0  -3   -0.50    0.20
   0   0  -3    0.50    0.50
   0   0   3    0.10    0.30
   0   0   3   -0.10    0.50
  -1   0  -3 1644.24   45.40
   1   0   3 1520.95   45.90
  -1   0  -3 1631.84   45.70
   1   0   3 1528.65   45.70
   1   0   3 1689.03   45.60
   1   0   3 1544.05   45.50
   2   0   3    0.00    0.40
   2   0   3    0.10    0.40
  -2   0  -3    0.20    0.50
   2   0   3    0.80    0.60
   2   0   3    0.30    0.60
   3   0   3 1801.52   49.60
   3   0   3 1603.44   49.50
   3   0   3 1779.12   49.60
  -3   0  -3 1769.62   49.70
   3   0   3 1701.33   49.90
   3   0   3 1665.63   49.40
   3   0   3 1723.83   49.30
  -4   0  -3   -0.30    0.60
   4   0   3    0.30    0.50
   4   0   3    0.20    0.70
   4   0   3    0.40    0.80
   4   0   3    0.00    0.60
   4   0   3    0.40    0.70
   5   0   3  134.99    4.70
   5   0   3  132.49    5.50
   5   0   3  129.09    4.90
   5   0   3  129.39    4.50
  -5   0  -3  129.89    5.00
   5   0   3  137.69    4.90
   6   0   3    0.20    0.80
  -6   0  -3    0.40    0.80
   6   0   3    0.70    1.10
   6   0   3   -0.90    0.50
   6   0   3    0.60    0.80
   6   0   3    0.00    0.80
   7   0   3  149.99    5.50
   7   0   3  126.19    5.30
  -7   0  -3  142.49    5.70
   7   0   3  144.39    5.70
   7   0   3  144.69    5.00
   7   0   3  146.79    6.30
   8   0   3    0.70    1.20
   8   0   3    1.60    1.30
   8   0   3   -1.30    1.00
  -8   0  -3    0.30    1.10
   8   0   3   -0.10    1.10
   8   0   3    0.20    0.80
   9   0   3   28.10    2.60
   9   0   3   28.30    2.50
   9   0   3   26.90    2.60
  -9   0  -3   27.20    2.70
   9   0   3   28.00    2.00
   9   0   3   31.80    3.40
 -10   0  -3    0.00    1.30
  10   0   3    0.00    1.10
  10   0   3    0.60    1.40
  10   0   3   -0.30    1.50
  10   0   3    1.40    1.90
  10   0   3    0.70    1.00
 -11   0  -3   74.69    4.70
  11   0   3   80.89    4.30
  11   0   3   77.79    4.30
  11   0   3   82.99    5.90
  11   0   3   72.99    3.40
  11   0   3   77.59    4.70
 -12   0  -3   -0.60    1.40
  12   0   3   -0.20    1.50
  12   0   3   -0.20    1.10
  12   0   3    2.40    1.80
  12   0   3   -2.20    1.70
  12   0   3   -0.40    2.60
  13   0   3  157.28    9.10
 -13   0  -3  138.79    7.30
  13   0   3  144.69    7.40
  13   0   3  150.98    6.80
  13   0   3  152.08    7.00
  14   0   3    0.60    2.00
  14   0   3   -0.40    2.00
  14   0   3    2.00    3.70
 -14   0  -3    0.80    1.70
  15   0   3    2.90    4.50
  15   0   3   -1.00    2.30
  15   0   3   -0.20    2.30
 -15   0  -3    1.10    2.10
 -15   0  -3    7.60    3.30
  16   0   3   -1.30    2.80
 -16   0  -3    2.30    2.20
  16   0   3   -8.40    5.10
  16   0   3    1.20    2.80
 -16   0  -3   -3.00    4.00
  16  -1  -3   -4.10    6.30
  16  -1  -3    3.30    2.50
  16  -1  -3    2.90    2.50
 -16  -1   3    1.70    2.10
  16  -1  -3    7.10    2.50
 -16   1   3    1.90    2.10
  16   1  -3   -5.60    5.20
  16   1  -3   -4.50    2.40
  16   1  -3    2.90    3.20
 -16   1   3    6.60    4.60
  15  -1  -3    0.00    4.60
  15  -1  -3   -2.60    1.90
  15  -1  -3    0.10    2.40
  15  -1  -3    0.40    2.30
 -15  -1   3    3.10    2.00
 -15   1   3   -3.30    3.50
 -15   1   3    0.60    2.00
  15   1  -3    0.00    2.80
  15   1  -3    5.00    4.30
  15   1  -3    0.30    2.40
  14  -1  -3   30.20    5.30
 -14  -1   3   30.50    3.50
  14  -1  -3   39.20    3.80
  14  -1  -3   36.30    3.80
  14  -1  -3   26.60    3.50
 -14   1   3   34.30    5.60
 -14   1   3   35.30    3.80
  14   1  -3   39.40    4.20
  14   1  -3   44.60    6.60
  14   1  -3   46.50    4.20
 -13  -1   3    5.70    2.00
  13  -1  -3    7.40    1.80
  13  -1  -3    7.40    2.40
  13  -1  -3    8.70    2.20
  13  -1  -3    8.40    2.00
  13   1  -3    7.30    3.10
  13   1  -3    9.60    2.40
 -13   1   3    5.40    1.80
  13   1  -3    5.10    2.60
  13   1  -3    6.60    2.10
 -13   1   3    9.20    2.70
  12  -1  -3   22.30    3.00
  12  -1  -3   20.10    2.80
  12  -1  -3   21.10    3.10
  12  -1  -3   26.90    2.20
  12  -1  -3   19.80    3.70
 -12  -1   3   15.30    2.40
  12   1  -3   19.40    2.90
 -12   1   3   20.60    3.20
  12   1  -3   23.20    3.20
  12   1  -3   28.20    3.10
  12   1  -3   24.80    3.80
  11  -1  -3  349.37   11.80
  11  -1  -3  362.76   14.30
  11  -1  -3  331.77   12.50
 -11  -1   3  333.27   12.20
  11  -1  -3  337.27   12.40
  11  -1  -3  370.26   10.70
  11   1  -3  335.57   12.90
  11   1  -3  345.67   12.30
 -11   1   3  354.16   13.50
  11   1  -3  336.57   12.50
  11   1  -3  347.07   13.50
  10  -1  -3   94.69    3.50
  10  -1  -3   85.99    4.80
  10  -1  -3   96.49    4.60
 -10  -1   3   90.59    4.80
  10  -1  -3   92.59    4.90
  10  -1  -3   96.79    6.30
  10   1  -3   91.79    4.80
  10   1  -3   96.29    5.60
  10   1  -3   93.49    4.80
 -10   1   3   94.69    5.60
  10   1  -3   86.09    5.00
   9  -1  -3   16.80    1.50
   9  -1  -3   15.90    2.00
  -9  -1   3   18.00    2.30
   9  -1  -3   18.30    2.10
   9  -1  -3   18.20    2.50
   9  -1  -3   17.10    2.60
   9   1  -3   16.80    2.40
   9   1  -3   16.20    2.20
   9   1  -3   16.30    2.40
   9   1  -3   17.70    2.50
  -9   1   3   15.90    2.60
   8  -1  -3    6.60    1.60
   8  -1  -3    8.70    0.90
   8  -1  -3    5.70    1.30
   8  -1  -3   10.70    2.30
   8  -1  -3    6.00    1.40
  -8   1   3    6.10    1.60
   8   1  -3    8.40    1.70
   8   1  -3    7.50    1.80
   8   1  -3    4.90    1.70
   8   1  -3    5.60    1.50
   7  -1  -3  493.25   15.60
   7  -1  -3  511.55   15.70
   7  -1  -3  503.95   15.80
   7  -1  -3  502.75   16.90
   7   1  -3  499.65   16.00
   7   1  -3  491.65   16.20
  -7   1   3  490.75   16.50
   7   1  -3  462.65   15.70
   7   1  -3  475.05   15.70
   6  -1  -3    6.50    1.30
   6  -1  -3    6.70    1.30
   6  -1  -3    5.60    1.20
  -6  -1   3    6.90    0.70
   6  -1  -3    5.80    1.50
   6   1  -3    8.50    1.50
   6   1  -3    8.50    1.60
   6   1  -3    9.30    1.70
   6   1  -3    5.90    1.30
  -6   1   3    6.20    1.50
   5  -1  -3  447.96   14.60
   5  -1  -3  468.45   14.60
   5  -1  -3  475.25   14.40
   5  -1  -3  462.45   15.40
  -5  -1   3  465.85   13.80
   5   1  -3  462.75   14.50
   5   1  -3  479.55   14.70
  -5   1   3  469.65   15.20
   5   1  -3  458.55   14.90
   5   1  -3  470.25   14.80
   5   1  -3  473.45   14.80
   4  -1  -3  119.79    4.50
   4  -1  -3  119.39    4.20
  -4  -1   3  115.49    3.90
   4  -1  -3  110.79    5.00
   4  -1  -3  115.49    4.60
   4   1  -3  113.19    4.30
   4   1  -3  116.49    4.60
   4   1  -3  113.49    4.40
   4   1  -3  113.89    4.50
   4   1  -3  113.99    4.60
  -4   1   3  115.69    4.90
   3  -1  -3 1053.69   29.90
   3  -1  -3 1074.19   30.20
   3  -1  -3  993.00   30.30
  -3  -1   3  958.50   29.70
   3   1  -3 1069.49   30.30
  -3   1   3 1001.80   30.60
   3   1  -3  980.70   30.30
  -3   1   3 1075.89   29.30
   3   1  -3  984.30   30.00
   3   1  -3 1067.09   30.30
   2  -1  -3   36.10    1.90
  -2  -1   3   30.40    1.70
   2  -1  -3   37.00    1.60
   2  -1  -3   33.40    2.20
   2   1  -3   34.50    2.00
  -2   1   3   34.70    2.30
  -2   1   3   35.20    1.50
   2   1  -3   33.70    2.00
   2   1  -3   33.70    1.90
   1  -1  -3   94.49    3.90
  -1  -1   3   96.39    3.70
   1  -1  -3  105.89    3.30
  -1  -1   3  101.79    3.20
   1  -1  -3  105.09    3.70
   1   1  -3  101.99    3.80
  -1   1   3  102.89    3.40
   1   1  -3  100.59    3.60
   1   1  -3  104.79    3.80
  -1   1   3   99.49    4.10
   0  -1  -3  300.07    9.20
   0  -1   3  297.17    8.80
   0  -1  -3  286.87    9.10
   0  -1  -3  274.07    9.30
   0  -1   3  322.17    8.90
   0  -1   3  304.47    9.30
   0   1   3  265.67    9.40
   0   1   3  281.07    9.40
   0   1   3  293.57    9.10
   0   1  -3  297.77    9.00
   0   1  -3  308.57    9.30
   0   1  -3  315.07    8.70
   1  -1   3  772.42   21.60
  -1  -1  -3  793.22   22.00
   1  -1   3  713.33   21.80
   1  -1   3  684.73   22.10
  -1  -1  -3  784.22   22.10
  -1  -1  -3  733.53   22.10
  -1   1  -3  712.33   21.80
   1   1   3  784.62   22.10
   1   1   3  782.42   21.60
  -1   1  -3  722.83   21.60
   1   1   3  737.83   22.30
   1   1   3  738.63   22.10
  -1   1  -3  752.22   22.00
   2  -1   3  908.01   26.30
  -2  -1  -3  945.71   26.30
  -2  -1  -3  916.41   26.10
  -2  -1  -3  853.81   26.00
   2  -1   3  871.11   26.20
   2  -1   3  874.91   26.40
   2  -1   3  937.01   25.80
   2   1   3  850.21   26.50
  -2   1  -3  905.01   26.00
   2   1   3  883.61   25.90
  -2   1  -3  883.51   26.10
  -2   1  -3  860.71   26.00
   2   1   3  940.41   26.40
   2   1   3  856.61   26.30
  -3  -1  -3   54.69    2.30
   3  -1   3   60.19    2.70
  -3  -1  -3   58.29    2.60
   3  -1   3   56.89    2.90
   3  -1   3   57.99    2.90
   3  -1   3   59.79    2.30
  -3   1  -3   61.59    2.60
  -3   1  -3   56.49    2.50
   3   1   3   54.69    2.80
   3   1   3   60.39    2.50
   3   1   3   54.59    2.80
  -3   1  -3   60.99    2.50
   3   1   3   59.99    2.90
  -4  -1  -3 1752.52   49.30
   4  -1   3 1648.54   49.80
   4  -1   3 1645.14   49.50
   4  -1   3 1789.32   49.00
   4  -1   3 1732.43   49.50
   4   1   3 1729.23   49.20
   4   1   3 1718.03   49.60
  -4   1  -3 1722.33   49.30
   4   1   3 1609.64   49.50
   4   1   3 1650.33   49.60
  -4   1  -3 1676.33   49.30
   5  -1   3  138.09    5.80
  -5  -1  -3  143.69    5.30
   5  -1   3  147.09    4.90
   5  -1   3  146.59    5.40
   5  -1   3  135.79    5.40
   5   1   3  137.49    5.50
  -5   1  -3  134.09    5.20
   5   1   3  132.49    5.50
  -5   1  -3  140.99    5.30
   5   1   3  135.49    5.20
   5   1   3  142.19    5.50
   6  -1   3   26.80    1.80
   6  -1   3   22.40    2.10
   6  -1   3   23.70    2.10
  -6  -1  -3   28.00    2.10
   6  -1   3   26.10    1.80
   6  -1   3   25.90    2.60
  -6   1  -3   23.30    2.00
   6   1   3   18.60    2.10
   6   1   3   24.50    1.10
   6   1   3   21.00    2.20
   6   1   3   26.70    2.10
   6   1   3   26.40    2.10
  -6   1  -3   20.60    1.90
  -7  -1  -3   10.20    1.70
   7  -1   3   12.10    1.60
   7  -1   3    9.50    1.50
   7  -1   3   11.50    1.50
   7  -1   3   11.90    1.60
   7  -1   3   12.60    2.10
   7   1   3   12.10    1.80
  -7   1  -3    9.50    1.50
   7   1   3   10.10    1.60
   7   1   3    9.90    1.80
  -7   1  -3    8.70    1.50
   7   1   3   13.20    1.90
   8  -1   3   39.10    3.70
   8  -1   3   33.20    2.80
  -8  -1  -3   39.70    2.70
   8  -1   3   38.80    2.90
   8  -1   3   35.60    2.50
   8  -1   3   40.80    2.50
   8   1   3   38.50    2.90
   8   1   3   40.10    3.40
   8   1   3   37.00    3.00
  -8   1  -3   33.70    2.70
   8   1   3   38.30    2.80
  -8   1  -3   40.20    3.00
   9  -1   3  172.68    8.10
   9  -1   3  174.18    6.30
   9  -1   3  171.58    6.80
  -9  -1  -3  170.98    7.00
   9  -1   3  180.58    6.70
   9  -1   3  176.98    7.20
   9   1   3  182.08    7.20
   9   1   3  169.08    7.60
   9   1   3  172.28    7.20
  -9   1  -3  172.38    7.30
  -9   1  -3  168.78    7.10
  10  -1   3    3.00    1.60
  10  -1   3    3.10    2.20
  10  -1   3    3.60    1.70
 -10  -1  -3    1.90    1.30
  10  -1   3    2.60    1.40
  10  -1   3    3.00    1.50
  10   1   3    2.00    1.70
 -10   1  -3    2.20    1.40
  10   1   3    0.40    1.80
  10   1   3    3.80    1.50
 -10   1  -3    3.30    1.60
  11  -1   3  161.48    6.30
  11  -1   3  167.98    8.80
  11  -1   3  161.58    6.60
  11  -1   3  154.58    6.70
  11  -1   3  160.28    7.30
 -11  -1  -3  166.98    7.20
 -11   1  -3  165.08    7.60
 -11   1  -3  145.79    7.20
  11   1   3  157.58    8.10
  11   1   3  154.78    7.20
  11   1   3  159.88    7.10
  12  -1   3   30.40    3.10
  12  -1   3   30.00    3.10
  12  -1   3   27.50    3.40
  12  -1   3   31.30    3.20
  12  -1   3   28.30    4.10
 -12  -1  -3   29.10    3.20
  12   1   3   26.20    3.60
  12   1   3   29.30    3.40
 -12   1  -3   35.70    4.10
 -12   1  -3   30.10    3.30
  12   1   3   27.40    3.30
  13  -1   3   60.89    4.70
  13  -1   3   60.99    4.40
  13  -1   3   66.89    4.30
  13  -1   3   62.09    4.10
 -13  -1  -3   55.99    4.50
  13  -1   3   69.39    7.20
 -13   1  -3   61.69    4.70
 -13   1  -3   79.49    5.60
  13   1   3   65.39    6.70
  13   1   3   56.39    4.70
  13   1   3   56.59    4.50
  14  -1   3   31.90    3.90
  14  -1   3   42.50    6.20
  14  -1   3   33.90    3.80
 -14  -1  -3   36.70    3.90
  14  -1   3   25.60    3.80
  14  -1   3   38.00    3.60
 -14   1  -3   33.20    4.40
  14   1   3   33.50    4.00
 -14   1  -3   41.50    4.00
  14   1   3   35.20    5.10
  14   1   3   31.60    4.00
  15  -1   3   15.20    5.70
  15  -1   3   19.20    2.80
 -15  -1  -3   13.60    2.80
  15  -1   3   20.00    2.90
  15  -1   3   15.10    2.80
  15  -1   3   17.80    3.00
  15   1   3   13.00    3.20
 -15   1  -3   24.60    4.40
 -15   1  -3   17.20    3.10
  15   1   3   21.40    5.50
  15   1   3   21.30    3.60
  16  -1   3   29.20    3.80
  16  -1   3   24.00    3.90
  16  -1   3   19.00    3.50
  16  -1   3   20.70    8.00
  16  -1   3   21.10    3.30
 -16  -1  -3   32.20    4.40
  16   1   3   28.20    6.20
  16   1   3   23.40    3.90
 -16   1  -3   25.20    4.80
 -16   1  -3   20.50    3.50
  16   1   3   22.90    3.80
  15  -2  -3   -0.60    5.50
  15  -2  -3   -1.10    2.20
 -15  -2   3   -0.60    2.00
  15  -2  -3    3.00    2.80
  15  -2  -3   -0.90    2.90
  15   2  -3    3.40    4.20
  15   2  -3    2.60    2.90
  15   2  -3   -3.70    2.90
 -15   2   3    0.30    2.20
 -15   2   3   -0.30    4.00
  14  -2  -3    3.20    2.60
  14  -2  -3    5.90    4.50
  14  -2  -3   -2.10    2.40
 -14  -2   3    1.40    1.90
  14  -2  -3   -2.40    2.40
  14   2  -3   -3.50    2.50
  14   2  -3    0.20    2.30
 -14   2   3    1.10    1.90
 -14   2   3   -1.60    3.30
  14   2  -3   -0.70    3.60
 -13  -2   3    2.20    1.80
  13  -2  -3   -0.20    2.20
  13  -2  -3    2.70    2.40
  13  -2  -3    3.30    2.20
  13  -2  -3    7.20    3.60
  13   2  -3    1.20    2.60
  13   2  -3    7.70    3.30
 -13   2   3    0.20    2.90
  13   2  -3    3.60    2.70
 -12  -2   3  113.79    5.70
  12  -2  -3  118.59    8.40
  12  -2  -3  116.59    6.10
  12  -2  -3  109.79    6.20
  12  -2  -3  112.19    6.10
 -12   2   3  123.49    7.50
  12   2  -3  113.89    6.40
  12   2  -3  105.79    6.50
  12   2  -3  109.99    7.10
  11  -2  -3   18.60    3.60
  11  -2  -3   16.10    2.60
  11  -2  -3   15.70    2.50
 -11  -2   3   16.30    2.40
  11  -2  -3   17.60    2.70
  11   2  -3   15.90    2.90
  11   2  -3   18.90    2.90
  11   2  -3   16.90    2.80
 -11   2   3   17.40    3.00
  10  -2  -3    2.30    1.50
 -10  -2   3    1.00    1.40
  10  -2  -3    3.40    1.90
  10  -2  -3    2.90    1.80
  10  -2  -3    4.90    2.20
  10   2  -3    1.60    1.90
 -10   2   3    2.30    2.00
  10   2  -3    3.80    2.00
  10   2  -3   -2.40    1.70
  -9  -2   3    4.10    1.50
   9  -2  -3    2.20    1.70
   9  -2  -3    4.50    1.60
   9  -2  -3    4.60    2.20
   9  -2  -3    3.30    1.70
   9   2  -3    6.10    1.60
  -9   2   3    3.80    1.60
   9   2  -3    4.00    1.80
   9   2  -3    3.30    1.90
   9   2  -3    4.80    1.90
   8  -2  -3   27.60    2.50
   8  -2  -3   23.70    2.90
   8  -2  -3   31.80    3.90
   8  -2  -3   28.40    2.70
  -8  -2   3   27.70    2.30
   8   2  -3   30.10    3.00
   8   2  -3   30.70    3.10
  -8   2   3   26.50    3.20
   8   2  -3   27.60    2.80
   8   2  -3   22.80    2.80
   7  -2  -3  136.19    6.80
   7  -2  -3  133.39    6.00
  -7  -2   3  135.79    4.50
   7  -2  -3  127.29    5.60
   7  -2  -3  125.49    5.40
  -7  -2   3  135.79    5.00
   7   2  -3  131.49    6.00
  -7   2   3  131.59    6.40
   7   2  -3  129.79    6.00
   7   2  -3  127.79    5.50
   7   2  -3  126.79    5.90
   6  -2  -3   -1.90    1.40
   6  -2  -3   -0.30    1.00
  -6  -2   3    0.40    0.70
  -6  -2   3   -0.60    0.90
   6  -2  -3   -0.10    1.10
   6  -2  -3    0.30    1.00
   6   2  -3    0.30    0.80
  -6   2   3    0.60    1.00
   6   2  -3    2.10    1.00
   6   2  -3    2.30    1.30
   6   2  -3    1.80    1.40
  -5  -2   3  621.34   18.60
   5  -2  -3  627.44   19.40
   5  -2  -3  609.34   20.10
   5  -2  -3  599.44   19.70
  -5  -2   3  645.94   18.40
   5   2  -3  610.74   18.80
   5   2  -3  632.44   19.70
  -5   2   3  603.14   20.10
   5   2  -3  616.74   19.70
   5   2  -3  607.44   19.50
  -4  -2   3  310.17    9.00
   4  -2  -3  282.97   10.40
   4  -2  -3  306.07   10.10
   4  -2  -3  308.87    9.70
  -4  -2   3  301.27    9.70
  -4   2   3  292.87   10.60
   4   2  -3  292.07   10.30
   4   2  -3  290.07    9.30
   4   2  -3  302.47   10.30
  -4   2   3  288.77    9.00
   4   2  -3  285.07   10.20
  -3  -2   3  334.57    9.30
   3  -2  -3  268.77   10.30
  -3  -2   3  324.67   10.30
   3  -2  -3  322.97   10.00
   3  -2  -3  299.77   10.90
   3   2  -3  320.67   10.70
  -3   2   3  319.87   11.10
   3   2  -3  326.17   10.80
  -3   2   3  319.17    9.70
   2  -2  -3   64.09    3.60
   2  -2  -3   67.59    3.30
  -2  -2   3   70.29    3.20
  -2  -2   3   67.79    3.30
   2  -2  -3   72.79    3.00
  -2   2   3   60.89    3.70
   2   2  -3   72.49    3.60
  -2   2   3   67.49    2.90
   2   2  -3   67.29    3.40
   2   2  -3   67.19    3.40
  -1  -2   3  239.18    8.30
   1  -2  -3  246.68    7.70
   1  -2  -3  222.18    8.40
  -1  -2   3  248.48    8.00
   1  -2  -3  236.28    8.20
  -1   2   3  240.28    8.30
   1   2  -3  240.48    8.30
   1   2  -3  234.18    8.20
  -1   2   3  237.68    8.80
  -1   2   3  240.08    7.90
   0  -2   3    7.70    1.30
   0  -2  -3    8.20    1.40
   0  -2   3    6.30    0.70
   0  -2  -3    5.10    1.20
   0  -2   3    6.40    1.20
   0   2  -3    7.70    1.40
   0   2   3    8.00    1.50
   0   2   3    5.70    1.10
   0   2   3    9.00    1.40
   0   2  -3    8.40    1.30
   0   2  -3    7.00    0.60
  -1  -2  -3  309.87    9.60
   1  -2   3  288.97   10.30
  -1  -2  -3  290.47   10.10
   1  -2   3  287.77    9.30
  -1  -2  -3  302.37   10.10
   1  -2   3  319.47    9.70
  -1   2  -3  303.97   10.00
   1   2   3  297.27   10.50
  -1   2  -3  301.17    9.90
   1   2   3  308.47   10.10
   1   2   3  304.17    9.80
   1   2   3  310.47    9.60
  -1   2  -3  315.87    9.10
   2  -2   3   18.70    1.60
  -2  -2  -3   16.60    2.00
   2  -2   3   21.50    2.20
  -2  -2  -3   18.50    1.60
  -2  -2  -3   17.10    1.90
   2  -2   3   21.40    1.80
   2  -2   3   20.10    1.70
   2   2   3   14.70    1.70
   2   2   3   17.50    1.90
   2   2   3   17.80    2.30
  -2   2  -3   20.20    1.70
  -2   2  -3   22.80    1.80
  -2   2  -3   20.00    1.40
   2   2   3   19.40    1.60
   3  -2   3   54.39    3.10
  -3  -2  -3   64.29    3.10
  -3  -2  -3   70.59    2.90
   3  -2   3   62.89    2.90
   3  -2   3   58.99    3.60
  -3  -2  -3   70.19    3.30
   3  -2   3   66.39    3.30
   3   2   3   70.19    3.60
   3   2   3   65.29    3.10
   3   2   3   65.59    3.10
  -3   2  -3   64.89    3.00
  -3   2  -3   61.49    2.90
  -3   2  -3   58.49    3.20
   3   2   3   67.09    3.70
   4  -2   3  373.56   11.60
  -4  -2  -3  378.06   12.20
  -4  -2  -3  362.86   11.60
   4  -2   3  362.36   12.10
  -4  -2  -3  380.06   11.70
   4  -2   3  360.76   12.50
   4  -2   3  350.26   12.20
   4   2   3  365.16   12.40
  -4   2  -3  376.96   11.70
  -4   2  -3  369.16   11.60
   4   2   3  368.36   11.90
  -4   2  -3  382.56   12.20
   4   2   3  361.66   11.90
  -5  -2  -3   74.99    3.20
   5  -2   3   77.49    4.20
  -5  -2  -3   75.89    3.40
   5  -2   3   81.09    3.50
   5  -2   3   77.29    3.90
   5  -2   3   75.59    4.10
  -5  -2  -3   76.49    3.90
   5   2   3   73.99    4.20
  -5   2  -3   78.79    3.80
   5   2   3   75.69    3.70
  -5   2  -3   79.99    3.60
  -5   2  -3   77.39    3.30
   5   2   3   75.99    4.10
   6  -2   3   61.19    3.10
   6  -2   3   62.99    3.60
  -6  -2  -3   66.29    3.20
   6  -2   3   65.99    4.00
   6  -2   3   60.89    3.90
  -6  -2  -3   61.29    2.60
   6   2   3   61.19    3.90
  -6   2  -3   66.89    3.40
   6   2   3   62.59    3.50
   6   2   3   60.69    3.40
  -6   2  -3   62.59    3.60
   6   2   3   62.99    3.80
  -7  -2  -3    3.10    1.20
   7  -2   3    2.50    1.70
   7  -2   3    2.40    1.40
   7  -2   3    3.50    1.20
   7  -2   3    4.60    1.30
   7   2   3    4.00    1.60
   7   2   3    4.70    1.60
  -7   2  -3    4.20    1.30
   7   2   3    4.50    1.40
  -7   2  -3    3.80    1.40
   7   2   3    1.90    1.40
   8  -2   3  128.79    5.90
   8  -2   3  132.99    6.90
   8  -2   3  136.39    5.00
   8  -2   3  132.69    5.40
   8  -2   3  137.19    6.30
  -8  -2  -3  134.79    5.70
   8   2   3  129.39    6.00
   8   2   3  121.19    6.00
   8   2   3  138.19    6.50
  -8   2  -3  129.49    5.80
   8   2   3  129.59    5.80
  -8   2  -3  129.19    6.10
  -9  -2  -3   18.20    2.40
   9  -2   3   20.60    3.50
   9  -2   3   18.80    2.50
   9  -2   3   21.00    2.80
   9  -2   3   23.30    2.20
   9  -2   3   22.30    2.70
   9   2   3   21.30    2.80
  -9   2  -3   19.10    2.60
   9   2   3   14.50    2.40
   9   2   3   22.60    3.10
  -9   2  -3   21.60    2.90
   9   2   3   19.50    2.60
  10  -2   3  215.18    7.30
  10  -2   3  204.08    8.70
  10  -2   3  215.88   10.00
  10  -2   3  214.18    9.00
  10  -2   3  208.38    8.00
 -10  -2  -3  203.28    8.30
  10   2   3  215.88    9.20
 -10   2  -3  216.88    8.90
  10   2   3  196.08    8.60
 -10   2  -3  208.78    8.60
  10   2   3  208.68    9.10
  10   2   3  199.58    8.80
  11  -2   3   79.99    3.90
  11  -2   3   86.39    4.60
  11  -2   3   79.49    6.70
  11  -2   3   89.29    5.20
 -11  -2  -3   86.19    4.80
  11  -2   3   87.09    5.60
  11   2   3   76.79    5.10
  11   2   3   66.39    5.50
  11   2   3   86.09    5.80
  11   2   3   82.79    5.20
 -11   2  -3   77.09    5.50
 -11   2  -3   79.79    4.90
  12  -2   3   28.30    3.30
  12  -2   3   21.60    2.90
  12  -2   3   34.20    4.20
 -12  -2  -3   29.30    3.20
  12  -2   3   28.00    3.40
  12  -2   3   31.40    5.00
  12   2   3   28.80    3.40
  12   2   3   33.50    4.40
  12   2   3   27.40    3.80
 -12   2  -3   28.30    4.40
 -12   2  -3   31.40    3.30
  13  -2   3    0.20    2.20
  13  -2   3    5.40    3.80
 -13  -2  -3    4.10    2.20
  13  -2   3    0.20    2.00
  13  -2   3    2.10    2.50
  13  -2   3    5.00    2.00
 -13   2  -3    4.10    2.00
  13   2   3    4.90    3.20
  13   2   3    3.10    2.70
 -13   2  -3    3.90    2.90
  13   2   3    4.90    2.70
  14  -2   3   17.60    3.00
  14  -2   3   20.90    3.40
  14  -2   3   21.80    5.80
  14  -2   3   17.70    2.90
 -14  -2  -3   21.40    3.20
  14  -2   3   30.20    3.10
 -14   2  -3   18.00    3.10
  14   2   3   20.30    3.50
 -14   2  -3   26.00    4.10
  14   2   3   24.90    4.60
  14   2   3   16.10    3.40
  15  -2   3   -0.90    2.40
  15  -2   3    3.80    3.20
 -15  -2  -3    1.70    2.40
  15  -2   3    8.50    6.20
  15  -2   3    1.30    2.30
 -15   2  -3    1.90    4.00
  15   2   3   -1.90    2.80
 -15   2  -3    5.30    2.40
  15   2   3   -0.50    4.80
  15   2   3    3.90    2.90
 -14  -3   3  105.09    6.30
  14  -3  -3  103.49    8.00
  14  -3  -3  114.49    6.80
  14  -3  -3  107.69    6.80
  14  -3  -3  123.69   11.60
 -14   3   3  111.99    7.10
  14   3  -3  113.39    7.90
 -14   3   3  127.59   10.00
  14   3  -3  116.69    7.60
  14   3  -3  118.69    8.40
  13  -3  -3   27.80    5.70
  13  -3  -3   40.30    5.60
  13  -3  -3   34.00    4.10
 -13  -3   3   32.90    3.70
  13  -3  -3   27.90    3.70
  13   3  -3   38.30    5.80
 -13   3   3   47.30    6.90
  13   3  -3   30.00    4.20
  13   3  -3   34.80    5.40
 -12  -3   3   84.39    4.80
  12  -3  -3   73.29    5.30
  12  -3  -3   85.09    8.50
  12  -3  -3   86.89    6.70
  12  -3  -3   76.19    5.20
  12   3  -3   81.89    6.20
 -12   3   3   92.49    7.70
  12   3  -3   84.39    5.90
  12   3  -3   86.89    6.30
  11  -3  -3   12.70    3.40
  11  -3  -3    9.30    2.60
 -11  -3   3    6.00    2.00
  11  -3  -3    8.30    3.40
  11  -3  -3    5.60    2.20
  11   3  -3    8.20    2.60
 -11   3   3   12.00    3.60
  11   3  -3    7.20    2.60
  11   3  -3    7.30    2.90
  11   3  -3    9.10    2.70
  10  -3  -3   18.10    3.50
  10  -3  -3   23.90    2.90
 -10  -3   3   15.90    2.30
  10  -3  -3   20.60    3.80
  10  -3  -3   16.00    2.70
  10   3  -3   16.30    2.80
  10   3  -3   16.40    2.80
 -10   3   3   16.00    3.20
  10   3  -3   19.30    3.40
  10   3  -3   17.70    3.10
   9  -3  -3    4.70    1.90
   9  -3  -3   -0.10    1.90
   9  -3  -3    0.60    1.40
  -9  -3   3    2.60    1.60
   9  -3  -3    0.10    2.50
   9   3  -3   -2.00    1.90
   9   3  -3    0.80    2.20
  -9   3   3    2.20    2.20
   9   3  -3    3.70    2.30
   9   3  -3    2.60    1.70
   8  -3  -3  171.18    7.30
  -8  -3   3  173.48    6.30
  -8  -3   3  168.58    6.10
   8  -3  -3  166.88    8.00
   8  -3  -3  167.88    7.00
   8   3  -3  154.58    7.70
   8   3  -3  171.38    6.90
   8   3  -3  171.38    8.00
  -8   3   3  174.28    8.40
   8   3  -3  159.38    7.80
   7  -3  -3  243.78    9.50
   7  -3  -3  250.67   10.30
   7  -3  -3  248.48    9.20
  -7  -3   3  260.27    8.30
  -7  -3   3  257.27    8.70
  -7   3   3  253.57   10.50
   7   3  -3  250.77    8.80
   7   3  -3  247.28   10.10
   7   3  -3  240.68   10.00
   7   3  -3  241.88   10.10
  -6  -3   3   14.80    1.60
   6  -3  -3   15.00    2.20
   6  -3  -3   14.40    2.20
   6  -3  -3   16.00    2.20
  -6  -3   3   15.60    2.30
  -6   3   3   13.70    1.50
   6   3  -3   10.20    2.20
   6   3  -3   15.80    1.80
   6   3  -3   18.40    2.80
  -6   3   3   22.30    3.10
   6   3  -3   14.90    2.40
  -5  -3   3  233.78    8.50
  -5  -3   3  242.88    7.30
   5  -3  -3  229.38    8.90
   5  -3  -3  233.68    9.60
  -5  -3   3  238.68    8.90
   5  -3  -3  230.68    8.40
  -5   3   3  242.18    9.70
   5   3  -3  243.38    9.40
   5   3  -3  233.08    7.50
   5   3  -3  234.98    9.30
   5   3  -3  217.28    9.00
  -5   3   3  231.78    7.60
   4  -3  -3   27.10    2.70
   4  -3  -3   26.80    2.10
   4  -3  -3   27.60    3.20
  -4  -3   3   28.90    2.80
  -4  -3   3   28.60    2.60
  -4   3   3   25.50    3.10
   4   3  -3   26.10    2.90
   4   3  -3   27.00    2.90
   4   3  -3   22.10    2.70
  -4   3   3   30.50    2.20
   3  -3  -3  111.09    4.60
   3  -3  -3  111.19    5.60
  -3  -3   3  108.19    5.00
  -3  -3   3  100.09    4.80
   3  -3  -3  104.69    5.00
   3   3  -3  100.79    5.30
  -3   3   3  109.09    5.70
   3   3  -3  102.09    5.20
   3   3  -3   98.89    4.90
  -3   3   3  106.99    4.50
   2  -3  -3  778.02   24.00
   2  -3  -3  783.42   24.60
   2  -3  -3  773.42   23.30
  -2  -3   3  770.22   24.00
  -2  -3   3  761.42   23.70
  -2   3   3  789.12   23.40
   2   3  -3  755.42   24.10
   2   3  -3  762.12   24.20
  -2   3   3  739.33   24.60
   1  -3  -3   12.80    1.70
   1  -3  -3   15.30    2.30
  -1  -3   3   13.20    2.00
  -1  -3   3   11.60    1.70
   1  -3  -3   10.80    1.90
   1   3  -3   10.60    1.70
  -1   3   3   12.50    2.00
  -1   3   3   13.50    1.90
   1   3  -3   13.40    2.20
  -1   3   3   12.70    2.10
   0  -3   3  105.19    5.20
   0  -3  -3  109.79    5.30
   0  -3  -3  103.49    4.90
   0  -3   3  110.29    4.70
   0   3   3   99.29    5.40
   0   3   3  106.19    4.50
   0   3  -3  100.89    5.00
   0   3  -3  105.49    5.00
   0   3   3  102.59    4.80
  -1  -3  -3    0.20    1.30
  -1  -3  -3    0.30    1.20
   1  -3   3    0.60    1.10
   1  -3   3   -0.60    1.10
   1   3   3    0.70    0.90
   1   3   3   -0.50    1.20
  -1   3  -3   -0.80    0.70
   1   3   3    3.50    1.70
  -1   3  -3   -0.30    1.30
  -1   3  -3   -1.90    1.10
   2  -3   3  244.38    8.60
   2  -3   3  255.67    9.90
   2  -3   3  262.07    9.40
  -2  -3  -3  256.27    9.50
  -2  -3  -3  272.07    8.60
  -2  -3  -3  249.38    9.40
   2  -3   3  262.67    9.10
   2   3   3  259.67    8.70
  -2   3  -3  260.37    9.50
   2   3   3  253.37   10.00
  -2   3  -3  254.47    9.10
  -2   3  -3  267.47    8.20
   2   3   3  261.77    9.50
   3  -3   3    8.10    1.90
  -3  -3  -3    5.60    1.50
  -3  -3  -3    7.10    1.70
   3  -3   3    9.10    1.60
   3  -3   3    8.80    1.80
   3  -3   3    8.00    1.60
  -3  -3  -3    9.90    1.60
   3   3   3    8.40    1.90
  -3   3  -3    9.70    1.70
   3   3   3    9.00    1.80
   3   3   3    8.30    1.90
  -3   3  -3    7.30    1.40
   3   3   3    6.50    1.20
  -3   3  -3   11.10    1.30
  -4  -3  -3    0.80    1.40
   4  -3   3    3.10    1.70
   4  -3   3    2.70    1.40
   4  -3   3    5.00    1.70
  -4  -3  -3    1.50    1.20
  -4  -3  -3    3.90    1.30
   4  -3   3    3.10    1.30
  -4   3  -3    1.00    1.10
  -4   3  -3    3.00    1.10
  -4   3  -3    5.20    1.50
   4   3   3    3.40    1.50
   4   3   3    3.50    1.60
   4   3   3    4.00    1.10
   4   3   3    4.40    1.60
   5  -3   3    3.90    1.50
   5  -3   3    4.10    1.90
  -5  -3  -3    3.50    1.30
   5  -3   3    4.10    1.60
   5  -3   3    6.80    1.50
  -5  -3  -3    6.40    1.80
  -5  -3  -3    2.70    1.30
   5   3   3    4.10    1.70
  -5   3  -3    3.20    1.40
  -5   3  -3    5.40    1.20
  -5   3  -3    4.30    1.30
   5   3   3    4.80    1.80
   5   3   3    4.10    1.20
   5   3   3    6.90    1.90
   6  -3   3  122.59    5.90
   6  -3   3  134.59    6.70
  -6  -3  -3  129.69    6.10
   6  -3   3  122.09    6.20
  -6  -3  -3  129.69    5.20
  -6  -3  -3  133.69    5.30
   6  -3   3  126.49    5.50
  -6   3  -3  130.09    5.50
  -6   3  -3  124.29    5.10
   6   3   3  131.99    6.70
   6   3   3  132.99    5.60
   6   3   3  122.89    5.80
  -6   3  -3  123.29    6.10
   6   3   3  124.49    6.30
   7  -3   3   23.90    3.70
   7  -3   3   22.30    3.60
  -7  -3  -3   23.10    2.30
   7  -3   3   27.90    2.90
  -7  -3  -3   26.00    2.50
  -7  -3  -3   19.40    2.60
   7  -3   3   21.00    2.50
   7   3   3   22.30    3.20
  -7   3  -3   29.70    3.40
   7   3   3   22.00    2.80
   7   3   3   24.10    2.80
   7   3   3   24.60    3.10
  -7   3  -3   28.00    2.60
  -8  -3  -3   80.59    4.90
   8  -3   3   82.09    4.50
  -8  -3  -3   88.29    4.30
   8  -3   3   84.09    4.90
   8  -3   3   88.59    5.70
   8  -3   3   88.59    6.00
  -8   3  -3   82.39    4.50
   8   3   3   77.79    4.90
  -8   3  -3   88.59    5.50
   8   3   3   79.79    5.40
   8   3   3   80.89    5.30
   8   3   3   87.29    4.80
   9  -3   3   54.59    5.40
  -9  -3  -3   61.59    3.80
   9  -3   3   69.69    5.90
   9  -3   3   59.89    4.20
  -9  -3  -3   60.09    4.30
   9  -3   3   62.29    4.00
  -9   3  -3   62.29    4.80
   9   3   3   54.29    4.30
   9   3   3   57.79    4.60
   9   3   3   62.59    5.30
  -9   3  -3   64.09    4.30
   9   3   3   60.59    4.60
 -10  -3  -3    1.50    1.70
  10  -3   3    0.90    2.60
  10  -3   3    2.30    1.90
  10  -3   3    1.00    3.00
  10  -3   3    2.00    1.90
  10  -3   3    4.00    1.60
 -10  -3  -3    5.00    2.00
  10   3   3    3.30    2.20
 -10   3  -3    0.40    2.10
  10   3   3   -1.90    2.20
 -10   3  -3    1.60    1.80
  10   3   3    4.40    2.20
  10   3   3    2.00    1.90
  11  -3   3    3.00    2.00
  11  -3   3    1.60    1.80
 -11  -3  -3    2.80    1.80
  11  -3   3    7.50    2.90
  11  -3   3    3.30    3.60
  11  -3   3   -0.90    1.70
  11   3   3    4.10    2.40
  11   3   3   -0.30    2.20
 -11   3  -3    2.20    2.70
  11   3   3    1.10    2.30
 -11   3  -3   -1.00    1.70
  11   3   3    2.00    2.90
  12  -3   3    0.20    2.10
  12  -3   3    0.30    4.70
 -12  -3  -3    3.40    2.00
  12  -3   3   -4.20    2.80
  12  -3   3   -1.90    2.00
 -12   3  -3    5.00    2.10
 -12   3  -3   -1.00    2.90
  12   3   3   -0.50    3.00
  12   3   3    4.80    3.20
  12   3   3   -2.30    2.70
  13  -3   3    2.00    5.30
  13  -3   3    2.20    2.30
  13  -3   3   -3.30    1.90
 -13  -3  -3   -0.30    2.40
  13  -3   3    1.80    3.40
  13   3   3    1.70    3.80
  13   3   3   -2.30    2.50
  13   3   3    0.40    3.70
 -13   3  -3   -3.30    3.20
  13   3   3   -0.40    2.30
 -13   3  -3   -0.30    2.00
  14  -3   3    5.70    3.80
 -14  -3  -3   -2.60    2.30
  14  -3   3   -1.80    6.10
  14  -3   3   -1.90    2.30
  14  -3   3    1.80    2.50
  14   3   3   -0.40    4.50
  14   3   3   -0.40    2.80
  14   3   3   -0.60    2.30
 -14   3  -3    4.90    2.40
 -14   3  -3   12.30    4.50
 -13  -4   3    2.10    2.80
  13  -4  -3    4.50    2.80
 -13  -4   3    7.90    2.80
  13  -4  -3    3.60    2.40
  13  -4  -3    1.20    4.50
 -13   4   3    3.50    2.40
 -13   4   3    7.60    5.80
  13   4  -3   11.30    4.00
  13   4  -3    7.00    3.20
  13   4  -3   -0.40    3.80
  12  -4  -3    1.70    2.40
 -12  -4   3    5.40    2.40
  12  -4  -3   11.00    4.60
  12  -4  -3    3.30    2.70
 -12  -4   3    8.20    2.50
  12   4  -3    1.90    3.30
 -12   4   3    4.50    4.80
  12   4  -3    6.00    3.00
  12   4  -3    8.90    4.60
  12   4  -3    5.20    3.40
  11  -4  -3   97.49    8.40
  11  -4  -3   86.19    5.60
 -11  -4   3   93.09    6.20
  11  -4  -3   92.39    6.10
 -11  -4   3  100.19    5.10
 -11   4   3  104.99    9.10
  11   4  -3   94.79    6.30
  11   4  -3   91.79    6.80
  11   4  -3   95.09    7.90
  11   4  -3   95.79    6.80
  10  -4  -3    8.70    3.60
 -10  -4   3    9.40    2.30
 -10  -4   3    8.70    2.40
  10  -4  -3    4.60    1.90
  10  -4  -3    7.90    2.50
  10   4  -3    5.30    3.10
  10   4  -3   10.30    3.70
 -10   4   3    9.60    4.40
  10   4  -3    9.90    2.30
  10   4  -3    3.80    2.80
  -9  -4   3    8.90    2.00
  -9  -4   3    4.50    2.20
   9  -4  -3    3.00    3.20
   9  -4  -3    2.30    2.10
  -9  -4   3    7.50    1.90
   9  -4  -3    7.50    2.00
   9   4  -3    1.70    2.30
   9   4  -3    7.60    3.10
   9   4  -3    5.50    1.90
   9   4  -3    6.00    2.80
  -9   4   3    7.20    3.20
  -8  -4   3   27.10    3.50
   8  -4  -3   23.00    3.20
   8  -4  -3   21.60    2.90
  -8  -4   3   19.20    2.60
  -8  -4   3   15.00    2.80
   8  -4  -3   26.00    4.20
   8   4  -3   20.40    3.40
  -8   4   3   17.60    3.50
   8   4  -3   22.00    3.60
   8   4  -3   21.10    2.70
   8   4  -3   19.30    3.50
  -7  -4   3   27.10    3.40
  -7  -4   3   33.30    3.50
   7  -4  -3   39.60    3.40
  -7  -4   3   36.20    2.40
   7  -4  -3   32.60    4.90
   7  -4  -3   33.60    3.80
   7   4  -3   26.60    3.80
  -7   4   3   36.90    2.60
   7   4  -3   34.70    4.30
   7   4  -3   34.70    4.60
  -7   4   3   33.70    4.90
  -6  -4   3   45.90    4.00
  -6  -4   3   46.40    4.00
   6  -4  -3   33.60    3.60
   6  -4  -3   48.40    5.20
   6  -4  -3   44.90    3.50
   6   4  -3   49.99    4.70
   6   4  -3   38.40    4.40
   6   4  -3   40.20    4.20
  -6   4   3   46.50    3.10
  -6   4   3   47.50    5.00
   5  -4  -3   23.80    3.80
  -5  -4   3   21.70    2.90
   5  -4  -3   14.70    2.80
  -5  -4   3   23.30    3.50
   5  -4  -3   20.10    2.70
  -5   4   3   22.00    2.40
   5   4  -3   20.30    3.00
   5   4  -3   18.50    3.00
  -5   4   3   19.50    3.20
   5   4  -3   22.30    3.40
  -4  -4   3    1.40    1.80
   4  -4  -3   -0.50    1.40
   4  -4  -3    0.80    2.20
  -4  -4   3    0.20    1.80
   4  -4  -3    1.50    1.90
  -4   4   3   -0.40    1.80
  -4   4   3    3.00    1.80
   4   4  -3    1.30    2.00
   4   4  -3   -2.00    1.90
   3  -4  -3  124.29    6.30
  -3  -4   3  120.29    6.10
  -3  -4   3  135.89    6.60
   3  -4  -3  111.49    7.00
   3  -4  -3  129.79    5.70
  -3   4   3  127.79    6.30
   3   4  -3  132.29    6.70
   3   4  -3  133.69    6.70
  -3   4   3  127.89    5.70
   2  -4  -3   54.79    4.10
   2  -4  -3   62.59    3.80
  -2  -4   3   66.89    4.70
   2  -4  -3   67.09    5.20
  -2  -4   3   61.09    4.10
   2   4  -3   61.69    4.40
  -2   4   3   69.29    4.30
  -2   4   3   67.99    5.00
   2   4  -3   70.19    4.60
  -2   4   3   63.09    4.00
   1  -4  -3  111.99    6.50
  -1  -4   3  108.09    6.20
   1  -4  -3  119.39    5.30
  -1  -4   3  105.59    5.50
   1  -4  -3  111.19    5.90
  -1   4   3  115.29    5.30
  -1   4   3  105.99    5.40
   1   4  -3  108.49    5.80
  -1   4   3  116.69    6.60
   1   4  -3  106.49    5.90
   0  -4   3    1.20    1.50
   0  -4  -3    1.60    1.50
   0  -4  -3    0.00    1.80
   0  -4   3    1.40    1.90
   0   4   3    3.00    1.40
   0   4   3   -0.50    1.60
   0   4   3    3.60    2.40
   0   4  -3   -0.80    1.70
   0   4  -3    3.20    2.00
  -1  -4  -3  138.89    7.00
  -1  -4  -3  120.49    6.20
   1  -4   3  127.69    5.90
   1  -4   3  131.49    7.20
  -1   4  -3  131.99    4.80
  -1   4  -3  127.29    4.30
   1   4   3  134.99    5.40
   1   4   3  126.59    6.30
  -1   4  -3  133.09    6.50
   1   4   3  129.29    6.90
  -1   4  -3  130.79    6.10
  -2  -4  -3   86.79    5.20
   2  -4   3   85.99    4.80
  -2  -4  -3   98.59    5.60
   2  -4   3   96.79    5.90
   2  -4   3   84.09    4.90
   2   4   3   96.79    6.10
   2   4   3   88.99    5.20
  -2   4  -3   87.59    4.80
   2   4   3   90.79    4.10
  -2   4  -3   78.79    5.40
  -2   4  -3   89.19    3.50
   3  -4   3   10.10    2.50
   3  -4   3   12.20    2.80
  -3  -4  -3   11.70    2.60
   3  -4   3    9.40    2.10
  -3  -4  -3   11.20    2.40
  -3   4  -3   10.40    2.30
   3   4   3    8.60    2.20
  -3   4  -3   10.00    2.10
   3   4   3   10.00    2.20
  -3   4  -3   11.90    1.40
   3   4   3    9.70    1.50
  -4  -4  -3    1.90    1.90
   4  -4   3   -2.00    2.00
   4  -4   3   -0.80    1.40
  -4  -4  -3    1.20    1.90
   4  -4   3    1.60    1.70
   4   4   3    0.80    1.90
  -4   4  -3    0.40    1.20
  -4   4  -3   -0.10    1.70
   4   4   3    1.30    1.70
  -4   4  -3   -1.10    1.60
   4   4   3    1.50    1.70
   4   4   3    2.80    1.20
  -5  -4  -3   44.10    3.10
   5  -4   3   42.60    3.30
  -5  -4  -3   45.20    3.80
  -5  -4  -3   42.90    3.90
   5  -4   3   45.10    3.80
   5  -4   3   41.90    3.90
   5  -4   3   44.30    4.90
  -5   4  -3   43.90    3.00
   5   4   3   39.10    4.50
   5   4   3   48.60    3.30
  -5   4  -3   44.60    3.90
  -5   4  -3   42.40    3.20
   5   4   3   40.60    3.50
   5   4   3   29.60    3.60
   6  -4   3  105.59    7.00
   6  -4   3   89.09    5.10
   6  -4   3   84.89    5.30
   6  -4   3   95.79    6.00
  -6  -4  -3   96.09    4.50
  -6  -4  -3   96.59    5.10
  -6  -4  -3   85.69    5.50
   6   4   3   89.59    4.60
  -6   4  -3   90.99    4.60
   6   4   3   89.79    5.50
   6   4   3   96.39    5.90
   6   4   3  100.09    6.70
  -6   4  -3   94.29    5.80
  -6   4  -3   90.69    4.70
   7  -4   3   -0.20    1.90
   7  -4   3    2.30    1.90
   7  -4   3   -0.10    2.30
  -7  -4  -3    1.60    2.10
  -7  -4  -3    0.70    1.80
  -7  -4  -3   -0.30    1.90
   7  -4   3    0.40    2.80
   7   4   3    2.60    2.60
   7   4   3   -0.80    2.00
   7   4   3    6.50    2.30
  -7   4  -3   -0.60    1.50
  -7   4  -3    1.20    2.20
   7   4   3   -0.30    1.70
  -7   4  -3   -0.30    1.80
  -8  -4  -3   39.50    3.70
   8  -4   3   35.00    3.60
   8  -4   3   37.50    3.60
  -8  -4  -3   33.00    3.60
   8  -4   3   36.40    5.00
   8  -4   3   24.70    3.90
  -8  -4  -3   27.90    3.40
  -8   4  -3   36.00    4.90
   8   4   3   42.80    5.30
  -8   4  -3   39.60    3.60
   8   4   3   41.90    3.70
   8   4   3   28.90    3.90
   8   4   3   34.50    4.10
  -9  -4  -3   -0.30    2.10
   9  -4   3   -1.10    1.90
   9  -4   3    1.70    3.30
  -9  -4  -3   -2.10    1.50
   9  -4   3    1.10    2.00
   9  -4   3   -3.70    2.90
  -9  -4  -3   -0.20    1.50
   9   4   3   -3.10    3.20
   9   4   3   -1.70    1.90
  -9   4  -3    2.00    1.90
   9   4   3    1.10    2.00
   9   4   3   -0.60    2.40
  -9   4  -3   -1.00    2.80
 -10  -4  -3    2.70    2.20
  10  -4   3   -3.20    3.70
 -10  -4  -3    1.30    1.70
  10  -4   3    3.40    3.60
  10  -4   3    2.70    2.00
  10  -4   3    5.60    2.50
  10   4   3    0.00    2.10
  10   4   3   -0.70    3.20
 -10   4  -3    0.90    1.80
 -10   4  -3    4.20    3.20
  10   4   3    5.90    2.50
  10   4   3   -1.70    2.60
  11  -4   3    4.50    2.30
 -11  -4  -3    1.30    2.20
  11  -4   3    0.00    2.20
 -11  -4  -3   -2.60    2.30
  11  -4   3   -0.70    4.40
  11  -4   3    1.20    4.00
 -11   4  -3    6.10    3.70
  11   4   3   -3.00    3.00
 -11   4  -3   -2.00    1.80
  11   4   3    4.70    2.70
  11   4   3    4.00    3.60
  11   4   3   -3.90    2.30
 -12  -4  -3   14.20    3.30
  12  -4   3    9.80    5.90
  12  -4   3   18.40    3.20
  12  -4   3   12.70    4.60
 -12  -4  -3   11.80    3.10
  12  -4   3   11.10    2.60
  12   4   3   15.70    4.60
 -12   4  -3   15.10    2.80
  12   4   3   15.60    3.80
  12   4   3   11.20    3.80
  12   4   3   15.40    4.00
 -12   4  -3   20.70    4.90
  10  -5  -3    1.50    4.80
 -10  -5   3    8.80    2.60
  10  -5  -3    6.70    2.90
  10  -5  -3   14.20    3.00
 -10  -5   3   14.50    3.10
  10   5  -3    9.90    4.00
  10   5  -3    8.40    3.70
 -10   5   3    3.50    5.40
  10   5  -3    9.40    4.80
  -9  -5   3   17.20    3.70
   9  -5  -3   24.80    5.40
   9  -5  -3   26.40    3.60
  -9  -5   3   24.60    3.80
   9  -5  -3   25.80    3.70
   9   5  -3   23.60    4.50
   9   5  -3   22.20    4.80
   9   5  -3   20.40    4.10
  -9   5   3   18.50    4.90
   8  -5  -3    4.10    2.40
   8  -5  -3    1.80    2.10
  -8  -5   3    0.10    2.40
   8  -5  -3    3.20    4.20
  -8  -5   3    2.70    3.30
  -8   5   3    1.50    4.40
   8   5  -3    3.70    2.60
   8   5  -3    0.30    2.60
   8   5  -3   -6.30    3.60
  -7  -5   3    2.70    3.10
   7  -5  -3    2.80    4.20
  -7  -5   3    0.60    2.10
   7  -5  -3    2.10    2.10
   7   5  -3    5.80    3.00
  -7   5   3    2.30    2.20
   7   5  -3    0.90    2.40
  -7   5   3    0.60    3.50
   7   5  -3    0.50    2.40
   6  -5  -3    4.90    3.80
   6  -5  -3   -1.60    2.00
   6  -5  -3    1.70    2.30
  -6  -5   3    0.30    2.60
  -6  -5   3    1.80    2.90
   6   5  -3    3.40    2.60
   6   5  -3    1.10    2.90
  -6   5   3    5.50    3.20
  -6   5   3   -1.70    2.40
   5  -5  -3   27.80    3.80
   5  -5  -3   14.80    4.20
  -5  -5   3   24.40    3.80
   5  -5  -3   23.10    3.40
  -5  -5   3   24.30    3.70
  -5   5   3   26.90    3.60
   5   5  -3   23.50    3.90
  -5   5   3   26.20    4.30
   5   5  -3   30.50    4.50
   4  -5  -3   65.29    5.20
  -4  -5   3   59.49    4.90
   4  -5  -3   65.29    4.50
  -4  -5   3   66.69    6.10
   4  -5  -3   68.49    6.90
  -4   5   3   66.29    6.70
   4   5  -3   57.29    5.90
   4   5  -3   66.89    5.30
  -4   5   3   72.09    5.60
  -4   5   3   59.79    4.40
  -3  -5   3   93.79    5.90
   3  -5  -3   88.49    5.30
   3  -5  -3   87.19    5.90
   3  -5  -3   97.19    7.60
  -3  -5   3   96.79    7.10
  -3   5   3   94.49    7.50
   3   5  -3   86.79    6.00
   3   5  -3   98.49    6.60
  -3   5   3   98.09    5.80
  -3   5   3   96.39    5.50
  -2  -5   3   54.39    6.00
   2  -5  -3   55.69    4.20
   2  -5  -3   54.49    6.60
   2  -5  -3   46.80    4.30
  -2  -5   3   48.40    4.50
  -2   5   3   44.60    4.20
   2   5  -3   47.70    4.70
  -2   5   3   63.59    6.40
   2   5  -3   50.79    5.00
  -2   5   3   50.29    4.20
  -1  -5   3   11.70    2.50
  -1  -5   3   14.80    3.60
   1  -5  -3   15.40    3.70
   1  -5  -3   15.40    3.30
   1  -5  -3   24.00    3.10
   1   5  -3   16.60    3.00
   1   5  -3   10.50    2.70
  -1   5   3   11.80    3.50
  -1   5   3   15.50    2.30
  -1   5   3   16.30    3.20
   0  -5   3    0.50    2.80
   0  -5  -3    3.10    2.20
   0  -5   3    1.90    2.00
   0  -5  -3    4.40    2.80
   0  -5  -3    4.60    2.10
   0   5  -3    5.10    2.20
   0   5   3    3.20    2.40
   0   5   3    5.30    1.70
   0   5   3   -0.40    3.10
   0   5  -3    0.90    2.30
   1  -5   3   58.19    4.80
   1  -5   3   73.79    6.90
  -1  -5  -3   63.79    5.00
  -1  -5  -3   66.09    6.50
   1  -5   3   62.49    4.80
   1   5   3   62.29    5.00
   1   5   3   70.39    3.90
  -1   5  -3   66.79    5.60
   1   5   3   67.89    6.50
  -1   5  -3   58.09    4.80
   2  -5   3   68.09    4.70
  -2  -5  -3   63.79    6.50
   2  -5   3   61.29    6.80
  -2  -5  -3   66.09    4.90
   2  -5   3   62.39    4.70
  -2   5  -3   62.49    5.80
  -2   5  -3   61.19    4.90
  -2   5  -3   62.79    2.90
   2   5   3   67.09    3.70
   2   5   3   71.59    5.50
   2   5   3   70.49    6.20
  -2   5  -3   68.99    3.50
   3  -5   3    2.50    2.00
   3  -5   3   -0.80    2.30
  -3  -5  -3    0.00    1.70
  -3  -5  -3    6.70    3.00
   3  -5   3    0.30    3.20
   3   5   3    0.70    2.40
  -3   5  -3   -0.90    2.00
   3   5   3    2.10    1.40
  -3   5  -3    5.20    2.70
   3   5   3   -5.30    2.40
  -3   5  -3    1.50    1.50
  -4  -5  -3   71.89    6.00
   4  -5   3   65.89    4.90
  -4  -5  -3   60.39    4.90
   4  -5   3   61.69    7.50
   4  -5   3   63.09    5.00
  -4   5  -3   65.59    4.50
  -4   5  -3   59.09    3.50
   4   5   3   62.59    5.40
   4   5   3   66.69    3.80
   4   5   3   72.09    6.50
  -4   5  -3   72.79    6.40
   5  -5   3    4.60    2.40
  -5  -5  -3    1.10    2.50
  -5  -5  -3    2.10    2.30
   5  -5   3    0.10    2.00
   5  -5   3   -2.50    3.70
  -5   5  -3    4.80    2.40
  -5   5  -3    5.60    3.20
   5   5   3    6.10    1.70
  -5   5  -3    3.00    1.70
   5   5   3    2.40    2.40
   5   5   3    6.60    3.30
  -6  -5  -3    6.30    2.80
   6  -5   3    1.70    2.00
  -6  -5  -3    1.80    2.00
   6  -5   3    5.50    3.80
   6  -5   3   -0.80    2.10
   6   5   3    4.70    3.40
  -6   5  -3    3.20    1.70
  -6   5  -3    5.40    3.10
  -6   5  -3   -0.90    2.30
   6   5   3    1.80    2.70
   6   5   3   -0.30    1.80
   7  -5   3   -2.80    2.00
  -7  -5  -3   -2.30    2.70
   7  -5   3    5.80    4.10
  -7  -5  -3   -2.10    1.80
   7  -5   3    7.20    2.60
  -7   5  -3   -0.90    2.40
  -7   5  -3    7.90    3.30
   7   5   3    4.10    2.60
  -7   5  -3   -1.60    1.90
   7   5   3   -1.30    1.90
   7   5   3    2.40    2.60
   7   5   3   -0.60    3.90
   8  -5   3   17.20    3.20
  -8  -5  -3   14.00    3.30
   8  -5   3   22.00    4.90
   8  -5   3   14.70    3.10
  -8  -5  -3   19.20    3.60
  -8  -5  -3   19.20    2.90
   8   5   3   17.00    3.50
  -8   5  -3   23.90    3.80
  -8   5  -3   19.80    2.70
  -8   5  -3   18.10    3.20
   8   5   3   13.90    3.60
   8   5   3   23.80    3.00
   8   5   3   19.70    4.70
  -9  -5  -3    0.40    3.20
   9  -5   3   -0.60    4.50
  -9  -5  -3    0.90    2.70
  -9  -5  -3    2.80    2.90
   9  -5   3   -5.10    2.30
   9  -5   3   -3.40    2.10
   9   5   3   -5.20    2.70
  -9   5  -3    6.20    3.40
   9   5   3   -3.00    2.80
   9   5   3    4.20    3.10
  -9   5  -3   -0.60    2.20
   9   5   3   -2.40    4.00
 -10  -5  -3   -0.70    2.80
 -10  -5  -3    4.40    3.20
  10  -5   3    2.50    2.70
  10  -5   3    1.50    2.70
  10  -5   3   -2.00    4.90
 -10   5  -3    9.10    4.30
  10   5   3    5.60    4.90
  10   5   3    3.70    2.80
  10   5   3   -5.20    3.50
 -10   5  -3   -0.20    2.30
  10   5   3    8.40    3.50
   6  -6  -3   -2.50    2.80
   6  -6  -3    6.00    2.70
  -6  -6   3   -4.10    2.90
  -6  -6   3   -3.10    4.90
   6   6  -3    2.00    4.70
  -6   6   3    1.50    3.10
   6   6  -3   -1.30    2.80
  -6   6   3    3.30    5.40
  -6   6   3    3.80    4.50
   5  -6  -3   21.00    3.60
   5  -6  -3    9.70    7.90
   5  -6  -3   21.50    4.10
  -5  -6   3   15.30    5.20
  -5  -6   3   17.10    3.70
  -5   6   3   20.20    4.10
  -5   6   3   22.00    5.80
   5   6  -3   15.90    3.90
  -5   6   3   20.10    3.70
   5   6  -3   24.80    5.30
   4  -6  -3   15.70    3.10
   4  -6  -3    7.40    5.80
   4  -6  -3   12.30    3.40
  -4  -6   3    7.00    2.90
  -4  -6   3    8.50    4.60
   4   6  -3   11.80    4.40
  -4   6   3   14.80    5.60
   4   6  -3    9.30    3.70
  -4   6   3   18.50    3.70
   3  -6  -3  118.89    7.50
  -3  -6   3  110.49    7.10
   3  -6  -3  130.49   11.40
   3  -6  -3  132.19    7.10
  -3  -6   3  135.89    9.70
   3   6  -3  119.19    9.60
  -3   6   3  143.09    7.50
  -3   6   3  120.09    7.10
   3   6  -3  120.39    7.90
  -3   6   3  124.69   10.80
  -2  -6   3    4.90    4.40
   2  -6  -3    0.70    2.50
   2  -6  -3    0.50    2.40
  -2  -6   3    2.20    2.50
   2  -6  -3   11.30    5.10
  -2   6   3    2.90    4.90
   2   6  -3    4.30    3.80
  -2   6   3    4.30    3.10
   2   6  -3    2.80    2.90
  -2   6   3    7.80    3.00
  -1  -6   3    0.70    2.20
   1  -6  -3    1.70    4.60
  -1  -6   3    6.30    4.30
   1  -6  -3    4.20    2.70
   1  -6  -3    0.70    2.80
  -1   6   3    0.30    2.50
   1   6  -3    3.90    3.00
   1   6  -3    3.30    3.50
  -1   6   3   -7.50    4.80
  -1   6   3    4.00    3.10
   0  -6   3   39.00    4.30
   0  -6   3   29.60    4.40
   0  -6  -3   36.80    4.30
   0  -6   3   29.80    5.40
   0  -6  -3   28.30    6.20
   0  -6  -3   38.50    4.80
   0   6  -3   38.40    4.90
   0   6   3   40.30    5.60
   0   6   3   33.60    3.70
   0   6   3   35.60    4.70
   0   6  -3   30.40    4.80
  -1  -6  -3   14.40    3.20
  -1  -6  -3    7.70    5.00
   1  -6   3   23.60    5.90
  -1  -6  -3   16.00    3.50
   1  -6   3   19.80    3.50
   1  -6   3   15.50    3.20
  -1   6  -3   18.30    4.30
  -1   6  -3   11.00    3.40
   1   6   3   18.00    3.70
   1   6   3   24.30    5.20
   1   6   3   17.50    2.10
  -2  -6  -3    5.50    2.60
   2  -6   3    1.40    2.40
  -2  -6  -3    0.00    4.80
   2  -6   3    3.50    2.80
   2  -6   3   -4.80    4.60
   2   6   3    3.10    3.70
   2   6   3   -1.10    2.90
  -2   6  -3   -1.80    2.40
  -2   6  -3    1.60    3.60
  -3  -6  -3    5.90    2.80
   3  -6   3    6.80    2.90
   3  -6   3    8.80    5.50
  -3  -6  -3    6.00    4.60
   3  -6   3    4.40    2.50
  -3   6  -3    6.70    4.90
   3   6   3    9.10    4.50
   3   6   3    6.90    3.20
  -3   6  -3    0.30    2.80
  -4  -6  -3   51.39    6.20
   4  -6   3   48.90    5.00
   4  -6   3   67.79   10.30
   4  -6   3   52.99    4.80
  -4  -6  -3   48.90    5.40
  -4   6  -3   49.90    8.20
  -4   6  -3   49.40    5.10
  -4   6  -3   47.60    5.00
   4   6   3   58.89    8.10
   4   6   3   46.00    6.20
   5  -6   3   30.80    4.10
  -5  -6  -3   28.50    5.40
   5  -6   3    9.90    6.70
   5  -6   3   27.90    4.20
  -5  -6  -3   36.80    4.70
  -5   6  -3   21.10    3.40
   5   6   3   28.10    4.50
  -5   6  -3   28.90    3.80
  -5   6  -3   27.20    5.40
  -5   6  -3   30.00    4.50
   5   6   3   14.80    6.60
  -6   6  -3   41.80    7.00
  16   0  -4   10.00    3.10
  16   0  -4   13.00    6.00
  16   0  -4    3.80    2.80
 -16   0   4    2.10    2.40
 -16   0   4    1.90    4.40
  16   0  -4    5.40    2.50
  15   0  -4   -2.70    2.30
  15   0  -4    2.30    2.40
 -15   0   4   -1.40    3.40
 -15   0   4   -0.90    2.10
  15   0  -4   -0.70    2.00
  15   0  -4   -7.20    4.20
  14   0  -4   40.10    3.80
 -14   0   4   44.90    5.80
  14   0  -4   33.20    4.80
 -14   0   4   40.30    4.20
  14   0  -4   45.20    4.10
  14   0  -4   42.10    4.10
  13   0  -4   -4.10    2.10
  13   0  -4    2.40    2.10
 -13   0   4    0.30    1.60
  13   0  -4   -1.50    2.70
 -13   0   4    2.30    2.50
  13   0  -4    0.10    1.90
  12   0  -4   28.70    3.30
  12   0  -4   29.90    4.50
 -12   0   4   28.60    4.10
  12   0  -4   33.60    3.20
  12   0  -4   28.30    3.30
  11   0  -4   -2.10    1.50
  11   0  -4   -0.60    1.60
  11   0  -4   -2.10    2.00
  11   0  -4    2.30    1.70
  10   0  -4   31.50    2.90
  10   0  -4   39.10    2.90
  10   0  -4   36.80    3.10
  10   0  -4   38.80    4.10
   9   0  -4    1.10    1.20
   9   0  -4   -0.40    1.30
   9   0  -4   -0.80    0.80
   9   0  -4    1.90    1.60
   9   0  -4   -0.40    1.30
   8   0  -4  350.36   12.10
   8   0  -4  355.76   13.00
   8   0  -4  379.56   11.50
   8   0  -4  355.16   12.00
   8   0  -4  345.27   11.10
   7   0  -4   -1.60    1.00
   7   0  -4    0.10    0.60
   7   0  -4   -1.10    1.00
   7   0  -4    0.70    1.20
   7   0  -4   -0.20    0.90
   6   0  -4   38.60    3.00
   6   0  -4   38.50    2.50
   6   0  -4   38.90    2.40
   6   0  -4   37.80    2.00
   6   0  -4   37.00    2.10
   5   0  -4    0.80    0.90
   5   0  -4   -0.60    0.70
   5   0  -4    0.40    0.50
   5   0  -4   -1.20    0.80
   5   0  -4    1.10    0.80
   4   0  -4 1756.62   52.49
   4   0  -4 1785.12   53.39
   4   0  -4 1837.82   52.49
   4   0  -4 1862.11   52.79
   4   0  -4 1879.61   52.79
   3   0  -4    0.70    0.60
   3   0  -4    1.00    0.70
   3   0  -4    0.40    0.70
  -2   0   4  178.18    6.00
   2   0  -4  182.48    5.80
   2   0  -4  177.48    5.60
   2   0  -4  177.18    5.70
  -1   0   4    0.30    0.60
  -1   0   4   -0.10    0.40
   1   0  -4   -0.30    0.50
   1   0  -4    0.60    0.50
   1   0  -4    0.10    0.40
   0   0  -4 5046.20  128.39
   0   0  -4 4844.22  127.99
   0   0   4 3925.91  128.09
   0   0   4 4180.48  128.49
   1   0   4    0.80    0.40
   1   0   4   -0.10    0.50
   1   0   4   -0.50    0.70
  -1   0  -4    0.80    0.60
  -1   0  -4    0.20    0.30
   2   0   4 4436.96  133.69
  -2   0  -4 5199.68  133.89
   2   0   4 4785.92  133.59
   2   0   4 4322.97  133.39
   3   0   4    0.40    0.70
   3   0   4    0.10    0.40
  -3   0  -4    0.90    0.60
   3   0   4   -0.10    0.70
   3   0   4   -0.20    0.40
   3   0   4    1.10    0.80
   4   0   4   52.79    2.40
   4   0   4   57.99    2.60
   4   0   4   55.59    2.40
   4   0   4   61.89    2.70
   4   0   4   55.99    3.10
   5   0   4   -0.70    0.60
   5   0   4   -0.70    0.70
   5   0   4    2.40    1.00
   5   0   4   -0.30    0.70
  -5   0  -4   -0.10    0.70
   5   0   4   -0.90    0.70
   6   0   4  200.38    7.90
  -6   0  -4  209.48    7.40
   6   0   4  202.48    6.90
   6   0   4  205.68    7.30
   6   0   4  204.98    6.80
   6   0   4  207.28    7.20
  -7   0  -4   -0.90    0.90
   7   0   4    0.10    0.80
   7   0   4    2.70    1.40
   7   0   4    0.60    0.90
   7   0   4   -0.60    0.60
   7   0   4    1.70    1.30
   8   0   4  141.09    6.50
  -8   0  -4  126.49    5.80
   8   0   4  142.39    5.50
   8   0   4  135.99    5.80
   8   0   4  141.99    5.40
   8   0   4  138.99    5.10
   9   0   4    2.20    1.30
   9   0   4    0.60    1.40
   9   0   4   -1.10    1.00
  -9   0  -4    0.30    1.00
   9   0   4    0.50    0.90
   9   0   4    0.40    1.40
  10   0   4   11.40    1.80
  10   0   4    8.50    1.90
  10   0   4   13.50    2.00
  10   0   4   13.90    2.80
  10   0   4   14.60    1.90
 -10   0  -4   11.60    2.10
  11   0   4   -0.30    1.60
  11   0   4    0.50    1.50
  11   0   4    0.20    1.10
 -11   0  -4    0.90    1.60
  11   0   4   -0.90    1.30
  11   0   4   -0.60    2.20
  12   0   4  157.18    8.50
  12   0   4  137.09    5.20
  12   0   4  133.49    6.20
 -12   0  -4  128.19    6.70
  12   0   4  142.79    6.90
  12   0   4  135.09    6.30
 -13   0  -4    2.20    2.00
  13   0   4   -2.90    3.10
  13   0   4   -4.10    1.90
  13   0   4   -1.70    2.00
  14   0   4  245.88   10.70
 -14   0  -4  246.08   10.70
  14   0   4  268.67   10.20
  14   0   4  251.97   12.70
 -15   0  -4    6.00    3.10
 -15   0  -4   -0.60    1.80
  15   0   4   -0.40    2.30
  15   0   4   -1.40    2.40
  15   0   4    1.80    4.90
  16   0   4   20.90    3.60
 -16   0  -4    7.50    4.60
  16   0   4   12.60    2.90
 -16   0  -4   16.70    3.50
  16   0   4    6.20    6.00
  16  -1  -4   -4.70    5.70
  16  -1  -4   -1.00    2.20
 -16  -1   4    2.30    2.30
  16  -1  -4    6.00    2.70
  16   1  -4   -1.50    5.40
  16   1  -4    0.10    2.90
 -16   1   4    4.30    4.30
  16   1  -4    7.90    3.50
 -16   1   4    4.80    2.30
 -15  -1   4    1.80    2.00
  15  -1  -4    2.70    2.30
  15  -1  -4    2.90    2.20
  15  -1  -4    0.60    2.20
  15  -1  -4   -1.10    4.20
  15   1  -4   -4.10    4.30
  15   1  -4   -1.70    2.70
  15   1  -4    0.10    2.80
 -15   1   4   -1.10    2.20
 -15   1   4    1.60    3.70
  14  -1  -4   55.19    7.80
  14  -1  -4   55.69    4.60
  14  -1  -4   48.00    4.40
 -14  -1   4   53.59    4.30
  14  -1  -4   52.39    4.40
  14   1  -4   49.60    6.70
  14   1  -4   47.00    4.60
  14   1  -4   55.29    4.30
 -14   1   4   53.39    6.20
  14   1  -4   60.19    4.90
 -14   1   4   55.69    4.50
  13  -1  -4   19.50    2.40
 -13  -1   4   15.20    2.40
  13  -1  -4   16.70    2.90
  13  -1  -4   13.40    2.60
  13  -1  -4   22.30    4.50
  13   1  -4   16.00    3.00
  13   1  -4   15.10    3.10
  13   1  -4   17.60    2.90
  13   1  -4   22.50    3.90
 -13   1   4   21.00    3.80
  12  -1  -4   38.30    5.60
  12  -1  -4   31.40    3.20
  12  -1  -4   32.00    3.30
  12  -1  -4   37.60    2.10
  12  -1  -4   30.70    3.50
 -12  -1   4   32.60    3.20
  12   1  -4   25.40    3.50
  12   1  -4   35.00    4.90
 -12   1   4   34.40    4.60
  12   1  -4   29.00    3.70
  12   1  -4   29.40    3.20
  11  -1  -4   74.39    4.60
  11  -1  -4   74.59    4.10
  11  -1  -4   77.19    6.40
 -11  -1   4   73.09    4.30
  11  -1  -4   77.09    2.90
  11  -1  -4   74.09    4.60
  11   1  -4   76.89    4.50
  11   1  -4   72.19    4.90
  11   1  -4   72.29    4.60
  11   1  -4   69.39    5.40
 -11   1   4   70.59    5.20
  10  -1  -4    9.80    1.80
  10  -1  -4    7.70    1.90
  10  -1  -4    7.30    2.60
  10  -1  -4    7.10    1.80
 -10  -1   4    7.50    1.70
 -10   1   4    9.90    2.20
  10   1  -4   10.30    2.40
  10   1  -4    5.00    1.70
  10   1  -4    8.50    1.70
  10   1  -4    8.10    2.30
   9  -1  -4   10.40    2.00
   9  -1  -4   12.80    2.90
   9  -1  -4    9.10    1.80
   9  -1  -4    9.30    1.60
   9   1  -4   11.00    2.20
   9   1  -4   12.90    2.40
   9   1  -4   14.00    2.10
  -9   1   4    6.50    1.80
   9   1  -4   11.90    1.90
   8  -1  -4   35.80    2.70
   8  -1  -4   33.20    2.60
   8  -1  -4   34.70    2.60
   8  -1  -4   30.60    3.70
   8   1  -4   42.60    2.90
   8   1  -4   34.10    2.90
   8   1  -4   33.40    2.60
  -8   1   4   36.10    3.10
   8   1  -4   36.40    3.30
   7  -1  -4  996.50   29.90
   7  -1  -4  990.20   29.70
   7  -1  -4  995.20   31.10
   7  -1  -4  996.40   29.60
   7   1  -4  969.90   30.00
   7   1  -4  982.80   30.30
  -7   1   4  970.50   30.60
   7   1  -4  981.30   29.80
   6  -1  -4  228.28    8.40
  -6  -1   4  237.88    7.50
   6  -1  -4  240.48    9.40
   6  -1  -4  255.27    8.30
   6  -1  -4  228.58    8.40
   6   1  -4  245.58    8.80
  -6   1   4  240.08    9.10
   6   1  -4  243.38    8.50
   6   1  -4  241.38    8.60
   6   1  -4  250.57    8.40
   5  -1  -4  157.68    6.70
   5  -1  -4  165.48    6.10
   5  -1  -4  158.48    6.10
  -5  -1   4  163.98    5.40
   5  -1  -4  177.08    5.90
   5   1  -4  161.38    6.20
   5   1  -4  161.18    6.10
  -5   1   4  161.18    6.60
   5   1  -4  163.58    5.90
   5   1  -4  168.38    6.20
  -4  -1   4   40.40    1.90
   4  -1  -4   40.00    2.00
   4  -1  -4   41.90    2.50
   4  -1  -4   41.70    2.40
   4   1  -4   39.10    2.40
   4   1  -4   42.90    2.20
   4   1  -4   40.90    2.40
  -4   1   4   39.00    2.60
   4   1  -4   40.00    2.50
   4   1  -4   40.50    2.40
   3  -1  -4   13.10    1.50
   3  -1  -4    9.80    1.40
   3  -1  -4   12.00    1.10
  -3  -1   4   12.80    1.20
   3   1  -4   11.60    1.50
   3   1  -4   12.30    1.60
  -3   1   4   10.70    0.80
  -3   1   4   10.30    1.60
   3   1  -4   11.70    1.40
   3   1  -4   11.10    1.10
   2  -1  -4  411.16   11.90
   2  -1  -4  424.96   12.50
   2  -1  -4  383.36   12.60
  -2  -1   4  382.06   12.20
  -2   1   4  400.66   12.90
   2   1  -4  400.66   12.50
  -2   1   4  419.06   11.90
   2   1  -4  410.76   12.50
   2   1  -4  379.96   12.30
  -1  -1   4  142.99    5.10
   1  -1  -4  145.89    5.30
   1  -1  -4  155.48    4.50
  -1  -1   4  145.09    4.70
   1  -1  -4  154.08    5.10
  -1   1   4  146.59    5.50
   1   1  -4  145.59    5.20
  -1   1   4  138.39    5.40
  -1   1   4  158.88    4.90
   1   1  -4  143.99    5.20
   1   1  -4  142.39    4.90
   0  -1   4  488.25   14.90
   0  -1  -4  477.15   15.30
   0  -1  -4  509.35   15.20
   0  -1  -4  505.05   15.20
   0  -1   4  485.25   15.30
   0  -1   4  520.45   14.70
   0   1  -4  517.85   15.30
   0   1   4  520.35   15.10
   0   1  -4  491.95   14.80
   0   1   4  502.55   15.60
   0   1  -4  530.45   14.80
   0   1   4  496.15   15.50
   1  -1   4 1637.04   45.20
  -1  -1  -4 1632.84   45.70
  -1  -1  -4 1636.34   45.70
   1  -1   4 1542.95   45.50
  -1  -1  -4 1552.94   45.80
   1  -1   4 1500.15   45.90
   1   1   4 1609.24   45.20
   1   1   4 1529.85   46.00
  -1   1  -4 1586.14   45.70
  -1   1  -4 1487.75   45.30
   1   1   4 1560.04   46.00
   1   1   4 1640.64   45.80
  -1   1  -4 1614.54   45.40
  -2  -1  -4 9449.45  250.67
  -2  -1  -4 8599.14  250.57
   2  -1   4 7720.93  250.57
   2  -1   4 8572.14  250.87
   2  -1   4 8589.64  250.67
   2  -1   4 9999.00  250.07
  -2  -1  -4 8086.89  250.47
   2   1   4 8344.67  250.87
   2   1   4 9529.25  250.87
   2   1   4 8301.87  250.87
   2   1   4 9830.62  250.27
  -2   1  -4 8308.67  250.37
  -2   1  -4 9068.59  250.57
   3  -1   4  341.77   11.40
   3  -1   4  361.16   11.30
   3  -1   4  353.86   11.50
  -3  -1  -4  363.76   11.20
  -3  -1  -4  359.86   11.20
   3  -1   4  359.46   10.70
   3   1   4  365.56   11.40
  -3   1  -4  372.56   11.10
   3   1   4  349.37   11.50
   3   1   4  343.07   11.40
   3   1   4  361.66   11.00
  -3   1  -4  348.17   10.90
  -3   1  -4  369.46   11.10
   4  -1   4  945.21   26.30
   4  -1   4  889.11   27.20
   4  -1   4  917.51   27.00
   4  -1   4  902.31   27.10
  -4  -1  -4  907.21   26.80
  -4   1  -4  916.11   26.70
   4   1   4  910.11   26.60
   4   1   4  867.41   27.00
  -4   1  -4  917.21   26.80
   4   1   4  857.21   27.10
   4   1   4  897.61   27.00
   5  -1   4  164.88    6.70
  -5  -1  -4  180.78    6.30
   5  -1   4  175.78    6.30
   5  -1   4  173.78    5.70
   5  -1   4  166.38    6.30
   5   1   4  173.48    6.10
  -5   1  -4  168.08    6.10
   5   1   4  166.18    6.50
   5   1   4  174.18    6.40
   5   1   4  164.58    6.40
  -5   1  -4  167.88    6.20
   6  -1   4    2.70    1.30
   6  -1   4    2.70    1.00
   6  -1   4    0.30    1.00
   6  -1   4    2.30    1.00
  -6  -1  -4    1.50    1.00
  -6   1  -4    2.30    0.90
   6   1   4    0.80    0.90
   6   1   4    2.60    1.20
   6   1   4    0.50    0.90
  -6   1  -4    1.00    0.70
   6   1   4    2.10    1.00
   7  -1   4    4.60    1.20
   7  -1   4    5.40    1.60
   7  -1   4    5.20    1.30
   7  -1   4    7.00    1.70
   7  -1   4    6.30    1.20
  -7  -1  -4    5.20    1.20
  -7   1  -4    5.30    1.20
   7   1   4    4.00    1.30
   7   1   4    5.50    1.30
   7   1   4    5.20    0.70
   7   1   4    4.80    1.30
   7   1   4    5.50    1.60
  -7   1  -4    5.50    1.40
   8  -1   4  337.57   11.50
   8  -1   4  331.67   11.80
   8  -1   4  343.17   12.60
  -8  -1  -4  332.57   11.60
   8  -1   4  338.87   11.00
   8  -1   4  355.36   11.10
   8   1   4  336.37   11.60
   8   1   4  330.47   11.80
  -8   1  -4  346.17   11.70
  -8   1  -4  332.47   11.70
   8   1   4  332.97   11.70
   8   1   4  344.27   12.30
   9  -1   4    7.00    1.40
   9  -1   4    4.60    2.10
   9  -1   4    6.30    1.70
   9  -1   4    5.00    1.60
  -9  -1  -4    6.70    1.70
   9  -1   4    6.80    1.50
  -9   1  -4    5.40    1.60
   9   1   4    6.40    1.90
   9   1   4    4.50    1.70
  -9   1  -4    8.50    1.80
   9   1   4    6.70    2.00
  10  -1   4   10.10    2.00
  10  -1   4    9.60    1.80
 -10  -1  -4    9.80    2.00
  10  -1   4    7.40    2.00
  10  -1   4    9.30    1.80
  10  -1   4    6.40    2.50
 -10   1  -4    5.50    1.70
  10   1   4    7.80    2.20
 -10   1  -4    8.20    1.90
  10   1   4    5.10    1.90
  10   1   4    6.00    1.80
  11  -1   4    2.50    1.50
  11  -1   4    1.10    1.70
  11  -1   4   -2.80    2.30
  11  -1   4    3.50    1.60
 -11  -1  -4    1.30    1.50
  11  -1   4    3.80    1.70
 -11   1  -4    2.20    1.70
  11   1   4    2.60    2.40
 -11   1  -4   -0.10    1.80
  11   1   4   -0.30    1.50
  11   1   4    1.40    1.70
  12  -1   4    3.30    1.80
  12  -1   4    3.60    3.10
  12  -1   4    0.30    1.80
  12  -1   4    0.00    1.70
  12  -1   4    1.10    1.70
 -12  -1  -4   -0.40    1.40
 -12   1  -4    0.50    1.70
  12   1   4    2.40    2.00
 -12   1  -4    5.30    2.20
  12   1   4    2.50    2.10
  12   1   4   -1.90    2.30
  13  -1   4    7.20    2.30
  13  -1   4    5.30    2.40
 -13  -1  -4    7.10    2.10
  13  -1   4    9.60    2.10
  13  -1   4   11.80    3.70
  13  -1   4    7.30    1.90
  13   1   4   10.00    2.40
  13   1   4    9.10    3.60
 -13   1  -4   12.50    2.70
  13   1   4    9.00    2.60
 -13   1  -4    5.80    1.90
  14  -1   4    0.90    1.90
  14  -1   4   -3.30    2.20
  14  -1   4    3.60    4.10
  14  -1   4    2.80    2.20
 -14  -1  -4    5.80    2.30
  14  -1   4    3.90    2.10
  14   1   4    3.20    4.00
  14   1   4    3.80    2.30
  14   1   4    4.70    2.50
 -14   1  -4    2.00    3.00
 -14   1  -4    0.40    2.10
  15  -1   4    4.70    2.30
 -15  -1  -4    2.20    2.00
  15  -1   4    0.80    2.60
  15  -1   4   -0.70    1.90
  15  -1   4    8.70    5.80
  15  -1   4    4.20    2.50
  15   1   4    1.80    2.60
 -15   1  -4    2.30    3.40
  15   1   4    2.40    4.50
 -15   1  -4   -3.20    1.70
  15   1   4    0.70    2.20
  16  -1   4    4.60    3.20
  16  -1   4   10.10    3.00
  16  -1   4    3.80    2.50
  16  -1   4   -3.00    4.70
 -16  -1  -4   -0.10    2.30
  16  -1   4    5.90    2.60
  16   1   4    3.90    6.00
  16   1   4    2.30    2.90
  16   1   4    5.90    3.00
 -16   1  -4   -0.30    2.30
 -16   1  -4    0.40    4.20
  15  -2  -4   10.10    3.00
 -15  -2   4   13.20    2.50
  15  -2  -4    8.60    6.10
  15  -2  -4   16.70    3.50
  15  -2  -4   16.70    3.40
  15   2  -4   12.40    3.50
  15   2  -4   14.70    4.70
  15   2  -4   15.80    3.70
 -15   2   4   12.60    4.90
 -15   2   4   11.00    2.90
 -14  -2   4   39.20    3.90
  14  -2  -4   31.40    5.80
  14  -2  -4   40.30    4.90
  14  -2  -4   36.50    4.10
  14  -2  -4   41.40    4.20
  14   2  -4   50.09    6.60
 -14   2   4   42.20    6.70
  14   2  -4   31.80    4.40
  14   2  -4   41.70    4.90
  13  -2  -4    0.40    2.10
  13  -2  -4    0.60    2.00
 -13  -2   4    2.50    1.90
  13  -2  -4    1.70    3.90
  13  -2  -4   -3.20    2.20
  13   2  -4   -3.80    2.50
 -13   2   4    5.90    3.00
  13   2  -4    5.40    2.90
  13   2  -4    0.10    2.30
  12  -2  -4    3.00    2.00
 -12  -2   4    8.20    2.20
  12  -2  -4   10.70    4.00
  12  -2  -4    9.30    2.50
  12   2  -4   10.50    2.90
  12   2  -4    9.40    2.90
 -12   2   4    9.90    2.90
  12   2  -4    8.10    2.80
  11  -2  -4    0.10    1.60
  11  -2  -4    0.30    1.90
  11  -2  -4    2.30    2.70
 -11  -2   4   -0.80    1.40
  11  -2  -4   -0.30    1.80
  11   2  -4    1.30    1.90
  11   2  -4    1.00    1.80
 -11   2   4    0.80    2.10
  11   2  -4   -0.30    2.20
  10  -2  -4  300.77   11.30
  10  -2  -4  306.87   11.40
  10  -2  -4  297.67   11.40
  10  -2  -4  321.87   13.40
 -10  -2   4  308.07   10.80
  10   2  -4  314.97   11.90
 -10   2   4  322.97   12.60
  10   2  -4  298.67   11.90
  10   2  -4  306.87   11.80
   9  -2  -4  323.47   13.00
   9  -2  -4  295.97   11.30
  -9  -2   4  314.87   10.60
   9  -2  -4  292.07   11.20
   9  -2  -4  301.07   11.00
  -9   2   4  309.97   12.20
   9   2  -4  317.97   11.60
   9   2  -4  321.37   11.50
   9   2  -4  294.37   11.60
   8  -2  -4  183.48    7.40
   8  -2  -4  177.98    7.00
   8  -2  -4  183.08    8.80
  -8  -2   4  188.98    6.70
   8  -2  -4  174.38    7.60
   8   2  -4  180.68    7.70
   8   2  -4  174.48    7.80
   8   2  -4  183.48    7.80
  -8   2   4  190.48    8.30
   8   2  -4  182.38    7.40
   7  -2  -4   56.39    3.80
   7  -2  -4   61.49    3.60
   7  -2  -4   55.69    3.20
   7  -2  -4   56.09    4.40
  -7  -2   4   59.99    2.90
  -7  -2   4   57.39    2.60
  -7   2   4   57.89    4.20
   7   2  -4   57.39    3.70
   7   2  -4   61.19    3.90
   7   2  -4   56.59    3.70
   7   2  -4   60.29    3.50
  -6  -2   4  113.29    4.30
   6  -2  -4  117.09    5.40
  -6  -2   4  109.79    4.30
   6  -2  -4  114.89    4.70
   6  -2  -4  106.59    5.00
   6   2  -4  109.19    5.20
   6   2  -4  106.99    4.60
  -6   2   4  117.79    5.70
   6   2  -4  112.19    5.30
   6   2  -4  103.69    5.20
  -5  -2   4   27.60    1.80
   5  -2  -4   28.00    2.60
  -5  -2   4   25.60    2.00
   5  -2  -4   30.10    2.40
   5  -2  -4   29.70    2.10
   5   2  -4   29.80    2.70
   5   2  -4   26.10    2.60
   5   2  -4   25.80    2.50
   5   2  -4   25.20    1.90
  -5   2   4   29.00    2.90
  -4  -2   4  610.64   17.60
  -4  -2   4  591.64   18.30
   4  -2  -4  595.44   19.20
   4  -2  -4  598.14   18.20
   4  -2  -4  587.14   18.80
   4   2  -4  611.64   19.10
   4   2  -4  593.94   19.00
   4   2  -4  587.14   18.90
  -4   2   4  599.74   19.40
  -4   2   4  619.94   17.60
  -3  -2   4  132.99    3.90
   3  -2  -4  122.29    5.10
  -3  -2   4  130.59    4.90
   3  -2  -4  115.69    5.40
   3  -2  -4  123.19    4.50
   3   2  -4  123.19    5.10
   3   2  -4  127.19    5.20
  -3   2   4  117.69    5.60
  -3   2   4  117.79    4.30
   3   2  -4  128.09    5.30
  -2  -2   4  441.56   14.10
   2  -2  -4  428.26   14.50
   2  -2  -4  458.35   13.50
   2  -2  -4  452.05   14.20
  -2  -2   4  453.15   13.90
   2   2  -4  430.56   14.10
   2   2  -4  445.26   14.30
   2   2  -4  458.25   14.40
  -2   2   4  426.76   14.70
  -2   2   4  452.35   13.60
   1  -2  -4   13.40    1.30
   1  -2  -4   15.90    1.90
  -1  -2   4   11.40    1.70
   1  -2  -4   12.00    1.70
  -1  -2   4   13.50    1.50
  -1   2   4   12.80    1.60
   1   2  -4   11.90    1.60
  -1   2   4   14.00    1.90
  -1   2   4   13.80    2.10
   1   2  -4   12.60    1.50
   0  -2   4    1.10    0.40
   0  -2  -4   -0.10    0.90
   0  -2   4   -0.30    0.80
   0  -2  -4    2.00    0.90
   0  -2   4    0.60    0.90
   0   2   4    1.30    0.80
   0   2  -4   -0.40    0.90
   0   2   4   -0.40    0.90
   0   2  -4    1.70    0.70
   0   2   4    0.50    0.90
   0   2  -4    0.90    0.40
  -1  -2  -4  347.87   11.60
   1  -2   4  352.66   11.80
   1  -2   4  337.67   10.80
  -1  -2  -4  365.86   11.60
   1  -2   4  356.06   11.00
  -1  -2  -4  361.56   11.20
   1   2   4  350.96   11.40
   1   2   4  354.66   12.10
   1   2   4  372.16   11.60
  -1   2  -4  337.07   11.20
  -1   2  -4  354.86   10.50
  -1   2  -4  338.67   11.40
   2  -2   4    6.20    1.30
  -2  -2  -4   10.00    1.60
   2  -2   4    5.90    1.40
  -2  -2  -4    7.60    1.20
   2  -2   4    7.00    1.10
  -2  -2  -4    7.70    1.30
   2  -2   4    8.80    1.20
   2   2   4    9.80    1.30
  -2   2  -4    9.70    1.50
  -2   2  -4    8.20    1.00
   2   2   4    7.10    1.20
  -2   2  -4    8.00    1.30
   2   2   4    5.50    1.40
   2   2   4    7.20    1.40
  -3  -2  -4 1477.35   41.90
   3  -2   4 1429.66   42.10
  -3  -2  -4 1390.86   42.00
  -3  -2  -4 1417.86   42.30
   3  -2   4 1408.36   42.70
   3  -2   4 1474.75   41.70
   3   2   4 1439.16   42.90
   3   2   4 1473.95   42.50
  -3   2  -4 1411.66   41.80
  -3   2  -4 1444.96   41.70
   3   2   4 1455.45   41.80
  -3   2  -4 1377.36   42.00
   3   2   4 1408.56   42.10
  -4  -2  -4  135.39    5.50
   4  -2   4  132.09    5.50
   4  -2   4  133.79    5.60
  -4  -2  -4  135.59    5.10
  -4  -2  -4  134.19    5.00
   4  -2   4  142.59    5.00
   4  -2   4  130.79    5.80
  -4   2  -4  131.79    5.00
   4   2   4  130.69    5.60
  -4   2  -4  128.89    5.30
   4   2   4  133.29    5.10
   4   2   4  133.29    5.40
   4   2   4  132.69    5.80
  -4   2  -4  137.99    5.10
   5  -2   4   18.10    2.30
  -5  -2  -4   17.50    1.80
  -5  -2  -4   18.70    2.00
   5  -2   4   14.80    1.70
   5  -2   4   15.40    2.00
   5  -2   4   15.10    2.30
  -5  -2  -4   18.80    1.90
   5   2   4   22.30    2.40
  -5   2  -4   16.90    1.90
  -5   2  -4   16.10    1.80
   5   2   4   17.90    2.00
  -5   2  -4   17.50    1.80
   5   2   4   20.90    2.00
   5   2   4   17.90    2.30
   6  -2   4  162.18    6.60
   6  -2   4  164.88    5.90
   6  -2   4  162.38    6.90
  -6  -2  -4  158.88    6.20
   6  -2   4  157.88    6.90
  -6  -2  -4  162.18    6.50
   6   2   4  163.48    6.90
   6   2   4  155.98    6.80
  -6   2  -4  169.28    6.60
  -6   2  -4  164.88    6.30
   6   2   4  157.68    6.60
   6   2   4  159.18    6.30
   7  -2   4  198.68    7.90
  -7  -2  -4  209.18    7.60
   7  -2   4  198.38    8.10
   7  -2   4  211.48    7.30
   7  -2   4  203.78    8.60
   7   2   4  199.48    7.70
   7   2   4  201.88    8.20
   7   2   4  194.18    8.10
   7   2   4  201.08    8.00
  -7   2  -4  201.98    7.70
  -7   2  -4  202.38    7.90
   8  -2   4  253.67    8.80
  -8  -2  -4  252.77    9.20
   8  -2   4  253.27   10.30
   8  -2   4  242.78    9.50
   8  -2   4  249.68    9.70
   8   2   4  256.47    9.90
   8   2   4  247.38    9.80
   8   2   4  239.08    9.30
   8   2   4  245.58    9.70
  -8   2  -4  256.27    9.40
  -8   2  -4  267.07    9.60
   9  -2   4    3.70    1.90
   9  -2   4    4.30    1.40
  -9  -2  -4    1.70    1.30
   9  -2   4    3.90    2.40
   9  -2   4    3.50    1.60
   9  -2   4    3.70    1.30
  -9   2  -4    4.30    1.50
  -9   2  -4    1.40    1.20
   9   2   4    2.50    1.80
   9   2   4    4.30    1.90
   9   2   4    2.60    1.90
   9   2   4    1.90    1.90
  10  -2   4   37.20    2.90
  10  -2   4   37.90    4.90
 -10  -2  -4   41.70    3.40
  10  -2   4   44.00    4.00
  10  -2   4   38.80    3.20
  10  -2   4   32.00    3.40
  10   2   4   42.00    3.60
  10   2   4   35.00    3.60
  10   2   4   42.20    4.30
 -10   2  -4   39.20    3.80
  10   2   4   34.90    4.00
 -10   2  -4   34.50    3.20
  11  -2   4   49.99    3.20
 -11  -2  -4   45.70    3.70
  11  -2   4   39.30    5.60
  11  -2   4   47.40    4.80
  11  -2   4   49.20    4.20
  11  -2   4   53.49    3.70
  11   2   4   42.80    4.70
 -11   2  -4   50.99    3.80
  11   2   4   43.40    4.00
 -11   2  -4   47.80    4.40
  11   2   4   46.80    4.10
  11   2   4   43.50    4.90
  12  -2   4    9.00    3.50
  12  -2   4   14.30    2.90
  12  -2   4   16.90    2.60
  12  -2   4    9.30    2.70
 -12  -2  -4   11.70    2.50
  12  -2   4    8.50    2.10
  12   2   4   11.60    3.20
 -12   2  -4    5.70    2.60
  12   2   4   10.90    2.60
 -12   2  -4   10.40    2.40
  12   2   4   13.20    2.70
  13  -2   4   38.80    5.80
 -13  -2  -4   55.59    4.60
  13  -2   4   58.99    3.80
  13  -2   4   52.29    4.60
  13  -2   4   56.79    5.10
  13  -2   4   57.69    4.30
 -13   2  -4   52.09    4.40
  13   2   4   48.30    4.50
  13   2   4   49.90    4.70
  13   2   4   62.59    6.70
 -13   2  -4   66.29    5.80
  14  -2   4    1.40    5.10
  14  -2   4    6.50    2.90
  14  -2   4    0.00    2.40
  14  -2   4    3.00    2.20
 -14  -2  -4    0.00    2.00
  14  -2   4   -4.70    2.40
  14   2   4    3.10    4.10
  14   2   4    1.40    2.80
 -14   2  -4   -3.20    3.10
  14   2   4    0.00    2.60
 -14   2  -4    1.20    2.10
  15  -2   4   10.40    2.70
 -15  -2  -4    6.00    2.50
  15  -2   4    6.20    3.50
  15  -2   4    0.90    2.30
  15  -2   4    2.50    5.60
  15   2   4    8.90    2.90
  15   2   4    7.90    3.10
 -15   2  -4    6.30    4.10
 -15   2  -4    3.10    2.30
  15   2   4    7.60    4.80
  14  -3  -4  116.29    6.80
  14  -3  -4  123.29    8.30
  14  -3  -4  105.79    6.70
 -14  -3   4  111.79    6.30
 -14   3   4  122.89   10.00
  14   3  -4  112.79    8.90
  14   3  -4  112.09    7.60
  14   3  -4  116.39    8.00
 -13  -3   4    8.10    2.50
  13  -3  -4    5.70    2.20
  13  -3  -4    7.60    3.30
  13  -3  -4    6.90    2.70
  13   3  -4   10.30    3.00
  13   3  -4    9.60    3.60
 -13   3   4    4.90    4.20
  13   3  -4   11.50    3.20
  12  -3  -4   51.09    4.60
 -12  -3   4   54.09    4.00
  12  -3  -4   50.89    4.40
  12  -3  -4   49.99    5.40
  12   3  -4   64.69    5.40
  12   3  -4   55.89    4.90
 -12   3   4   62.19    6.90
  12   3  -4   65.29    5.90
  11  -3  -4    5.80    2.70
  11  -3  -4    1.80    2.30
  11  -3  -4    3.70    1.90
 -11  -3   4    1.40    1.80
  11   3  -4    4.60    2.50
  11   3  -4    6.40    2.60
  11   3  -4    7.60    2.50
 -11   3   4    4.80    3.20
  10  -3  -4    6.50    2.30
 -10  -3   4    8.00    1.90
  10  -3  -4    6.50    2.10
  10  -3  -4    8.90    2.80
  10   3  -4    6.90    2.30
  10   3  -4   11.40    2.80
  10   3  -4    6.00    2.50
 -10   3   4    7.60    2.70
  10   3  -4    8.70    2.20
  -9  -3   4    0.70    1.00
   9  -3  -4   -1.80    1.90
   9  -3  -4   -1.90    1.50
  -9  -3   4   -2.30    1.30
   9  -3  -4   -2.00    1.40
  -9   3   4   -2.60    2.10
   9   3  -4    1.00    1.80
   9   3  -4   -1.10    1.60
   9   3  -4   -1.90    2.00
   9   3  -4   -0.20    2.10
  -8  -3   4    9.60    1.60
   8  -3  -4    7.80    2.20
   8  -3  -4    9.40    1.80
   8  -3  -4    5.20    2.00
  -8  -3   4    9.70    1.70
  -8   3   4    6.10    2.00
   8   3  -4    4.60    2.20
   8   3  -4    7.40    1.80
   8   3  -4    4.90    2.30
   8   3  -4    8.20    2.20
  -7  -3   4  375.86   12.30
   7  -3  -4  362.26   12.60
  -7  -3   4  381.56   11.70
   7  -3  -4  355.66   13.20
   7  -3  -4  383.76   14.00
  -7   3   4  397.26   14.40
   7   3  -4  372.76   12.30
   7   3  -4  367.46   13.70
   7   3  -4  367.46   13.60
   7   3  -4  381.46   13.80
   6  -3  -4   15.00    2.30
   6  -3  -4   14.20    1.90
  -6  -3   4   17.90    2.50
   6  -3  -4   19.40    2.70
  -6  -3   4   15.70    1.70
   6   3  -4   14.70    1.80
  -6   3   4   15.50    2.70
   6   3  -4   16.50    2.90
   6   3  -4   19.80    2.90
  -6   3   4   11.00    1.50
   6   3  -4   14.60    2.20
   5  -3  -4    7.90    2.10
   5  -3  -4    7.30    1.60
  -5  -3   4    5.90    1.60
  -5  -3   4    5.20    1.60
   5  -3  -4    4.70    1.60
  -5  -3   4    7.90    1.00
  -5   3   4    4.70    1.30
   5   3  -4    6.50    1.70
  -5   3   4    7.40    2.00
   5   3  -4    3.10    1.80
   5   3  -4    6.50    1.80
   4  -3  -4   70.09    3.50
  -4  -3   4   69.39    3.90
  -4  -3   4   68.49    4.00
   4  -3  -4   64.39    4.60
   4  -3  -4   73.39    4.10
   4   3  -4   71.19    4.20
   4   3  -4   71.99    4.40
  -4   3   4   72.39    4.80
   4   3  -4   68.69    4.20
  -4   3   4   69.49    3.30
  -3  -3   4   -0.90    1.20
  -3  -3   4   -0.20    1.10
   3  -3  -4    0.90    1.10
   3  -3  -4   -0.90    1.30
   3  -3  -4   -0.10    1.10
   3   3  -4    1.50    1.30
  -3   3   4   -0.40    1.30
   3   3  -4    0.90    1.60
   3   3  -4   -1.30    1.10
  -3   3   4    1.20    1.30
   2  -3  -4    3.20    1.60
   2  -3  -4    2.00    1.20
  -2  -3   4    1.50    1.40
   2  -3  -4    4.50    1.60
  -2  -3   4    4.70    1.40
   2   3  -4    1.10    1.40
   2   3  -4    2.60    1.00
  -2   3   4    0.50    1.20
  -2   3   4    3.00    1.60
  -2   3   4    3.40    1.50
   1  -3  -4    0.40    1.30
   1  -3  -4    1.00    1.50
   1  -3  -4    3.70    1.20
  -1  -3   4    1.80    1.30
  -1  -3   4   -0.30    1.30
  -1   3   4    2.20    1.20
  -1   3   4    0.20    1.20
   1   3  -4    1.90    1.40
   1   3  -4    1.60    1.10
  -1   3   4    3.00    1.20
   0  -3   4  296.17   10.10
   0  -3  -4  297.87   10.60
   0  -3   4  290.47   10.80
   0  -3  -4  298.87   10.90
   0   3  -4  287.87   10.40
   0   3   4  304.37   10.30
   0   3   4  301.87   10.30
   0   3   4  294.07   11.30
   0   3  -4  293.07   10.50
  -1  -3  -4    9.70    1.80
   1  -3   4    9.50    1.60
  -1  -3  -4    7.40    1.60
   1  -3   4    9.30    1.90
  -1   3  -4    7.50    1.60
   1   3   4   11.80    2.30
   1   3   4   11.10    2.00
   1   3   4    9.00    1.50
  -1   3  -4    8.10    1.10
  -1   3  -4    9.40    1.80
   2  -3   4   12.50    1.80
  -2  -3  -4   20.30    2.60
  -2  -3  -4   18.50    2.00
   2  -3   4   15.10    2.10
   2  -3   4   15.70    2.20
   2  -3   4   17.50    2.20
  -2  -3  -4   13.10    2.00
  -2   3  -4   15.20    1.50
   2   3   4   19.00    2.00
   2   3   4   16.50    2.70
   2   3   4   18.30    2.30
  -2   3  -4   14.50    2.10
  -2   3  -4   15.00    2.10
   3  -3   4    6.20    1.60
  -3  -3  -4    6.80    1.60
   3  -3   4    6.00    1.70
   3  -3   4    5.30    1.90
  -3  -3  -4    7.10    1.50
  -3  -3  -4    7.00    1.40
   3  -3   4    6.50    1.40
  -3   3  -4    7.10    1.20
  -3   3  -4    4.10    1.50
   3   3   4    9.00    1.90
   3   3   4    5.90    1.60
  -3   3  -4    6.30    1.50
   3   3   4    8.40    1.40
   3   3   4    8.80    1.80
  -4  -3  -4    1.80    1.20
   4  -3   4    1.70    1.30
   4  -3   4   -0.10    1.30
   4  -3   4   -0.70    1.20
   4  -3   4    3.00    1.30
  -4  -3  -4    2.10    1.30
  -4  -3  -4    1.40    1.40
  -4   3  -4    1.00    1.10
   4   3   4    1.10    1.40
   4   3   4    2.90    1.40
  -4   3  -4    1.30    1.20
   4   3   4    1.30    1.30
  -4   3  -4    2.20    1.00
   4   3   4    3.20    1.10
   5  -3   4    2.50    1.40
  -5  -3  -4    2.90    1.30
   5  -3   4    2.40    1.40
   5  -3   4    1.90    1.50
  -5  -3  -4    2.30    1.30
   5  -3   4    3.40    1.90
  -5  -3  -4    3.50    1.40
  -5   3  -4    5.10    1.50
  -5   3  -4    3.70    1.30
   5   3   4    2.90    1.80
   5   3   4    3.00    1.70
   5   3   4    1.20    1.80
  -5   3  -4    4.40    1.30
   5   3   4    2.80    1.20
   6  -3   4    5.40    2.10
   6  -3   4    5.70    1.90
   6  -3   4    3.80    1.50
  -6  -3  -4    5.30    1.50
   6  -3   4    4.50    1.90
  -6  -3  -4    3.20    1.50
  -6  -3  -4    5.70    1.60
   6   3   4    4.00    1.80
  -6   3  -4    6.30    1.60
   6   3   4    4.90    2.00
   6   3   4    3.30    1.50
  -6   3  -4    6.90    1.80
   6   3   4    6.80    1.90
  -6   3  -4    4.10    1.30
  -7  -3  -4   89.59    4.00
   7  -3   4   85.69    4.30
   7  -3   4   89.09    5.00
   7  -3   4   93.69    5.80
   7  -3   4   94.89    5.60
  -7  -3  -4   88.09    4.50
  -7  -3  -4   87.69    5.00
  -7   3  -4   91.99    5.20
   7   3   4   86.39    5.30
  -7   3  -4   93.89    4.50
   7   3   4   87.59    5.60
   7   3   4   93.19    4.80
   7   3   4   88.29    4.80
  -8  -3  -4   10.00    2.20
   8  -3   4   13.00    2.70
   8  -3   4   16.00    2.70
   8  -3   4   13.00    2.10
  -8  -3  -4   14.50    2.10
   8  -3   4   10.10    2.30
   8   3   4   14.90    2.90
  -8   3  -4   15.00    2.20
   8   3   4   11.10    2.50
   8   3   4    7.80    2.50
   8   3   4    9.50    2.10
  -8   3  -4   15.70    2.70
   9  -3   4   27.30    3.40
   9  -3   4   23.90    3.40
   9  -3   4   31.20    4.70
  -9  -3  -4   32.10    2.90
  -9  -3  -4   24.20    3.10
   9  -3   4   28.80    2.80
  -9   3  -4   27.50    3.20
   9   3   4   25.20    3.70
  -9   3  -4   32.20    4.00
   9   3   4   18.60    3.00
   9   3   4   28.70    4.10
   9   3   4   27.40    3.40
 -10  -3  -4    6.80    2.00
  10  -3   4    9.70    2.10
  10  -3   4    5.90    1.80
  10  -3   4    7.70    3.30
  10  -3   4    4.40    2.60
  10  -3   4    9.50    2.60
 -10  -3  -4    7.30    2.10
 -10   3  -4    7.30    1.80
  10   3   4    9.20    2.80
 -10   3  -4    7.10    2.40
  10   3   4    7.30    2.40
  10   3   4    7.40    2.40
  10   3   4    9.00    2.30
  11  -3   4   25.00    3.10
  11  -3   4   33.10    4.80
 -11  -3  -4   23.80    3.50
  11  -3   4   28.60    3.20
  11  -3   4   20.90    3.30
  11  -3   4   26.40    4.30
 -11  -3  -4   27.90    3.50
  11   3   4   26.30    3.80
  11   3   4   21.30    3.80
  11   3   4   28.80    4.00
  11   3   4   30.60    4.00
 -11   3  -4   20.70    3.20
 -11   3  -4   28.70    3.40
  12  -3   4    4.70    3.40
  12  -3   4   -2.70    2.10
 -12  -3  -4   -3.50    2.10
  12  -3   4   -3.40    1.90
  12  -3   4    4.50    2.10
 -12  -3  -4    0.60    2.10
  12  -3   4   -2.20    3.90
  12   3   4   -1.00    2.40
 -12   3  -4   -2.80    1.70
  12   3   4    0.90    3.30
  12   3   4    5.60    2.70
 -12   3  -4    9.00    3.10
  12   3   4    3.40    3.20
  13  -3   4    4.60    3.40
  13  -3   4    5.70    2.80
  13  -3   4    7.00    2.60
  13  -3   4    0.80    5.30
 -13  -3  -4    5.40    2.40
 -13  -3  -4    6.30    2.30
  13   3   4    4.60    2.60
  13   3   4    2.70    3.70
 -13   3  -4    8.60    3.60
  13   3   4    7.00    3.80
  13   3   4    4.60    3.00
 -13   3  -4    1.80    2.20
  14  -3   4   -1.80    2.70
  14  -3   4   -4.20    2.50
 -14  -3  -4    4.00    2.80
  14  -3   4    8.10    4.20
 -14  -3  -4    0.60    2.50
  14  -3   4    8.50    6.20
  14   3   4    3.50    4.60
 -14   3  -4    3.50    2.50
  14   3   4    3.90    2.90
  14   3   4    5.50    3.20
  13  -4  -4    8.90    4.90
 -13  -4   4    8.90    2.80
  13  -4  -4    9.70    3.40
  13  -4  -4    5.10    2.40
  13   4  -4    8.70    3.70
 -13   4   4   22.10    6.40
  13   4  -4   10.30    3.80
  13   4  -4    8.10    4.30
  12  -4  -4   26.80    4.00
 -12  -4   4   40.20    3.90
  12  -4  -4   36.30    5.50
  12  -4  -4   38.10    4.10
  12   4  -4   47.30    5.80
  12   4  -4   48.70    7.20
  12   4  -4   27.70    4.70
  12   4  -4   35.90    4.90
 -12   4   4   42.40    6.60
  11  -4  -4   -0.70    3.80
  11  -4  -4    3.70    2.40
 -11  -4   4    1.90    2.20
  11  -4  -4    0.90    2.20
 -11  -4   4    0.00    2.10
 -11   4   4    0.60    4.40
  11   4  -4    6.30    3.50
  11   4  -4   -0.60    2.70
  11   4  -4   -1.40    2.70
  11   4  -4    1.70    2.70
 -10  -4   4    5.60    2.10
  10  -4  -4    5.00    2.20
 -10  -4   4    2.50    2.00
 -10  -4   4    7.40    1.80
  10  -4  -4    0.80    2.00
  10  -4  -4    9.80    4.00
 -10   4   4   10.20    4.10
  10   4  -4    5.50    2.20
  10   4  -4    3.00    2.80
  10   4  -4    7.90    3.40
  10   4  -4    8.80    3.20
  -9  -4   4    2.60    1.90
  -9  -4   4    5.80    2.50
   9  -4  -4    4.40    2.20
  -9  -4   4    2.90    1.90
   9  -4  -4    1.20    2.90
   9  -4  -4    2.30    1.90
   9   4  -4    5.40    2.60
  -9   4   4    0.80    3.50
   9   4  -4    4.10    2.70
   9   4  -4    2.70    2.60
  -8  -4   4    7.20    1.80
   8  -4  -4    2.60    3.00
  -8  -4   4    3.90    1.80
   8  -4  -4    2.60    2.00
   8  -4  -4    6.00    2.40
  -8  -4   4    5.10    2.00
   8   4  -4    2.90    2.50
   8   4  -4    5.70    2.60
   8   4  -4    5.80    2.60
  -8   4   4    3.20    3.00
   7  -4  -4   66.19    4.20
  -7  -4   4   64.49    4.60
   7  -4  -4   65.79    4.70
  -7  -4   4   64.59    4.60
   7  -4  -4   78.29    6.20
  -7   4   4   65.89    5.80
   7   4  -4   58.49    5.10
   7   4  -4   58.19    5.00
   7   4  -4   68.49    5.40
  -7   4   4   64.69    3.10
   6  -4  -4   17.60    2.60
   6  -4  -4   12.40    3.00
  -6  -4   4   16.40    2.80
   6  -4  -4   17.00    2.70
  -6  -4   4   20.70    2.80
   6   4  -4   15.40    3.10
   6   4  -4   19.40    3.40
  -6   4   4   16.90    3.20
   6   4  -4   15.40    2.60
  -6   4   4   16.70    2.10
  -5  -4   4    0.10    1.70
   5  -4  -4    3.40    1.60
   5  -4  -4   -0.20    1.60
   5  -4  -4   -4.40    2.00
  -5  -4   4   -1.60    1.70
   5   4  -4    2.40    2.10
   5   4  -4   -0.80    1.80
  -5   4   4    1.60    2.30
  -5   4   4    0.70    1.70
   5   4  -4    0.20    1.80
  -4  -4   4   15.00    2.60
   4  -4  -4   16.50    2.20
  -4  -4   4   14.40    2.60
   4  -4  -4   12.20    3.10
   4  -4  -4   17.70    2.90
  -4   4   4   10.30    2.40
   4   4  -4   14.40    2.80
  -4   4   4   14.10    2.20
   4   4  -4   15.30    2.60
   3  -4  -4    0.80    2.20
   3  -4  -4    0.30    1.50
   3  -4  -4    1.00    1.70
  -3  -4   4    2.00    2.00
  -3  -4   4    2.60    1.90
  -3   4   4    0.70    1.90
  -3   4   4    3.10    1.90
  -3   4   4    2.60    1.80
   3   4  -4    2.70    1.80
   3   4  -4    1.70    1.70
   2  -4  -4   -1.60    1.60
  -2  -4   4   -3.00    1.40
   2  -4  -4    1.40    2.10
   2  -4  -4    1.40    1.60
  -2  -4   4    1.40    1.90
  -2   4   4    3.40    1.90
  -2   4   4    0.60    1.80
  -2   4   4   -2.80    1.70
   2   4  -4    0.30    1.40
   2   4  -4    0.20    1.90
   1  -4  -4   47.90    3.20
   1  -4  -4   47.50    3.80
  -1  -4   4   51.79    4.60
   1  -4  -4   48.00    4.70
  -1  -4   4   46.90    3.50
  -1   4   4   44.60    3.70
  -1   4   4   51.29    4.70
   1   4  -4   41.90    3.80
   1   4  -4   41.80    3.90
  -1   4   4   53.39    3.70
   0  -4   4   36.90    3.10
   0  -4   4   42.40    4.40
   0  -4  -4   34.00    3.20
   0  -4  -4   36.00    4.30
   0   4  -4   42.80    3.70
   0   4  -4   34.90    3.50
   0   4   4   30.20    4.30
   0   4   4   35.90    3.20
   0   4   4   36.10    3.10
  -1  -4  -4   -2.30    1.70
  -1  -4  -4    0.30    1.50
   1  -4   4    0.30    2.00
   1  -4   4   -0.70    1.30
  -1   4  -4    0.00    1.60
   1   4   4    2.00    1.40
  -1   4  -4    0.10    1.80
   1   4   4    0.50    1.70
   1   4   4    1.70    2.20
  -1   4  -4    0.40    0.80
  -1   4  -4    0.50    0.90
  -2  -4  -4    4.00    1.70
  -2  -4  -4    4.50    2.10
   2  -4   4    4.80    2.10
   2  -4   4    5.80    1.90
   2  -4   4    8.70    1.90
   2   4   4    0.90    1.70
  -2   4  -4    4.00    1.80
  -2   4  -4    6.40    1.10
   2   4   4    2.40    2.30
  -2   4  -4    5.40    1.90
   2   4   4    5.20    1.70
  -3  -4  -4   15.00    2.60
  -3  -4  -4   19.80    2.80
   3  -4   4   20.70    2.80
   3  -4   4   20.40    2.80
   3  -4   4   21.60    3.50
  -3   4  -4   20.40    1.90
  -3   4  -4   19.40    2.60
  -3   4  -4   20.10    3.30
   3   4   4   20.40    2.50
   3   4   4   16.90    2.90
   3   4   4   18.50    2.80
   4  -4   4   27.20    3.20
  -4  -4  -4   31.40    3.50
   4  -4   4   26.80    3.00
  -4  -4  -4   26.70    2.70
   4  -4   4   30.50    4.40
   4  -4   4   31.80    3.10
  -4  -4  -4   29.80    3.60
  -4   4  -4   27.30    3.60
   4   4   4   30.90    2.70
  -4   4  -4   28.80    3.20
   4   4   4   27.60    3.90
   4   4   4   29.40    3.60
  -4   4  -4   26.00    2.30
   4   4   4   25.10    3.10
   5  -4   4   16.80    3.20
  -5  -4  -4    8.40    2.00
   5  -4   4    6.00    1.90
  -5  -4  -4   12.10    2.10
   5  -4   4    9.50    2.20
   5  -4   4   12.10    2.30
  -5  -4  -4    8.80    2.40
   5   4   4   12.00    2.90
   5   4   4    8.30    2.30
   5   4   4    9.80    2.30
   5   4   4   10.20    2.00
  -5   4  -4    9.70    2.10
  -5   4  -4   11.20    2.40
  -5   4  -4   11.10    1.70
   6  -4   4   65.79    5.00
  -6  -4  -4   66.79    5.00
   6  -4   4   69.89    4.30
   6  -4   4   74.19    6.10
  -6  -4  -4   66.79    4.60
  -6  -4  -4   65.79    4.00
   6  -4   4   70.19    4.50
   6   4   4   70.39    4.70
  -6   4  -4   67.49    4.00
   6   4   4   67.29    4.10
  -6   4  -4   70.79    5.00
  -6   4  -4   64.49    3.80
   6   4   4   68.39    5.90
   6   4   4   66.19    5.00
   7  -4   4   14.70    3.00
   7  -4   4   12.50    3.00
  -7  -4  -4   13.90    2.30
  -7  -4  -4   12.70    2.30
  -7  -4  -4    8.90    2.60
   7  -4   4    9.60    2.00
   7  -4   4   11.70    2.20
  -7   4  -4    9.40    2.10
   7   4   4    9.70    2.20
  -7   4  -4    8.70    2.00
   7   4   4   14.00    3.10
  -7   4  -4   16.10    2.90
   7   4   4    8.90    2.80
   7   4   4   14.10    3.20
  -8  -4  -4    1.30    2.00
   8  -4   4    2.60    1.90
  -8  -4  -4    5.00    2.20
   8  -4   4    1.30    1.80
  -8  -4  -4    0.40    1.60
   8  -4   4    2.90    2.90
   8  -4   4    2.30    3.20
   8   4   4    6.40    2.40
   8   4   4    3.80    2.50
   8   4   4    5.40    2.80
  -8   4  -4    9.70    2.60
   8   4   4    3.10    1.90
  -8   4  -4    2.30    1.60
  -9  -4  -4    8.60    2.40
   9  -4   4   14.80    4.00
   9  -4   4    8.90    2.40
   9  -4   4   16.70    2.70
  -9  -4  -4   13.30    2.70
   9  -4   4   14.70    4.10
   9   4   4    9.00    2.70
   9   4   4    5.40    3.20
   9   4   4   10.50    2.60
   9   4   4   10.10    2.90
  -9   4  -4   14.40    2.90
  -9   4  -4   17.60    2.60
 -10  -4  -4    2.40    2.20
  10  -4   4    5.40    2.20
  10  -4   4    5.50    4.20
 -10  -4  -4    2.00    2.00
  10  -4   4    2.80    4.00
  10  -4   4    3.90    2.30
 -10   4  -4    2.20    3.10
  10   4   4    5.20    3.70
  10   4   4   -0.90    2.50
  10   4   4    5.90    2.60
  10   4   4    3.00    2.70
 -10   4  -4    1.80    1.80
  11  -4   4    9.20    4.50
  11  -4   4    9.50    5.10
 -11  -4  -4    3.80    2.40
  11  -4   4    3.40    2.90
  11  -4   4    7.70    2.70
  11  -4   4    5.10    3.10
 -11  -4  -4    9.30    2.70
  11   4   4    8.70    3.30
  11   4   4    2.30    2.50
 -11   4  -4    3.00    2.00
  11   4   4   15.60    4.20
 -11   4  -4    7.20    3.60
  11   4   4    5.50    3.00
 -12  -4  -4   -2.00    2.60
  12  -4   4   11.30    3.20
  12  -4   4    1.60    4.40
  12  -4   4    2.00    2.30
 -12  -4  -4    6.00    2.40
  12  -4   4   15.80    6.00
  12   4   4   -1.20    2.60
  12   4   4   -7.80    4.30
  12   4   4   -6.20    3.60
 -12   4  -4    1.20    2.40
 -12   4  -4   -0.80    3.60
  12   4   4   -4.60    2.80
  10  -5  -4   12.20    5.40
 -10  -5   4    3.10    2.90
 -10  -5   4   -2.90    2.20
  10  -5  -4   -4.30    2.20
  10  -5  -4   -2.80    2.20
  10   5  -4    3.60    4.60
  10   5  -4    1.40    2.80
  10   5  -4    3.10    3.40
 -10   5   4   -6.40    5.20
   9  -5  -4   63.99    5.30
   9  -5  -4   66.99    5.00
  -9  -5   4   61.39    5.30
   9  -5  -4   70.29    9.60
  -9  -5   4   71.29    6.20
   9   5  -4   63.69    5.70
   9   5  -4   65.29    7.70
  -9   5   4   80.99    8.90
   9   5  -4   70.19    6.20
   8  -5  -4   14.90    4.40
   8  -5  -4   16.40    3.20
  -8  -5   4   12.30    2.90
  -8  -5   4   20.30    3.70
   8  -5  -4   17.10    3.00
   8   5  -4   13.40    3.60
  -8   5   4   16.80    5.10
   8   5  -4   20.20    3.90
   8   5  -4    9.90    3.80
   7  -5  -4   15.50    4.70
  -7  -5   4   13.80    3.40
   7  -5  -4   13.00    2.70
  -7  -5   4   12.20    2.80
   7  -5  -4    8.40    2.70
   7   5  -4    8.90    3.50
   7   5  -4    8.40    2.90
  -7   5   4   14.40    4.00
   7   5  -4    9.40    3.20
  -7   5   4   10.90    2.50
   6  -5  -4   28.30    3.40
  -6  -5   4   22.00    3.40
   6  -5  -4   21.90    3.30
  -6  -5   4   26.60    3.90
   6  -5  -4   32.10    5.10
  -6   5   4   28.30    3.40
   6   5  -4   23.80    4.10
  -6   5   4   33.00    4.90
   6   5  -4   35.90    5.40
  -5  -5   4   38.40    5.60
   5  -5  -4   41.60    5.60
  -5  -5   4   32.50    4.10
   5  -5  -4   33.90    4.00
   5  -5  -4   40.60    4.00
  -5   5   4   38.30    5.40
   5   5  -4   40.50    4.40
  -5   5   4   41.80    6.20
   5   5  -4   40.20    5.50
  -5   5   4   40.90    4.00
   4  -5  -4   -2.20    2.00
   4  -5  -4    0.10    3.20
   4  -5  -4    1.30    2.00
  -4  -5   4    3.50    2.80
  -4  -5   4   -3.20    1.80
  -4   5   4    7.60    2.90
  -4   5   4    4.70    3.20
  -4   5   4    1.00    2.30
   4   5  -4   -0.40    2.30
   4   5  -4   -1.70    2.60
   3  -5  -4    0.40    1.80
   3  -5  -4    3.30    3.40
  -3  -5   4   -0.70    2.00
   3  -5  -4   -0.80    1.90
  -3  -5   4    4.00    3.00
   3   5  -4   -3.10    2.70
  -3   5   4   -1.30    2.20
  -3   5   4    0.30    2.20
  -3   5   4    4.50    3.40
   3   5  -4   -1.00    2.10
   2  -5  -4    2.40    1.90
  -2  -5   4    1.40    2.90
   2  -5  -4   -1.40    1.80
   2  -5  -4    1.10    3.30
  -2  -5   4    2.20    2.10
   2   5  -4    0.20    2.00
  -2   5   4   -0.70    3.00
  -2   5   4    3.60    2.30
   2   5  -4   -0.10    2.40
  -2   5   4   -1.00    2.20
  -1  -5   4    5.50    2.20
   1  -5  -4    7.20    2.30
  -1  -5   4   10.30    3.50
   1  -5  -4    7.70    2.20
   1  -5  -4   10.50    3.50
   1   5  -4    7.60    2.50
   1   5  -4   10.70    2.90
  -1   5   4    9.90    2.30
  -1   5   4    7.50    3.30
  -1   5   4    9.30    2.80
   0  -5  -4    0.10    2.40
   0  -5  -4    1.90    2.00
   0  -5   4   -2.60    2.90
   0  -5   4    0.20    2.20
   0  -5  -4    0.20    2.60
   0   5  -4    1.10    2.20
   0   5  -4   -0.60    2.00
   0   5   4    4.60    1.80
   0   5   4   -0.20    3.10
   0   5   4    1.00    2.30
   1  -5   4    5.70    2.50
  -1  -5  -4   10.70    3.50
   1  -5   4    5.30    3.20
   1  -5   4    9.80    2.50
  -1  -5  -4    9.70    2.40
   1   5   4    7.40    2.00
  -1   5  -4    7.30    2.60
   1   5   4   10.00    3.50
  -1   5  -4    9.60    2.50
   1   5   4    9.50    2.90
  -2  -5  -4   27.10    3.40
   2  -5   4   16.10    2.90
   2  -5   4   18.10    3.90
  -2  -5  -4   22.80    4.20
   2  -5   4   20.70    3.30
  -2   5  -4   21.40    3.30
   2   5   4   20.00    2.80
  -2   5  -4   20.20    2.00
  -2   5  -4   21.60    2.20
   2   5   4   19.90    3.50
   2   5   4   18.30    3.70
  -2   5  -4   20.20    3.50
   3  -5   4    5.90    3.50
  -3  -5  -4    2.40    2.80
   3  -5   4    6.20    2.50
   3  -5   4    3.00    2.20
  -3  -5  -4    5.20    2.00
   3   5   4   10.20    1.90
  -3   5  -4    7.30    1.50
   3   5   4    7.00    2.80
  -3   5  -4    7.50    2.50
   3   5   4    3.40    2.80
  -3   5  -4    3.90    2.90
  -4  -5  -4   29.90    4.20
   4  -5   4   25.00    4.70
   4  -5   4   30.10    3.60
   4  -5   4   26.20    3.50
  -4  -5  -4   24.80    3.80
   4   5   4   29.80    3.00
   4   5   4   33.20    4.60
  -4   5  -4   26.00    3.90
  -4   5  -4   27.40    2.50
   4   5   4   20.40    3.70
  -4   5  -4   32.40    3.60
   5  -5   4   18.40    2.80
   5  -5   4   16.30    2.90
   5  -5   4   16.60    4.70
  -5  -5  -4   34.70    5.10
  -5  -5  -4   21.80    3.70
   5   5   4   21.60    3.00
   5   5   4    9.10    3.40
  -5   5  -4   17.90    2.90
   5   5   4   22.30    3.70
  -5   5  -4   19.00    2.30
  -6  -5  -4   36.00    5.20
   6  -5   4   27.10    5.10
  -6  -5  -4   25.50    3.80
   6  -5   4   22.70    3.30
   6  -5   4   28.30    3.50
   6   5   4   30.10    3.60
  -6   5  -4   25.80    4.10
  -6   5  -4   23.80    3.00
  -6   5  -4   28.80    3.50
   6   5   4   23.60    4.80
   6   5   4   22.90    3.90
   7  -5   4   13.00    3.10
  -7  -5  -4    7.60    2.50
   7  -5   4    9.50    2.60
  -7  -5  -4   12.80    3.40
  -7  -5  -4   10.40    3.40
   7  -5   4    9.60    4.90
  -7   5  -4    4.70    2.60
   7   5   4   10.50    2.20
   7   5   4    7.60    2.80
   7   5   4   10.30    3.00
  -7   5  -4    0.10    3.20
  -7   5  -4    7.70    2.20
   7   5   4    4.80    3.70
   8  -5   4    3.50    2.40
  -8  -5  -4    2.80    2.80
   8  -5   4    5.50    4.50
  -8  -5  -4    5.00    2.70
   8  -5   4    6.70    2.70
  -8  -5  -4    3.70    3.00
  -8   5  -4    8.80    2.60
   8   5   4    5.30    2.50
   8   5   4    8.70    4.60
   8   5   4    2.50    2.80
  -8   5  -4    3.40    3.50
  -8   5  -4    1.40    2.00
   8   5   4    2.60    2.80
  -9  -5  -4    3.50    2.80
   9  -5   4    6.90    2.80
  -9  -5  -4    3.60    2.80
  -9  -5  -4    9.00    3.00
   9  -5   4    6.10    5.20
   9  -5   4    5.60    2.70
  -9   5  -4    5.70    2.30
   9   5   4    2.50    3.00
   9   5   4    7.20    3.10
  -9   5  -4    8.00    3.60
   9   5   4    5.50    3.20
   9   5   4    4.90    4.30
 -10  -5  -4   14.90    3.30
  10  -5   4    4.10    6.00
 -10  -5  -4    8.50    3.10
  10  -5   4    6.10    3.00
  10  -5   4   11.10    3.20
  10   5   4    7.70    3.30
 -10   5  -4    5.40    2.40
  10   5   4    6.20    3.80
  10   5   4    2.90    3.80
  10   5   4   12.70    4.00
 -10   5  -4    6.80    3.90
  -6  -6   4   -2.90    2.90
   6  -6  -4    4.30    3.00
  -6  -6   4    1.30    4.90
  -6   6   4   -4.70    6.00
   6   6  -4    6.70    4.60
   5  -6  -4   -2.40    6.90
   5  -6  -4    4.10    2.80
   5  -6  -4    2.60    3.00
  -5  -6   4    0.50    4.70
  -5  -6   4    4.20    2.60
  -5   6   4    0.00    5.40
  -5   6   4    4.00    3.00
  -5   6   4    4.80    4.10
   5   6  -4    8.80    3.80
   5   6  -4    3.70    4.70
  -4  -6   4    6.90    2.60
   4  -6  -4    8.50    3.50
   4  -6  -4    5.50    2.90
   4  -6  -4    1.60    6.00
  -4  -6   4   18.00    4.80
   4   6  -4   10.40    4.60
   4   6  -4    1.90    3.40
  -4   6   4   13.10    5.80
  -4   6   4    9.70    3.50
  -4   6   4    8.20    3.40
   3  -6  -4    7.10    2.70
  -3  -6   4    6.10    4.30
   3  -6  -4    9.70    3.30
   3  -6  -4    4.80    5.70
  -3  -6   4   10.00    2.90
  -3   6   4   -2.90    5.50
  -3   6   4    6.70    3.20
   3   6  -4    6.50    4.50
  -3   6   4    9.70    3.30
   3   6  -4   14.10    3.30
   2  -6  -4  119.19    6.50
   2  -6  -4  113.79    7.40
  -2  -6   4  127.19   10.20
   2  -6  -4   89.29   10.60
  -2  -6   4  105.49    6.90
  -2   6   4  119.69   10.00
  -2   6   4  119.59    7.10
  -2   6   4  121.09    7.00
   2   6  -4  104.19    8.60
   2   6  -4  103.59    7.10
  -1  -6   4    1.70    2.60
   1  -6  -4   -1.00    2.30
   1  -6  -4    2.90    2.70
   1  -6  -4   -0.70    4.90
  -1  -6   4    0.90    4.50
  -1   6   4   -4.10    5.10
  -1   6   4    0.90    2.70
   1   6  -4    5.50    3.80
  -1   6   4    3.60    2.90
   1   6  -4   -1.10    2.60
   0  -6  -4    7.20    2.60
   0  -6  -4    3.80    5.00
   0  -6  -4    4.00    2.80
   0  -6   4    0.60    2.30
   0  -6   4    1.20    2.80
   0  -6   4    6.90    5.00
   0   6   4   -4.80    4.30
   0   6  -4    4.10    3.00
   0   6   4    2.10    3.10
   0   6  -4    5.70    3.60
   0   6   4    4.10    2.70
  -1  -6  -4   -3.50    2.90
   1  -6   4    2.40    2.30
  -1  -6  -4    4.80    4.90
  -1  -6  -4    6.10    2.70
   1  -6   4    2.30    2.70
   1  -6   4    5.50    4.80
   1   6   4    5.90    2.30
  -1   6  -4    2.60    2.60
  -1   6  -4    3.30    3.60
   1   6   4    6.30    3.60
   1   6   4    6.60    4.80
   2  -6   4   15.30    3.40
  -2  -6  -4    9.90    3.10
   2  -6   4   19.30    5.50
   2  -6   4   14.10    2.90
  -2  -6  -4    9.90    4.70
  -2   6  -4   15.60    3.20
   2   6   4   25.90    5.10
   2   6   4   14.50    3.70
   2   6   4   15.00    2.30
  -2   6  -4   17.60    4.10
   3  -6   4    3.20    2.30
   3  -6   4   -3.20    5.00
  -3  -6  -4   -0.10    2.30
   3  -6   4   -2.10    2.30
  -3  -6  -4    4.00    4.30
  -3   6  -4   -5.00    4.00
   3   6   4    1.00    4.60
  -3   6  -4    0.90    2.70
   3   6   4    2.00    3.10
   3   6   4   -1.30    2.30
  -4  -6  -4   -3.40    4.80
   4  -6   4    4.10    2.90
   4  -6   4    2.50    2.40
  -4  -6  -4    2.70    2.60
   4  -6   4    0.70    6.30
  -4   6  -4    1.60    4.80
   4   6   4   -2.40    2.90
   4   6   4    6.40    5.10
  -4   6  -4    4.80    3.00
   5  -6   4   46.00    4.90
  -5  -6  -4   40.10    5.10
  -5  -6  -4   50.69    6.20
   5  -6   4   38.40    4.50
  -5   6  -4   43.30    5.10
   5   6   4   47.60    5.80
  -5   6  -4   33.40    4.70
  -5   6  -4   66.39    8.40
  16   0  -5    6.10    5.60
  16   0  -5    1.00    2.50
 -16   0   5    2.80    2.40
  16   0  -5   -1.60    3.10
  16   0  -5    5.80    2.60
 -16   0   5   -1.30    4.50
  15   0  -5    1.50    2.40
 -15   0   5    0.10    3.30
  15   0  -5    2.40    2.60
  15   0  -5    2.10    4.30
 -15   0   5   -0.10    2.00
  15   0  -5    1.50    2.20
  14   0  -5   10.20    4.10
 -14   0   5   -2.00    1.90
  14   0  -5    2.10    2.10
 -14   0   5    0.30    2.80
  14   0  -5    0.00    2.40
  14   0  -5    0.80    1.80
  13   0  -5   80.29    5.30
 -13   0   5   77.49    6.30
  13   0  -5   83.59    4.40
  13   0  -5   77.99    5.10
  13   0  -5  104.39    8.00
  12   0  -5    0.10    1.70
  12   0  -5    0.30    1.80
  12   0  -5    2.00    1.70
 -12   0   5    0.60    1.90
  12   0  -5    0.20    2.60
  11   0  -5   77.09    3.90
  11   0  -5   73.69    4.70
  11   0  -5   58.09    5.60
  11   0  -5   76.29    4.60
 -11   0   5   76.29    5.30
  10   0  -5   -0.60    1.30
  10   0  -5   -0.50    1.40
  10   0  -5    0.00    1.50
  10   0  -5    1.40    1.90
   9   0  -5  266.57   10.00
   9   0  -5  265.27    9.90
   9   0  -5  276.97   11.10
   9   0  -5  286.47    9.20
   8   0  -5   -0.10    1.10
   8   0  -5   -0.30    1.00
   8   0  -5    0.40    1.60
   8   0  -5   -0.70    1.10
   7   0  -5   59.59    3.90
   7   0  -5   57.59    2.70
   7   0  -5   57.39    3.20
   7   0  -5   56.99    3.30
   7   0  -5   64.59    2.90
   6   0  -5    0.10    0.70
   6   0  -5    0.20    1.00
   6   0  -5    0.40    0.90
   6   0  -5    0.50    1.00
   6   0  -5   -0.90    0.90
   5   0  -5   94.59    3.90
   5   0  -5   90.79    4.50
   5   0  -5   94.39    3.90
   5   0  -5   96.89    3.60
   4   0  -5    1.10    0.90
   4   0  -5    0.20    0.70
   4   0  -5    0.10    0.80
  -3   0   5  327.27   11.10
   3   0  -5  353.06   10.70
   3   0  -5  351.16   10.60
   3   0  -5  357.96   10.80
  -2   0   5    0.00    0.50
   2   0  -5   -0.20    0.50
   2   0  -5   -0.20    0.60
   2   0  -5    0.30    0.50
   1   0  -5  346.67   10.30
   1   0  -5  345.07   10.60
   1   0  -5  355.16   10.30
   1   0  -5  349.17   10.50
  -1   0   5  333.07   10.90
  -1   0   5  334.67   10.50
   0   0  -5    1.60    0.80
   0   0  -5   -0.40    0.40
   0   0   5    0.00    0.70
   0   0   5    0.60    0.40
  -1   0  -5 2176.68   60.49
  -1   0  -5 2150.98   60.99
   1   0   5 2042.80   60.59
   1   0   5 2040.70   61.29
   1   0   5 2198.38   60.69
   2   0   5   -0.20    0.80
  -2   0  -5    0.80    0.70
  -2   0  -5    1.30    0.50
   2   0   5   -0.10    0.40
   2   0   5    0.40    0.70
   2   0   5    0.30    0.70
   3   0   5 1119.79   34.10
   3   0   5 1085.79   33.30
   3   0   5 1120.79   33.60
   3   0   5 1216.08   33.60
  -3   0  -5 1218.08   33.90
   4   0   5    0.40    0.80
   4   0   5   -0.10    0.50
  -4   0  -5   -0.40    0.60
   4   0   5    0.30    0.80
   4   0   5    0.30    0.90
   4   0   5    0.20    0.60
   5   0   5    8.10    1.20
   5   0   5   10.60    1.70
  -5   0  -5    6.40    1.10
   5   0   5    9.50    1.40
   5   0   5    6.50    1.20
   6   0   5    0.40    1.00
   6   0   5   -0.30    0.90
   6   0   5    0.20    0.90
   6   0   5    0.10    0.70
  -6   0  -5   -0.40    0.70
   7   0   5    2.00    0.80
  -7   0  -5    2.00    1.00
   7   0   5    1.00    1.10
   7   0   5    1.30    1.50
   7   0   5    0.50    1.00
   8   0   5   -0.90    1.00
  -8   0  -5    0.20    1.00
   8   0   5    0.70    0.80
   8   0   5   -1.10    1.00
   8   0   5    0.30    1.10
   8   0   5   -1.00    1.30
   9   0   5   23.50    2.60
   9   0   5   21.20    2.10
  -9   0  -5   25.00    2.60
   9   0   5   27.20    2.20
   9   0   5   28.00    3.40
   9   0   5   23.00    2.50
  10   0   5    0.00    1.50
  10   0   5    0.70    1.10
  10   0   5    1.90    1.50
 -10   0  -5    1.60    1.30
  10   0   5    2.60    2.20
 -11   0  -5   29.60    3.20
  11   0   5   29.20    3.30
  11   0   5   37.80    4.60
  11   0   5   33.80    3.30
  11   0   5   31.50    2.50
 -12   0  -5    1.50    1.60
  12   0   5   -1.20    1.30
  12   0   5    0.90    1.90
  12   0   5    0.80    2.80
  12   0   5   -0.50    1.70
  13   0   5   41.20    3.80
  13   0   5   33.60    2.70
 -13   0  -5   33.10    3.60
  13   0   5   30.50    3.80
  13   0   5   39.00    5.40
  14   0   5    5.90    4.10
 -14   0  -5    2.60    1.90
  14   0   5    1.00    2.20
  14   0   5    0.60    1.90
 -15   0  -5   26.00    4.10
  15   0   5   16.70    3.00
  15   0   5   24.60    5.60
  15   0   5   19.70    3.80
 -15   0  -5   17.20    3.40
 -16   0  -5    2.60    2.50
  16   0   5   -7.70    8.00
 -16   0  -5   -3.20    4.20
  16   0   5    3.60    2.90
  16   0   5    0.40    2.80
  16  -1  -5   -2.30    2.40
  16  -1  -5    1.60    6.90
 -16  -1   5   -2.30    2.00
  16  -1  -5    2.80    2.70
  16   1  -5   -1.50    2.90
 -16   1   5    1.90    2.60
 -16   1   5   -0.40    4.30
  16   1  -5    1.60    5.10
  16   1  -5   -1.00    2.30
  15  -1  -5   -1.20    2.30
  15  -1  -5    1.10    2.10
 -15  -1   5    3.00    2.20
  15  -1  -5    0.30    2.20
  15  -1  -5   -2.50    4.60
 -15   1   5   -7.00    3.70
  15   1  -5   -3.30    2.40
  15   1  -5   -1.30    1.90
  15   1  -5    0.70    2.50
 -15   1   5   -0.10    1.90
  15   1  -5   -1.20    4.50
  14  -1  -5   51.79    4.60
  14  -1  -5   56.69    4.20
  14  -1  -5   51.09    7.90
  14  -1  -5   59.39    4.70
 -14  -1   5   49.30    4.20
 -14   1   5   53.39    6.40
  14   1  -5   55.99    4.60
  14   1  -5   49.90    4.30
  14   1  -5   54.69    4.50
  13  -1  -5    1.50    1.90
  13  -1  -5    4.30    2.00
  13  -1  -5   -0.80    3.30
  13  -1  -5   -0.60    1.70
 -13  -1   5    0.30    1.70
  13   1  -5    1.80    2.00
  13   1  -5   -0.60    3.10
  13   1  -5    2.30    2.30
  13   1  -5    3.80    2.10
 -13   1   5    1.00    2.50
  12  -1  -5  212.68    9.00
  12  -1  -5  220.98   11.10
  12  -1  -5  219.58    8.30
 -12  -1   5  207.08    8.70
  12  -1  -5  203.48    9.00
  12   1  -5  199.88    9.00
  12   1  -5  217.98    8.70
 -12   1   5  218.98   10.10
  12   1  -5  241.08   10.60
  12   1  -5  207.58    9.30
 -11  -1   5   38.40    3.10
  11  -1  -5   33.50    3.20
  11  -1  -5   39.00    4.80
  11  -1  -5   37.50    3.50
  11  -1  -5   32.10    3.20
  11   1  -5   33.40    3.20
  11   1  -5   37.80    3.60
 -11   1   5   41.90    4.20
  11   1  -5   40.50    4.50
  11   1  -5   34.20    3.60
  10  -1  -5    3.60    1.50
  10  -1  -5    0.00    1.90
  10  -1  -5    1.90    1.50
  10  -1  -5    0.40    1.50
 -10   1   5    3.70    1.70
  10   1  -5    4.50    2.10
  10   1  -5    3.10    1.70
  10   1  -5    1.30    1.80
  10   1  -5    5.20    2.00
  -9  -1   5    2.70    0.60
   9  -1  -5    2.20    1.90
   9  -1  -5    1.80    1.40
   9  -1  -5    3.10    1.60
   9  -1  -5   -0.40    1.10
   9   1  -5    1.10    1.70
  -9   1   5    3.30    1.60
   9   1  -5    2.10    1.40
   9   1  -5    2.10    1.60
   9   1  -5    2.00    1.70
  -8  -1   5    2.80    0.60
   8  -1  -5    3.20    1.20
   8  -1  -5    0.70    1.10
   8  -1  -5    1.40    1.50
   8  -1  -5    3.10    1.40
   8   1  -5    3.90    1.60
  -8   1   5    3.90    1.50
   8   1  -5    1.00    1.50
   8   1  -5    1.60    1.40
   8   1  -5    0.70    1.20
  -7  -1   5   37.20    1.90
   7  -1  -5   37.50    2.70
   7  -1  -5   37.80    3.60
   7  -1  -5   34.80    2.60
   7  -1  -5   39.80    2.60
   7   1  -5   38.60    2.80
   7   1  -5   37.80    3.10
  -7   1   5   34.40    3.10
   7   1  -5   31.50    2.70
   7   1  -5   32.40    2.40
   6  -1  -5   22.00    2.80
   6  -1  -5   26.00    2.30
  -6  -1   5   28.20    1.60
   6  -1  -5   26.70    2.10
   6  -1  -5   25.50    2.10
   6   1  -5   25.40    2.10
   6   1  -5   26.80    2.50
   6   1  -5   26.90    2.30
  -6   1   5   26.10    2.60
   6   1  -5   27.00    2.30
  -5  -1   5  421.46   12.80
   5  -1  -5  431.46   13.50
   5  -1  -5  434.86   13.60
   5  -1  -5  430.66   13.10
   5   1  -5  417.06   13.60
   5   1  -5  422.66   13.50
   5   1  -5  408.46   13.30
   5   1  -5  410.06   13.60
  -5   1   5  417.56   14.10
   4  -1  -5  374.26   12.00
   4  -1  -5  375.36   12.10
  -4  -1   5  362.86   11.50
   4  -1  -5  384.06   11.50
  -4   1   5  369.96   12.50
   4   1  -5  369.06   11.70
   4   1  -5  367.96   12.00
  -4   1   5  387.26   10.90
   4   1  -5  367.86   12.10
  -3  -1   5  362.96   11.60
   3  -1  -5  391.86   12.00
   3  -1  -5  358.46   12.10
   3  -1  -5  393.66   11.40
   3   1  -5  379.46   11.60
  -3   1   5  360.26   12.40
   3   1  -5  383.16   12.00
   3   1  -5  362.86   11.90
   3   1  -5  384.36   12.00
  -3   1   5  386.76   11.10
  -2  -1   5  149.99    5.30
   2  -1  -5  158.18    5.40
   2  -1  -5  143.59    5.60
   2  -1  -5  162.98    4.80
  -2  -1   5  146.49    5.20
   2   1  -5  151.28    5.30
  -2   1   5  150.58    5.80
   2   1  -5  151.68    5.50
   2   1  -5  150.28    5.10
  -2   1   5  156.88    4.90
   2   1  -5  159.58    5.50
   1  -1  -5  211.98    6.10
  -1  -1   5  198.48    6.90
  -1  -1   5  204.28    6.60
   1  -1  -5  198.58    7.10
   1  -1  -5  207.98    6.90
   1   1  -5  210.48    6.90
  -1   1   5  196.68    7.30
   1   1  -5  214.18    6.40
   1   1  -5  200.68    6.50
   1   1  -5  207.88    6.90
  -1   1   5  199.38    7.20
  -1   1   5  213.08    6.60
   0  -1   5  944.61   29.10
   0  -1  -5 1042.60   29.40
   0  -1  -5 1036.60   29.50
   0  -1  -5  996.90   29.60
   0  -1   5  979.90   29.60
   0   1   5 1055.29   29.30
   0   1   5  962.40   29.70
   0   1  -5  962.00   28.90
   0   1  -5 1025.10   29.50
   0   1  -5 1019.60   29.00
   0   1   5  998.00   29.90
   1  -1   5   39.70    2.40
  -1  -1  -5   39.30    2.10
   1  -1   5   45.10    1.50
  -1  -1  -5   38.10    2.30
  -1  -1  -5   33.10    2.00
   1  -1   5   40.30    2.10
  -1   1  -5   42.30    2.10
   1   1   5   33.80    2.30
   1   1   5   39.40    2.10
  -1   1  -5   42.20    1.50
   1   1   5   39.60    1.50
  -1   1  -5   43.60    1.90
   1   1   5   40.30    2.50
  -2  -1  -5   51.19    2.40
   2  -1   5   43.20    2.50
   2  -1   5   47.70    2.50
  -2  -1  -5   51.39    2.50
   2  -1   5   44.60    2.60
   2  -1   5   46.70    1.70
  -2  -1  -5   50.09    2.40
  -2   1  -5   44.20    1.80
   2   1   5   52.69    2.60
   2   1   5   51.39    2.00
   2   1   5   48.30    2.80
   2   1   5   50.79    2.80
  -2   1  -5   44.30    2.20
  -2   1  -5   46.00    2.40
   3  -1   5  907.11   28.00
   3  -1   5  963.60   27.90
   3  -1   5  977.90   27.10
   3  -1   5  931.41   28.10
  -3  -1  -5  974.70   27.80
  -3  -1  -5  948.21   27.80
   3   1   5  891.31   28.00
   3   1   5  918.01   28.10
   3   1   5  951.30   27.40
  -3   1  -5  948.81   27.70
   3   1   5  932.91   28.00
  -3   1  -5  914.21   27.30
  -4  -1  -5   91.99    3.70
   4  -1   5   81.09    3.70
   4  -1   5   83.39    3.10
   4  -1   5   82.19    4.00
  -4  -1  -5   93.59    3.80
   4  -1   5   81.69    3.80
   4   1   5   81.39    4.00
   4   1   5   91.49    3.50
   4   1   5   89.79    3.90
  -4   1  -5   84.89    3.30
   4   1   5   88.79    3.90
  -4   1  -5   82.99    3.60
   5  -1   5   38.40    2.50
   5  -1   5   37.90    2.60
   5  -1   5   38.10    2.80
  -5  -1  -5   29.90    2.20
   5  -1   5   39.10    2.00
   5   1   5   43.10    2.30
  -5   1  -5   34.50    2.10
   5   1   5   36.00    2.60
   5   1   5   38.90    2.50
   5   1   5   37.20    2.70
  -5   1  -5   38.40    2.40
   6  -1   5  113.49    5.50
   6  -1   5  112.39    4.90
   6  -1   5  119.99    4.30
  -6  -1  -5  116.09    4.90
   6  -1   5  114.59    4.90
   6   1   5  119.09    5.40
  -6   1  -5  115.49    4.60
   6   1   5  120.49    4.10
   6   1   5  117.89    5.00
   6   1   5  112.89    5.00
  -6   1  -5  109.69    4.90
   6   1   5  122.09    4.80
   7  -1   5  219.68    8.20
   7  -1   5  228.28    7.50
   7  -1   5  219.88    8.90
   7  -1   5  225.78    7.80
  -7  -1  -5  230.28    8.20
   7  -1   5  223.08    8.20
   7   1   5  224.28    8.00
   7   1   5  226.38    7.10
   7   1   5  212.28    8.20
  -7   1  -5  216.68    8.00
   7   1   5  219.88    8.30
  -7   1  -5  223.88    8.20
   7   1   5  221.68    8.70
  -8  -1  -5    5.10    1.50
   8  -1   5    7.50    1.60
   8  -1   5   11.10    2.30
   8  -1   5    9.20    1.70
   8  -1   5    9.60    1.60
   8  -1   5   10.20    2.00
   8   1   5    9.00    1.90
   8   1   5    8.60    1.80
   8   1   5    9.20    1.70
  -8   1  -5    7.50    1.60
   8   1   5    8.20    1.00
  -8   1  -5    9.90    1.60
   8   1   5    6.50    1.80
   9  -1   5    4.60    1.60
   9  -1   5    5.60    1.70
   9  -1   5    6.10    1.70
  -9  -1  -5    5.10    1.50
   9  -1   5    4.50    1.60
   9  -1   5    5.20    2.00
  -9   1  -5    3.40    1.30
   9   1   5    4.10    1.60
   9   1   5    4.40    1.70
  -9   1  -5    3.90    1.50
   9   1   5    4.40    1.70
   9   1   5    4.80    1.70
  10  -1   5    6.90    1.80
  10  -1   5    5.80    1.80
  10  -1   5    4.20    1.60
  10  -1   5    3.80    2.10
 -10  -1  -5    3.00    1.60
  10  -1   5    3.40    1.70
  10   1   5    5.10    2.00
  10   1   5    3.50    2.20
 -10   1  -5    5.90    1.80
  10   1   5    2.50    1.60
 -10   1  -5    4.10    1.60
  11  -1   5  344.07   11.90
  11  -1   5  327.37   12.60
  11  -1   5  349.07   12.10
  11  -1   5  358.76   14.20
 -11  -1  -5  338.97   12.60
  11  -1   5  337.97   11.60
 -11   1  -5  325.67   12.60
  11   1   5  325.17   12.50
 -11   1  -5  357.96   12.80
  11   1   5  340.07   12.50
  11   1   5  356.76   13.70
 -12  -1  -5  177.08    8.10
  12  -1   5  176.38    7.60
  12  -1   5  178.98    7.20
  12  -1   5  167.88    7.40
  12  -1   5  179.78   10.00
  12  -1   5  169.88    8.10
 -12   1  -5  180.78    8.30
  12   1   5  178.98    9.40
 -12   1  -5  178.18    8.20
  12   1   5  173.78    8.00
  12   1   5  186.98    8.20
  13  -1   5   18.30    2.70
 -13  -1  -5   18.00    3.10
  13  -1   5   23.50    3.20
  13  -1   5   15.20    2.60
  13  -1   5   18.50    4.30
  13  -1   5   18.00    3.20
  13   1   5   15.30    2.80
  13   1   5   13.60    3.00
  13   1   5   11.80    3.70
 -13   1  -5   16.00    3.10
 -13   1  -5   15.40    2.90
 -14  -1  -5   28.10    3.70
  14  -1   5   24.10    3.30
  14  -1   5   25.50    3.90
  14  -1   5   16.40    3.20
  14  -1   5   20.80    3.00
  14  -1   5   32.10    5.90
  14   1   5   24.20    4.90
  14   1   5   19.00    3.10
  14   1   5   18.00    3.20
 -14   1  -5   20.70    3.50
 -14   1  -5   23.30    3.70
  15  -1   5   37.30    4.00
  15  -1   5   38.10    4.70
  15  -1   5   41.10    6.70
 -15  -1  -5   34.30    4.40
  15  -1   5   39.40    3.90
  15  -1   5   30.90    4.20
  15   1   5   31.70    4.40
  15   1   5   31.80    4.30
 -15   1  -5   41.00    4.70
  15   1   5   38.30    6.00
 -15   1  -5   50.89    6.30
 -16  -1  -5    8.80    2.70
  16  -1   5    6.60    3.10
  16  -1   5   10.00    2.60
  16  -1   5    9.20    3.50
 -16   1  -5   12.30    4.60
  16   1   5   16.40    7.20
 -16   1  -5    6.60    2.60
  16   1   5    6.40    2.90
  16   1   5   11.80    3.10
  15  -2  -5    1.40    2.40
 -15  -2   5    2.50    2.00
  15  -2  -5   -0.90    3.20
  15  -2  -5    7.80    5.70
  15  -2  -5   -0.50    2.40
 -15   2   5    8.10    4.60
  15   2  -5    1.90    2.50
  15   2  -5   -0.90    4.50
  15   2  -5    3.70    3.00
 -14  -2   5    4.60    2.00
  14  -2  -5    7.20    4.80
  14  -2  -5    0.90    2.20
  14  -2  -5   -0.10    2.90
  14  -2  -5    3.10    2.30
  14   2  -5    4.50    3.50
  14   2  -5    6.50    2.90
  14   2  -5    5.40    2.50
 -14   2   5    3.50    3.60
 -13  -2   5   27.60    3.40
  13  -2  -5   28.20    3.50
  13  -2  -5   31.90    3.80
  13  -2  -5   30.10    4.30
  13   2  -5   39.00    5.10
  13   2  -5   28.90    3.80
  13   2  -5   23.40    3.60
 -13   2   5   39.70    5.80
  12  -2  -5    5.20    2.20
  12  -2  -5    9.10    2.00
  12  -2  -5    6.50    2.50
  12  -2  -5    8.90    3.60
 -12  -2   5    6.70    2.00
 -12   2   5   10.80    2.80
  12   2  -5    5.60    2.50
  12   2  -5    8.00    2.50
  12   2  -5    2.80    2.90
  11  -2  -5  116.39    6.20
  11  -2  -5  121.19    7.90
 -11  -2   5  117.39    5.50
  11  -2  -5  107.19    5.80
  11  -2  -5  111.99    6.10
 -11   2   5  124.79    7.40
  11   2  -5  114.99    6.30
  11   2  -5  118.29    6.90
  11   2  -5  108.19    6.50
  10  -2  -5  492.65   17.20
  10  -2  -5  549.35   19.60
 -10  -2   5  504.45   16.80
  10  -2  -5  543.05   17.70
  10  -2  -5  503.45   17.60
 -10   2   5  537.45   18.80
  10   2  -5  512.05   18.30
  10   2  -5  518.55   17.90
  10   2  -5  536.55   18.10
  -9  -2   5    2.30    1.50
   9  -2  -5    1.60    1.40
   9  -2  -5    1.90    1.70
   9  -2  -5    2.10    1.90
   9  -2  -5    2.50    1.50
   9   2  -5    1.20    1.80
   9   2  -5    2.90    2.10
   9   2  -5    2.00    1.60
  -9   2   5    5.50    1.80
   8  -2  -5   47.60    3.20
  -8  -2   5   50.29    3.10
   8  -2  -5   52.29    3.50
  -8  -2   5   51.49    2.40
   8  -2  -5   56.29    3.80
   8   2  -5   52.99    3.80
  -8   2   5   53.69    4.30
   8   2  -5   60.19    4.00
   8   2  -5   49.80    3.70
   8   2  -5   50.09    3.80
   7  -2  -5   -1.00    1.00
  -7  -2   5   -0.60    0.90
  -7  -2   5   -0.20    0.70
   7  -2  -5   -0.30    1.10
   7  -2  -5    0.10    1.00
   7   2  -5    1.90    1.70
   7   2  -5   -0.90    1.70
  -7   2   5   -0.30    1.30
   7   2  -5   -0.80    1.10
   7   2  -5    1.10    1.10
   6  -2  -5   22.50    2.30
   6  -2  -5   24.20    2.60
   6  -2  -5   19.60    2.00
  -6  -2   5   20.50    1.90
   6   2  -5   18.50    2.40
   6   2  -5   26.50    2.60
   6   2  -5   24.30    2.10
   6   2  -5   20.90    2.50
  -6   2   5   24.10    2.80
  -5  -2   5   51.19    2.80
   5  -2  -5   55.59    3.30
   5  -2  -5   51.09    3.40
   5  -2  -5   54.79    2.70
   5   2  -5   49.90    3.30
   5   2  -5   55.69    3.40
   5   2  -5   50.59    3.20
  -5   2   5   51.89    3.70
   4  -2  -5  327.07   10.90
   4  -2  -5  314.97   11.20
  -4  -2   5  312.27   10.40
   4  -2  -5  335.57   10.20
   4   2  -5  320.57   10.90
   4   2  -5  307.47   11.00
  -4   2   5  320.07    9.70
  -4   2   5  320.47   11.60
   4   2  -5  314.17   11.00
   3  -2  -5  134.99    5.70
   3  -2  -5  135.79    4.70
   3  -2  -5  131.79    5.40
  -3  -2   5  127.39    5.10
  -3  -2   5  128.89    4.30
   3   2  -5  128.99    5.30
  -3   2   5  125.89    5.90
   3   2  -5  131.69    5.50
   3   2  -5  130.49    5.60
  -3   2   5  132.49    4.60
   2  -2  -5    7.70    1.50
   2  -2  -5    6.70    1.50
  -2  -2   5    6.20    1.30
   2  -2  -5    8.10    1.00
   2   2  -5    7.40    1.50
  -2   2   5    4.90    1.40
  -2   2   5    8.50    1.30
   2   2  -5    6.20    1.40
   2   2  -5    9.20    1.40
   1  -2  -5   22.50    1.50
   1  -2  -5   21.90    2.20
  -1  -2   5   22.50    1.80
  -1  -2   5   19.40    2.00
   1  -2  -5   15.20    1.90
   1   2  -5   21.70    1.80
  -1   2   5   25.40    1.90
  -1   2   5   23.60    2.30
  -1   2   5   21.60    2.40
   1   2  -5   23.90    2.20
   0  -2   5  158.18    5.10
   0  -2   5  155.68    6.30
   0  -2  -5  161.28    6.30
   0  -2   5  165.08    5.60
   0  -2  -5  162.18    6.10
   0   2  -5  160.08    5.80
   0   2  -5  157.88    6.00
   0   2   5  154.18    6.50
   0   2  -5  162.08    5.00
   0   2   5  156.28    6.20
   0   2   5  162.08    5.90
  -1  -2  -5   60.19    3.30
  -1  -2  -5   54.39    3.10
   1  -2   5   64.09    2.80
   1  -2   5   63.29    2.70
   1  -2   5   62.89    3.50
  -1  -2  -5   64.99    3.10
   1   2   5   58.79    3.70
  -1   2  -5   62.89    3.10
   1   2   5   61.29    3.30
  -1   2  -5   61.19    2.40
   1   2   5   65.49    3.30
  -1   2  -5   60.29    2.90
  -2  -2  -5  623.84   19.10
   2  -2   5  593.14   19.70
  -2  -2  -5  593.04   19.30
  -2  -2  -5  649.04   19.50
   2  -2   5  658.33   18.70
   2  -2   5  642.54   19.50
   2  -2   5  629.84   19.00
  -2   2  -5  618.74   19.00
   2   2   5  602.04   19.90
   2   2   5  610.44   19.40
   2   2   5  635.54   18.70
  -2   2  -5  633.94   19.20
  -2   2  -5  646.04   18.60
   3  -2   5    5.40    1.40
  -3  -2  -5    3.60    1.20
  -3  -2  -5    5.00    1.20
   3  -2   5    3.60    1.10
  -3  -2  -5    7.40    1.50
   3  -2   5    4.60    1.30
   3  -2   5    5.10    1.00
   3   2   5    3.50    1.40
  -3   2  -5    3.60    0.90
  -3   2  -5    4.60    1.10
  -3   2  -5    3.50    0.90
   3   2   5    3.20    1.10
   3   2   5    3.10    1.20
   4  -2   5  128.79    5.40
  -4  -2  -5  134.79    5.10
   4  -2   5  126.09    5.80
   4  -2   5  125.79    5.40
  -4  -2  -5  130.89    5.40
   4  -2   5  132.89    4.70
  -4  -2  -5  127.49    5.00
   4   2   5  129.29    5.60
   4   2   5  128.29    5.70
   4   2   5  130.69    5.00
   4   2   5  126.89    5.40
  -4   2  -5  132.39    5.00
  -4   2  -5  126.19    5.00
  -4   2  -5  124.59    4.90
  -5  -2  -5  321.27   10.90
  -5  -2  -5  316.27   10.50
   5  -2   5  322.07   10.10
   5  -2   5  313.47   11.10
   5  -2   5  307.67   10.90
  -5  -2  -5  305.27   10.10
   5  -2   5  310.87   11.30
   5   2   5  307.67   10.40
   5   2   5  311.57   10.80
  -5   2  -5  308.57   10.50
  -5   2  -5  320.87   10.30
  -5   2  -5  322.27   10.50
   5   2   5  318.07   11.30
   6  -2   5   51.69    3.70
  -6  -2  -5   52.19    3.10
   6  -2   5   50.49    3.60
   6  -2   5   50.39    2.70
   6  -2   5   51.09    3.30
  -6  -2  -5   49.80    3.20
  -6   2  -5   51.69    3.10
   6   2   5   49.80    3.30
   6   2   5   49.60    3.00
   6   2   5   47.90    3.40
   6   2   5   49.10    3.60
  -6   2  -5   55.09    3.10
   7  -2   5    1.40    1.20
   7  -2   5    2.00    1.50
   7  -2   5    0.40    1.40
  -7  -2  -5    2.00    1.50
  -7  -2  -5    2.50    1.40
   7  -2   5    3.70    1.70
   7   2   5   -0.70    1.30
  -7   2  -5    0.50    1.20
   7   2   5    3.50    1.60
  -7   2  -5    3.10    1.20
   7   2   5    2.20    1.70
   7   2   5    2.50    1.30
   8  -2   5   11.10    2.00
   8  -2   5   15.50    2.70
   8  -2   5   15.20    2.60
  -8  -2  -5   12.40    2.00
   8  -2   5   16.30    2.20
   8   2   5   13.60    2.20
   8   2   5   13.70    1.40
   8   2   5   11.40    2.10
  -8   2  -5   13.10    2.00
   8   2   5   11.30    2.30
   8   2   5   11.60    2.10
  -8   2  -5   14.80    2.10
  -9  -2  -5    2.20    1.50
   9  -2   5    0.50    1.50
   9  -2   5   -0.90    1.60
   9  -2   5    1.70    2.40
   9  -2   5    0.20    1.30
   9  -2   5    2.60    1.60
   9   2   5    2.90    1.80
  -9   2  -5    2.40    1.30
  -9   2  -5   -2.20    1.50
   9   2   5    2.60    1.60
   9   2   5    1.10    1.80
   9   2   5    1.10    1.60
  10  -2   5  334.97   13.00
  10  -2   5  375.06   14.40
  10  -2   5  388.26   11.90
 -10  -2  -5  335.27   12.60
  10  -2   5  354.26   13.10
  10  -2   5  357.96   12.00
 -10   2  -5  354.46   12.90
  10   2   5  324.67   13.10
  10   2   5  345.07   12.80
  10   2   5  363.16   13.60
  10   2   5  369.66   13.50
 -10   2  -5  340.67   12.90
  11  -2   5   13.80    2.00
  11  -2   5   12.60    2.70
  11  -2   5   11.60    3.50
 -11  -2  -5   11.30    2.30
  11  -2   5    9.90    2.60
  11  -2   5   14.00    2.10
 -11   2  -5    9.50    2.00
  11   2   5    8.80    2.60
  11   2   5    7.10    2.70
  11   2   5   16.20    3.00
  11   2   5   10.60    2.60
 -11   2  -5   11.90    2.50
 -12  -2  -5   34.70    3.80
  12  -2   5   42.40    5.20
  12  -2   5   39.70    5.40
  12  -2   5   48.90    3.40
  12  -2   5   43.20    3.40
  12  -2   5   37.60    3.90
 -12   2  -5   37.00    3.80
  12   2   5   42.90    4.00
  12   2   5   34.30    5.40
  12   2   5   39.00    4.20
 -12   2  -5   34.20    4.50
  13  -2   5    6.60    2.30
  13  -2   5    1.50    2.00
 -13  -2  -5    1.50    2.00
  13  -2   5   -1.90    4.00
  13  -2   5    2.50    2.20
  13  -2   5   -1.20    2.80
  13   2   5   -4.10    1.90
 -13   2  -5   -0.60    1.60
  13   2   5    4.70    2.40
 -13   2  -5    5.10    2.60
  13   2   5    3.30    3.70
  14  -2   5    4.10    2.70
 -14  -2  -5    7.10    2.50
  14  -2   5    0.10    2.80
  14  -2   5    6.10    2.50
  14  -2   5   -3.30    5.30
  14  -2   5    4.90    2.50
 -14   2  -5   11.40    3.60
  14   2   5    0.70    2.60
 -14   2  -5    6.80    2.60
  14   2   5   -6.50    4.30
  14   2   5    1.00    2.50
  15  -2   5   -0.60    2.60
  15  -2   5   13.60    7.60
  15  -2   5   -2.60    2.30
 -15  -2  -5    1.40    2.30
  15  -2   5    5.30    3.40
  15  -2   5   -0.20    3.10
  15   2   5    0.70    3.30
  15   2   5    1.40    2.80
 -15   2  -5    2.80    3.80
 -15   2  -5   -1.50    1.80
  15   2   5    1.30    5.40
  14  -3  -5   13.00    3.10
  14  -3  -5   18.50    4.20
  14  -3  -5   11.00    2.60
 -14  -3   5   13.50    2.90
  14   3  -5   22.10    4.50
  14   3  -5   20.60    4.00
 -14   3   5   11.00    4.80
  14   3  -5   15.30    4.00
 -13  -3   5   57.39    4.40
  13  -3  -5   53.29    5.00
  13  -3  -5   57.59    6.30
  13  -3  -5   62.59    4.70
  13   3  -5   53.19    6.30
  13   3  -5   54.09    5.20
  13   3  -5   63.69    5.70
 -13   3   5   51.29    7.90
  12  -3  -5   20.30    3.20
 -12  -3   5   22.70    3.00
  12  -3  -5   22.30    3.80
  12  -3  -5   21.10    3.30
 -12   3   5   23.80    4.30
  12   3  -5   21.90    3.30
  12   3  -5   22.40    4.00
  12   3  -5   21.20    3.80
  11  -3  -5   98.09    6.00
  11  -3  -5  102.49    5.50
 -11  -3   5  104.89    5.10
  11  -3  -5   87.39    6.60
  11   3  -5  104.69    6.60
  11   3  -5  100.19    6.50
 -11   3   5  107.19    7.80
  11   3  -5  113.49    6.40
 -10  -3   5   49.99    3.40
  10  -3  -5   45.40    4.00
  10  -3  -5   48.80    3.60
  10  -3  -5   42.20    5.00
  10   3  -5   47.80    4.30
  10   3  -5   44.70    4.60
 -10   3   5   41.40    5.50
  10   3  -5   43.00    4.40
  10   3  -5   47.60    4.80
   9  -3  -5  163.38    8.00
  -9  -3   5  167.68    6.30
   9  -3  -5  149.49    7.30
   9  -3  -5  155.78    6.90
  -9  -3   5  161.78    6.00
   9   3  -5  165.58    8.10
   9   3  -5  174.48    7.20
  -9   3   5  167.48    8.80
   9   3  -5  158.28    7.90
   9   3  -5  156.18    7.90
  -8  -3   5   40.70    2.60
   8  -3  -5   34.30    2.90
   8  -3  -5   27.00    4.00
   8  -3  -5   35.50    3.30
  -8  -3   5   35.30    3.00
  -8   3   5   38.80    4.50
   8   3  -5   43.60    3.30
   8   3  -5   32.90    3.70
   8   3  -5   38.60    3.80
   8   3  -5   37.80    3.80
   7  -3  -5   81.09    4.70
   7  -3  -5   83.89    5.60
  -7  -3   5   82.79    3.50
   7  -3  -5   84.09    4.20
  -7  -3   5   80.79    4.20
   7   3  -5   69.69    5.00
  -7   3   5   82.39    5.60
   7   3  -5   74.09    5.00
   7   3  -5   91.69    5.20
  -6  -3   5  156.88    5.00
   6  -3  -5  147.39    7.20
   6  -3  -5  135.79    6.50
   6  -3  -5  150.98    6.00
  -6  -3   5  148.19    6.10
   6   3  -5  147.89    6.90
   6   3  -5  146.29    7.00
   6   3  -5  152.68    6.90
  -6   3   5  146.29    4.80
  -6   3   5  147.89    7.60
   5  -3  -5   70.79    4.90
   5  -3  -5   76.39    3.70
   5  -3  -5   68.29    4.10
  -5  -3   5   69.39    4.00
  -5   3   5   71.59    3.10
   5   3  -5   71.89    4.50
  -5   3   5   69.29    5.10
   5   3  -5   64.69    4.30
   5   3  -5   65.59    4.40
   4  -3  -5  468.15   16.30
  -4  -3   5  464.95   15.40
   4  -3  -5  471.25   15.80
   4  -3  -5  478.95   14.90
  -4  -3   5  469.45   15.50
  -4   3   5  478.45   16.70
  -4   3   5  486.35   14.60
   4   3  -5  442.86   15.80
   4   3  -5  470.65   15.80
   4   3  -5  466.15   16.00
  -3  -3   5   60.09    3.70
   3  -3  -5   64.99    4.30
   3  -3  -5   59.69    3.70
  -3  -3   5   61.99    3.50
   3  -3  -5   64.49    3.10
  -3   3   5   60.59    3.20
   3   3  -5   59.29    3.90
   3   3  -5   56.99    3.70
  -3   3   5   57.69    4.40
   3   3  -5   59.19    3.80
   2  -3  -5   13.50    1.70
   2  -3  -5   13.70    2.00
  -2  -3   5    8.10    1.60
  -2  -3   5   16.50    2.00
   2  -3  -5   13.90    2.50
  -2   3   5    8.40    1.70
   2   3  -5   11.30    1.80
  -2   3   5   13.20    1.80
  -2   3   5   16.80    2.50
   2   3  -5   12.40    2.20
  -1  -3   5    3.20    1.40
   1  -3  -5    4.30    1.70
   1  -3  -5    5.70    1.50
   1  -3  -5    4.00    1.20
  -1  -3   5    5.60    1.50
  -1   3   5    4.10    1.40
  -1   3   5    3.20    1.40
   1   3  -5    6.30    1.50
  -1   3   5    4.00    1.50
   1   3  -5    3.40    1.20
   0  -3   5   58.39    3.10
   0  -3   5   51.09    3.50
   0  -3  -5   45.00    3.20
   0  -3  -5   47.70    3.80
   0   3   5   49.50    3.20
   0   3   5   48.70    3.10
   0   3  -5   50.19    3.40
   0   3  -5   43.00    3.00
   0   3   5   46.40    3.80
   1  -3   5   25.10    1.70
  -1  -3  -5   32.50    2.90
   1  -3   5   25.50    2.30
  -1  -3  -5   29.70    2.70
   1  -3   5   24.60    2.80
  -1   3  -5   27.80    1.50
   1   3   5   27.80    2.60
   1   3   5   29.30    2.50
   1   3   5   26.90    3.30
  -1   3  -5   25.10    2.60
  -1   3  -5   27.90    2.50
   2  -3   5  325.07   10.50
   2  -3   5  301.47   10.10
  -2  -3  -5  303.97   11.10
  -2  -3  -5  302.97   11.00
  -2  -3  -5  318.47   10.40
   2  -3   5  311.17   11.10
   2  -3   5  298.47   11.40
  -2   3  -5  302.77   10.70
  -2   3  -5  307.67   10.80
   2   3   5  317.17   11.20
   2   3   5  316.87   10.70
  -2   3  -5  317.67    9.70
   2   3   5  316.37   11.70
   3  -3   5  146.19    5.70
  -3  -3  -5  147.69    5.70
  -3  -3  -5  137.19    6.20
   3  -3   5  145.49    6.80
   3  -3   5  135.99    6.10
   3  -3   5  138.49    5.70
  -3  -3  -5  139.89    6.00
   3   3   5  137.69    6.70
   3   3   5  147.29    5.70
  -3   3  -5  147.09    5.90
  -3   3  -5  143.19    6.00
   3   3   5  138.99    6.40
  -3   3  -5  141.59    5.10
   3   3   5  145.39    5.90
   4  -3   5   11.90    1.80
  -4  -3  -5   16.80    2.10
   4  -3   5   12.20    2.50
   4  -3   5   15.60    2.20
  -4  -3  -5   10.40    1.90
   4  -3   5   15.00    2.30
  -4  -3  -5   12.90    2.10
  -4   3  -5   16.80    1.80
   4   3   5   15.40    2.40
   4   3   5   15.30    2.50
   4   3   5   15.10    2.20
  -4   3  -5   13.50    2.20
  -4   3  -5   14.70    2.00
   4   3   5   16.70    2.60
  -5  -3  -5    2.80    1.60
  -5  -3  -5   -1.00    1.40
   5  -3   5    3.10    1.60
  -5  -3  -5    0.20    1.40
   5  -3   5    1.10    1.30
   5  -3   5    4.70    1.90
   5  -3   5    0.10    1.30
   5   3   5    1.80    1.60
   5   3   5   -1.80    1.40
   5   3   5    1.90    1.40
  -5   3  -5    1.40    1.50
   5   3   5    1.70    1.30
  -5   3  -5   -0.40    1.10
  -5   3  -5    1.20    1.20
   6  -3   5   29.70    2.50
   6  -3   5   27.40    3.50
  -6  -3  -5   30.10    2.70
  -6  -3  -5   23.30    2.70
   6  -3   5   24.80    2.70
   6  -3   5   27.10    3.50
  -6  -3  -5   25.80    2.70
  -6   3  -5   27.60    2.50
   6   3   5   23.70    3.80
   6   3   5   27.80    3.20
  -6   3  -5   27.30    2.90
   6   3   5   27.40    2.90
  -6   3  -5   27.10    2.50
   6   3   5   29.00    2.80
   7  -3   5   25.60    2.50
   7  -3   5   22.60    3.00
  -7  -3  -5   24.20    2.90
   7  -3   5   25.20    3.90
   7  -3   5   27.90    4.00
  -7  -3  -5   26.00    2.70
  -7  -3  -5   25.10    2.50
   7   3   5   28.80    3.10
   7   3   5   22.80    3.20
  -7   3  -5   22.70    2.50
   7   3   5   19.10    3.00
  -7   3  -5   23.50    3.00
   7   3   5   25.90    3.00
   8  -3   5   22.70    2.60
   8  -3   5   24.00    3.60
  -8  -3  -5   21.80    3.00
  -8  -3  -5   19.30    2.60
   8  -3   5   19.00    3.00
   8  -3   5   16.50    2.60
   8   3   5   20.80    3.00
  -8   3  -5   24.70    3.10
   8   3   5   25.30    3.40
  -8   3  -5   22.00    2.50
   8   3   5   21.50    3.20
   8   3   5   17.80    2.80
   9  -3   5    0.10    1.70
  -9  -3  -5    2.30    1.60
   9  -3   5    3.20    1.60
   9  -3   5    1.90    2.90
  -9  -3  -5    3.30    1.90
  -9   3  -5   -0.80    1.40
   9   3   5    1.40    2.10
   9   3   5    0.20    2.00
   9   3   5    4.40    2.40
  -9   3  -5    5.50    2.20
   9   3   5    5.20    2.10
  10  -3   5    5.30    1.80
  10  -3   5    3.50    2.00
  10  -3   5    4.70    1.90
  10  -3   5    5.90    3.30
 -10  -3  -5    3.00    2.00
 -10  -3  -5   -0.10    1.90
  10  -3   5    2.90    2.70
  10   3   5    5.10    2.60
 -10   3  -5    4.60    1.90
  10   3   5    3.40    2.60
  10   3   5    2.80    2.50
  10   3   5    3.70    2.10
 -10   3  -5    0.80    2.20
  11  -3   5    3.40    2.00
  11  -3   5    4.90    1.90
  11  -3   5    3.10    2.10
  11  -3   5   -0.70    3.20
  11  -3   5   -0.20    3.60
 -11  -3  -5    3.00    2.00
 -11  -3  -5    5.00    2.20
  11   3   5    4.80    2.70
  11   3   5    4.60    2.70
  11   3   5   -1.60    3.00
 -11   3  -5    4.60    1.80
 -11   3  -5    0.80    2.50
  11   3   5    0.10    2.00
  12  -3   5   35.80    3.40
 -12  -3  -5   38.40    3.90
 -12  -3  -5   36.90    3.90
  12  -3   5   45.00    5.90
  12  -3   5   36.50    3.80
  12  -3   5   53.49    7.70
  12  -3   5   37.10    4.10
  12   3   5   32.50    4.30
  12   3   5   36.70    4.50
 -12   3  -5   35.20    4.50
  12   3   5   33.70    5.00
 -12   3  -5   36.50    3.90
  12   3   5   40.10    5.90
  13  -3   5   15.30    3.50
  13  -3   5   20.30    3.00
  13  -3   5   22.70    4.40
 -13  -3  -5   15.30    2.70
  13  -3   5   20.80    5.90
  13  -3   5   15.70    3.20
 -13  -3  -5   19.80    3.30
  13   3   5   14.00    2.90
  13   3   5   16.50    3.30
 -13   3  -5   17.10    2.90
 -13   3  -5   20.10    4.30
  13   3   5   19.30    4.10
  13   3   5   11.50    4.20
  14  -3   5   -1.50    5.90
  14  -3   5   -6.50    3.80
 -14  -3  -5    3.20    2.50
  14  -3   5   -1.40    2.10
 -14  -3  -5    1.30    2.30
  14  -3   5    0.10    2.70
  14   3   5    1.60    4.80
  14   3   5   -1.20    2.90
  14   3   5    0.60    2.90
 -14   3  -5    6.40    2.50
 -14   3  -5    5.10    4.10
  13  -4  -5    5.30    3.10
  13  -4  -5   11.60    5.20
 -13   4   5   14.40    6.70
  12  -4  -5   14.00    3.30
  12  -4  -5   15.90    3.10
 -12  -4   5   12.40    2.80
  12  -4  -5   13.90    4.70
 -12   4   5   23.20    5.60
  12   4  -5   10.80    3.30
  12   4  -5   12.30    3.70
 -11  -4   5    2.50    2.30
  11  -4  -5    3.50    2.60
  11  -4  -5   -2.70    3.40
  11  -4  -5    0.20    2.10
 -11   4   5   -1.90    4.30
  11   4  -5    1.20    2.40
  11   4  -5    1.40    2.80
  11   4  -5   -3.50    3.10
 -10  -4   5   40.20    3.40
 -10  -4   5   41.50    3.70
 -10  -4   5   37.10    4.00
  10  -4  -5   43.90    6.20
  10  -4  -5   33.20    3.90
  10  -4  -5   34.20    3.70
  10   4  -5   33.00    4.50
 -10   4   5   46.20    7.10
  10   4  -5   32.40    4.60
  10   4  -5   33.00    4.40
   9  -4  -5   55.99    4.60
  -9  -4   5   61.59    4.20
   9  -4  -5   57.39    6.60
  -9  -4   5   54.89    4.60
  -9  -4   5   59.79    3.50
   9  -4  -5   61.59    4.20
  -9   4   5   73.19    7.30
   9   4  -5   57.19    5.00
   9   4  -5   59.39    5.80
   9   4  -5   54.99    5.10
   8  -4  -5    1.00    1.80
  -8  -4   5    2.80    2.20
   8  -4  -5    3.00    2.20
  -8  -4   5    4.10    2.10
  -8  -4   5    8.50    1.70
   8  -4  -5    4.20    3.10
  -8   4   5    7.50    2.80
   8   4  -5    3.40    2.40
   8   4  -5    1.90    2.30
   8   4  -5    0.20    2.60
  -7  -4   5   47.90    4.30
   7  -4  -5   50.79    3.70
   7  -4  -5   62.09    5.90
  -7  -4   5   50.09    4.10
   7  -4  -5   48.60    4.30
  -7   4   5   52.99    2.70
   7   4  -5   48.10    4.60
  -7   4   5   46.80    5.80
   7   4  -5   51.89    4.80
   7   4  -5   44.20    4.60
   6  -4  -5  158.88    7.70
  -6  -4   5  174.58    7.50
  -6  -4   5  156.98    7.50
   6  -4  -5  161.38    6.80
   6  -4  -5  165.58    8.80
  -6   4   5  162.98    9.00
  -6   4   5  163.48    6.10
   6   4  -5  151.58    7.90
   6   4  -5  169.88    8.20
   6   4  -5  166.38    8.00
   5  -4  -5   90.89    5.40
  -5  -4   5   84.39    5.10
  -5  -4   5   93.69    5.40
   5  -4  -5   93.79    6.60
   5  -4  -5   88.59    4.60
  -5   4   5   98.99    6.50
   5   4  -5   90.79    5.60
  -5   4   5   92.69    4.40
   5   4  -5   93.99    5.70
   5   4  -5   87.59    5.70
   4  -4  -5  128.19    5.60
  -4  -4   5  125.69    6.60
   4  -4  -5  122.59    6.50
   4  -4  -5  128.09    7.30
  -4  -4   5  123.89    6.10
  -4   4   5  128.19    5.50
  -4   4   5  132.59    7.40
   4   4  -5  116.49    6.50
   4   4  -5  126.19    6.50
  -3  -4   5   25.90    3.40
   3  -4  -5   23.60    3.00
   3  -4  -5   25.50    2.50
  -3  -4   5   23.00    2.90
   3  -4  -5   28.20    3.90
  -3   4   5   25.70    2.90
   3   4  -5   23.40    3.20
  -3   4   5   22.60    3.70
  -3   4   5   21.70    3.10
   3   4  -5   26.10    3.30
  -2  -4   5  114.49    5.50
   2  -4  -5  111.79    5.00
  -2  -4   5  118.49    6.30
   2  -4  -5  101.59    5.60
   2  -4  -5   90.59    6.20
   2   4  -5  104.59    5.90
   2   4  -5  109.69    5.80
  -2   4   5  116.09    5.80
  -2   4   5  109.19    5.40
  -1  -4   5  407.66   14.60
  -1  -4   5  391.66   13.60
   1  -4  -5  387.36   14.30
   1  -4  -5  422.76   14.90
   1  -4  -5  406.06   13.10
  -1   4   5  394.26   13.60
   1   4  -5  398.26   14.20
  -1   4   5  400.86   13.80
  -1   4   5  339.37   14.80
   1   4  -5  404.86   14.10
   0  -4   5   35.10    3.10
   0  -4  -5   39.40    4.50
   0  -4   5   41.00    4.40
   0  -4  -5   32.70    3.30
   0   4   5   39.40    3.30
   0   4   5   25.70    3.70
   0   4  -5   36.40    3.50
   0   4  -5   37.00    3.60
   0   4   5   40.50    3.40
   1  -4   5  121.99    5.70
  -1  -4  -5  129.89    6.60
   1  -4   5  119.49    6.80
  -1  -4  -5  113.29    6.10
   1   4   5  119.79    5.90
   1   4   5  102.39    6.70
  -1   4  -5  119.99    6.00
   1   4   5  123.79    5.50
  -1   4  -5  119.99    5.90
  -2  -4  -5    4.10    1.90
   2  -4   5    9.00    2.00
  -2  -4  -5    3.00    1.70
   2  -4   5    4.40    1.90
   2  -4   5    6.60    2.30
   2   4   5    7.30    2.30
  -2   4  -5    9.80    2.10
  -2   4  -5    5.20    1.90
   2   4   5    0.20    2.50
   2   4   5    4.80    1.80
  -2   4  -5    8.40    1.20
   3  -4   5   12.90    2.30
  -3  -4  -5   14.30    2.80
  -3  -4  -5   15.20    2.80
   3  -4   5   14.10    3.00
   3  -4   5   12.10    2.30
  -3   4  -5   15.70    2.70
   3   4   5    9.70    2.50
   3   4   5   16.20    2.50
  -3   4  -5   13.30    1.50
  -3   4  -5   19.30    2.60
   3   4   5   13.50    2.90
   4  -4   5   -0.40    1.70
   4  -4   5    2.30    1.70
   4  -4   5   -1.50    2.20
  -4  -4  -5    0.10    1.70
  -4  -4  -5   -0.90    1.60
   4  -4   5    1.70    1.70
  -4  -4  -5    2.50    2.00
   4   4   5   -3.10    1.60
  -4   4  -5   -0.10    1.70
   4   4   5    1.80    2.00
  -4   4  -5    0.10    1.90
   4   4   5    2.30    1.30
  -4   4  -5    1.60    1.20
   4   4   5   -0.50    2.00
   5  -4   5   21.90    3.00
   5  -4   5   19.00    2.60
   5  -4   5   17.40    3.10
  -5  -4  -5   24.30    2.80
  -5  -4  -5   18.70    2.90
  -5  -4  -5   20.50    2.80
   5  -4   5   27.10    3.80
  -5   4  -5   20.40    2.70
   5   4   5   23.60    3.80
   5   4   5   20.70    3.30
  -5   4  -5   20.20    2.40
   5   4   5   23.60    2.90
  -5   4  -5   20.90    3.00
   5   4   5   22.30    3.00
  -6  -4  -5    4.60    2.10
   6  -4   5    8.80    2.10
   6  -4   5    6.60    2.60
   6  -4   5    5.00    2.60
   6  -4   5    4.50    1.90
  -6  -4  -5    9.50    2.40
  -6  -4  -5    4.70    1.90
  -6   4  -5    9.30    2.00
   6   4   5    3.80    2.20
  -6   4  -5    5.50    2.10
   6   4   5    7.10    2.30
   6   4   5    6.20    2.00
   6   4   5    6.80    2.60
  -6   4  -5    8.00    1.70
   7  -4   5    5.90    2.70
   7  -4   5    6.40    1.90
   7  -4   5    7.00    2.70
  -7  -4  -5    2.80    2.00
   7  -4   5    2.20    2.40
  -7  -4  -5    4.40    2.10
  -7  -4  -5    2.30    2.00
   7   4   5    4.60    2.40
  -7   4  -5    3.60    1.90
  -7   4  -5    3.20    2.10
   7   4   5    0.20    2.20
   7   4   5    1.30    1.80
  -7   4  -5    4.00    1.70
   7   4   5    4.90    2.70
  -8  -4  -5    7.30    2.00
   8  -4   5    4.10    3.50
   8  -4   5    7.50    2.20
   8  -4   5   10.00    2.80
   8  -4   5    1.20    2.90
  -8  -4  -5    5.60    2.10
  -8  -4  -5    7.70    2.30
   8   4   5    2.70    3.30
   8   4   5    5.40    2.20
   8   4   5    8.20    2.80
  -8   4  -5   12.80    2.80
   8   4   5    5.70    2.70
  -8   4  -5    4.40    1.90
   9  -4   5   14.00    2.70
   9  -4   5    9.00    2.40
  -9  -4  -5   19.30    2.80
   9  -4   5   14.20    3.80
  -9  -4  -5   13.20    2.70
   9  -4   5   15.20    4.00
   9   4   5   15.30    3.40
   9   4   5   14.90    2.80
  -9   4  -5   15.30    3.10
   9   4   5   15.90    3.20
   9   4   5    8.30    3.20
  -9   4  -5   14.70    2.50
 -10  -4  -5    3.30    2.40
  10  -4   5   -3.60    3.50
  10  -4   5    0.30    4.10
  10  -4   5   -0.70    2.20
  10  -4   5    4.30    2.50
 -10  -4  -5    1.70    2.10
 -10   4  -5    6.10    2.80
 -10   4  -5    6.70    2.30
  10   4   5    3.20    3.70
  10   4   5    2.90    2.90
  10   4   5    4.10    2.80
  10   4   5    4.40    2.90
  11  -4   5    1.50    2.50
 -11  -4  -5   -1.80    2.10
 -11  -4  -5    1.00    2.40
  11  -4   5   -0.20    2.10
  11  -4   5    4.10    2.60
  11  -4   5   -0.90    5.10
  11  -4   5    4.20    4.30
  11   4   5    3.10    3.00
  11   4   5    9.90    4.00
 -11   4  -5    5.00    2.50
  11   4   5   -1.40    2.40
  11   4   5    0.50    3.30
  12  -4   5    4.70    3.00
 -12  -4  -5    1.60    2.20
  12  -4   5    4.60    2.60
  12  -4   5   12.00    5.10
  12  -4   5    2.80    5.70
 -12  -4  -5    2.40    2.80
 -12   4  -5    4.40    4.00
  12   4   5   -1.80    4.90
  12   4   5    2.40    2.80
  12   4   5   13.70    3.90
 -12   4  -5    2.30    2.20
  12   4   5    2.30    2.90
  10  -5  -5   10.60    2.80
  10  -5  -5    4.60    2.60
 -10  -5   5   15.40    3.60
 -10  -5   5    9.40    2.90
  10  -5  -5   21.00    5.50
 -10   5   5    5.10    5.20
  10   5  -5    9.60    3.60
  10   5  -5    8.80    3.50
  10   5  -5    5.90    4.70
  -9  -5   5   -1.20    3.20
  -9  -5   5    1.10    2.20
   9  -5  -5    0.50    2.30
   9  -5  -5   -2.00    2.30
   9  -5  -5    2.30    4.70
  -9   5   5    3.40    5.00
   9   5  -5   10.20    3.90
   9   5  -5    0.00    2.80
   9   5  -5    0.40    2.40
   8  -5  -5    5.30    2.40
   8  -5  -5    0.10    4.40
   8  -5  -5    5.50    2.40
  -8  -5   5    3.90    3.20
  -8  -5   5   -1.80    2.20
   8   5  -5    0.40    2.60
   8   5  -5    2.10    2.50
  -8   5   5    2.20    4.50
   8   5  -5   -4.20    3.20
   7  -5  -5   53.59    4.50
   7  -5  -5   60.99    8.30
   7  -5  -5   57.69    5.10
  -7  -5   5   49.30    5.80
  -7  -5   5   48.30    4.80
   7   5  -5   49.80    6.40
   7   5  -5   49.00    5.20
  -7   5   5   70.39    7.30
  -7   5   5   55.19    4.10
   7   5  -5   57.19    5.60
   6  -5  -5    2.30    2.30
  -6  -5   5    3.70    3.10
  -6  -5   5    3.50    2.40
   6  -5  -5    6.00    4.70
   6  -5  -5    2.70    2.20
   6   5  -5    4.70    2.60
  -6   5   5    3.00    3.40
   6   5  -5    3.30    2.80
  -6   5   5    2.70    2.40
  -6   5   5    5.90    3.50
   5  -5  -5  143.89    6.80
  -5  -5   5  154.88    8.50
   5  -5  -5  140.29    7.60
  -5  -5   5  131.29    7.40
   5  -5  -5  150.08    9.70
  -5   5   5  145.09    9.00
  -5   5   5  132.29    6.40
  -5   5   5  150.88    8.50
   5   5  -5  130.59    7.80
   5   5  -5  140.89    8.20
  -4  -5   5  285.97   11.90
  -4  -5   5  313.87   12.80
   4  -5  -5  301.57   12.50
   4  -5  -5  298.47   11.10
   4  -5  -5  309.57   13.90
  -4   5   5  316.27   12.50
   4   5  -5  291.47   12.70
  -4   5   5  306.57   13.80
  -4   5   5  299.57   11.20
   4   5  -5  304.87   12.70
   3  -5  -5    0.30    2.00
  -3  -5   5    0.40    2.20
   3  -5  -5   -3.30    3.20
   3  -5  -5    2.30    1.90
  -3  -5   5    1.70    2.80
   3   5  -5    1.80    2.30
   3   5  -5    1.60    2.60
  -3   5   5    2.20    2.30
  -3   5   5    0.00    2.30
  -3   5   5   -0.60    3.00
  -2  -5   5  181.98    9.60
   2  -5  -5  186.38   10.30
   2  -5  -5  181.58    8.80
  -2  -5   5  181.58    8.40
   2  -5  -5  181.48    7.70
  -2   5   5  199.08   10.50
   2   5  -5  177.38    8.90
  -2   5   5  176.18    8.20
  -2   5   5  190.88    8.30
   2   5  -5  185.88    9.00
  -1  -5   5   -0.50    2.90
   1  -5  -5   -1.20    1.90
   1  -5  -5    5.10    3.40
  -1  -5   5   -0.50    2.00
   1  -5  -5    0.80    2.20
  -1   5   5    0.00    2.30
  -1   5   5   -0.30    3.30
   1   5  -5    3.20    2.10
  -1   5   5    3.80    2.00
   1   5  -5    1.00    2.30
   0  -5  -5    1.00    1.90
   0  -5   5    2.60    1.90
   0  -5   5   -3.80    2.70
   0  -5  -5   -4.50    3.00
   0  -5  -5    0.30    2.00
   0   5  -5    2.50    2.20
   0   5  -5    1.40    2.20
   0   5   5    2.80    3.20
   0   5   5    0.20    2.40
   0   5   5    5.10    2.10
   1  -5   5    8.20    3.40
   1  -5   5   10.70    2.50
  -1  -5  -5   12.00    2.70
  -1  -5  -5    9.50    3.20
   1  -5   5    9.90    2.50
   1   5   5   16.60    4.00
  -1   5  -5   16.40    3.20
   1   5   5   12.90    2.90
   1   5   5   16.00    2.60
  -1   5  -5   12.50    2.90
   2  -5   5  121.89    6.70
  -2  -5  -5  112.89    6.90
   2  -5   5  115.59    6.30
  -2  -5  -5  130.79    7.80
   2  -5   5  112.99    8.20
  -2   5  -5  115.89    7.20
   2   5   5  126.49    5.80
   2   5   5  121.79    8.20
   2   5   5  126.29    7.10
  -2   5  -5  127.09    6.60
  -3  -5  -5    7.50    3.10
   3  -5   5   12.50    3.00
   3  -5   5    8.50    2.20
  -3  -5  -5   12.00    2.80
   3  -5   5    8.40    3.50
   3   5   5   12.00    3.10
  -3   5  -5   12.00    2.80
  -3   5  -5   11.90    1.70
   3   5   5   11.00    3.10
   3   5   5    9.90    2.00
  -3   5  -5   11.70    3.10
   4  -5   5    6.70    2.40
   4  -5   5   10.30    3.90
  -4  -5  -5    1.70    2.00
  -4  -5  -5    9.10    3.20
   4  -5   5    6.10    2.30
   4   5   5    8.20    3.10
   4   5   5    0.90    2.10
  -4   5  -5    6.80    2.20
   4   5   5   10.00    2.00
  -4   5  -5    4.50    1.70
  -4   5  -5    9.20    2.80
  -5  -5  -5    3.30    2.20
   5  -5   5    9.20    2.30
  -5  -5  -5    6.40    3.20
   5  -5   5    8.10    4.00
   5  -5   5    8.20    2.60
  -5   5  -5   11.80    2.50
   5   5   5   11.50    3.70
  -5   5  -5   10.70    1.80
  -5   5  -5    5.50    3.30
   5   5   5    8.20    2.90
   5   5   5    8.50    2.30
  -6  -5  -5   18.70    3.50
   6  -5   5   20.40    4.50
   6  -5   5   34.00    4.10
   6  -5   5   21.70    3.60
  -6  -5  -5   26.80    4.00
  -6   5  -5   25.70    3.30
   6   5   5   22.10    4.00
   6   5   5   27.50    3.70
  -6   5  -5   22.90    4.00
   6   5   5   30.40    5.30
  -6   5  -5   23.70    3.00
   7  -5   5    0.50    2.40
   7  -5   5   -2.30    4.10
  -7  -5  -5    2.90    2.50
  -7  -5  -5    3.90    3.20
   7  -5   5    2.50    2.60
  -7  -5  -5    2.10    2.30
  -7   5  -5   -0.80    3.20
  -7   5  -5    3.80    1.80
  -7   5  -5    1.90    2.30
   7   5   5   -0.80    2.20
   7   5   5    1.30    2.40
   7   5   5   -3.10    3.80
   7   5   5    0.90    2.30
  -8  -5  -5   34.30    4.50
   8  -5   5   28.40    5.70
  -8  -5  -5   44.40    6.00
   8  -5   5   49.70    4.80
  -8  -5  -5   43.40    4.30
   8  -5   5   33.90    4.10
   8   5   5   45.10    5.00
   8   5   5   39.50    4.60
   8   5   5   28.30    4.70
  -8   5  -5   49.00    6.20
  -8   5  -5   40.50    3.70
   8   5   5   32.00    5.70
   9  -5   5    0.60    2.90
  -9  -5  -5   -3.40    2.90
  -9  -5  -5    2.60    2.40
  -9  -5  -5    1.40    3.00
   9  -5   5   -1.70    4.60
   9  -5   5    1.80    5.10
   9  -5   5    0.80    2.60
   9   5   5   -1.10    2.70
   9   5   5    4.20    4.80
  -9   5  -5   -0.30    2.10
   9   5   5   -0.50    2.80
  -9   5  -5    6.30    3.80
   9   5   5   -2.80    2.80
  10  -5   5    2.10    3.00
  10  -5   5    1.30    6.90
 -10  -5  -5   -1.40    3.10
 -10   5  -5   -1.00    4.00
   5  -6  -5   63.49    5.60
   5  -6  -5   60.59    5.10
  -5  -6   5   71.59    8.70
  -5  -6   5   57.59    5.80
  -5   6   5   91.19   10.90
  -5   6   5   72.39    5.50
   5   6  -5   49.60    8.10
  -5   6   5   65.29    7.50
   5   6  -5   63.29    6.40
   4  -6  -5   18.20    3.90
  -4  -6   5   23.60    5.30
  -4  -6   5   18.70    3.80
   4  -6  -5   18.40    3.60
   4  -6  -5   10.30    7.30
  -4   6   5   13.10    5.70
   4   6  -5   17.70    4.70
  -4   6   5   20.60    3.50
  -4   6   5   14.10    3.90
   4   6  -5   17.50    4.00
   3  -6  -5   12.60    5.50
   3  -6  -5    7.80    3.70
  -3  -6   5   10.50    3.10
   3  -6  -5   13.70    2.80
  -3  -6   5   10.30    5.00
   3   6  -5   10.70    4.50
  -3   6   5   11.30    3.70
  -3   6   5   11.70    3.50
   3   6  -5    8.80    3.00
  -3   6   5    4.30    6.10
   2  -6  -5   30.40    5.30
   2  -6  -5   31.00    4.70
  -2  -6   5   33.80    4.30
   2  -6  -5   30.20    4.10
  -2  -6   5   29.60    5.90
   2   6  -5   31.30    5.20
  -2   6   5   31.00    4.10
   2   6  -5   25.90    4.20
  -2   6   5   38.70    5.70
  -2   6   5   43.10    6.70
   1  -6  -5    2.70    2.50
  -1  -6   5    4.80    4.80
  -1  -6   5    1.00    2.60
   1  -6  -5    0.90    4.80
   1  -6  -5   -2.10    2.60
  -1   6   5    9.40    3.00
  -1   6   5    2.80    3.10
  -1   6   5    4.90    5.00
   1   6  -5    2.10    2.80
   1   6  -5    5.40    3.70
   0  -6   5   -4.30    5.10
   0  -6  -5   -0.70    2.40
   0  -6   5    2.00    2.70
   0  -6  -5    6.30    2.80
   0  -6   5    4.00    2.60
   0  -6  -5   -0.20    4.30
   0   6   5    8.60    5.80
   0   6  -5    5.00    3.40
   0   6   5    9.80    3.20
   0   6   5    3.70    3.00
   0   6  -5    6.20    2.90
   1  -6   5    4.50    2.80
   1  -6   5    0.70    2.80
   1  -6   5    4.10    5.30
  -1  -6  -5   10.80    4.80
  -1  -6  -5    2.20    2.50
  -1  -6  -5    6.60    2.90
   1   6   5    1.30    2.60
   1   6   5    4.40    3.20
   1   6   5    9.60    4.20
  -1   6  -5    3.80    2.80
  -1   6  -5   -0.50    3.30
   2  -6   5   33.90    6.80
  -2  -6  -5   35.50    5.90
   2  -6   5   33.10    4.30
   2  -6   5   37.00    4.60
  -2  -6  -5   30.80    4.80
   2   6   5   30.00    5.30
   2   6   5   32.70    4.90
  -2   6  -5   28.30    4.40
  -2   6  -5   36.40    4.40
   2   6   5   42.00    4.40
   3  -6   5   -5.90    4.80
   3  -6   5    4.60    2.70
  -3  -6  -5    0.60    4.90
   3  -6   5    4.60    2.70
  -3  -6  -5   -5.70    2.40
   3   6   5   -1.30    4.10
  -3   6  -5   -6.10    3.50
  -3   6  -5   -1.60    2.70
   3   6   5   -3.40    2.90
   3   6   5   -3.50    2.20
  -4  -6  -5    4.50    2.60
  -4  -6  -5   17.30    5.50
   4  -6   5   13.10    3.30
   4  -6   5    9.10    7.50
   4  -6   5    5.20    2.60
  -4   6  -5    9.40    4.30
   4   6   5    8.60    3.80
  -4   6  -5   14.60    3.30
   4   6   5   -0.60    5.70
   4   6   5    5.70    2.60
   5  -6   5   -0.20    3.30
  -5  -6  -5    2.70    4.90
   5  -6   5    2.00    2.50
   5  -6   5    1.40    2.70
  -5  -6  -5    1.70    2.60
  -5   6  -5    2.30    3.10
   5   6   5   -0.10    3.40
   5   6   5    2.90    3.50
  -5   6  -5    9.10    4.80
 -16   0   6    3.70    2.20
  16   0  -6    9.00    5.80
  16   0  -6    5.10    2.90
 -16   0   6   10.40    4.60
  16   0  -6    5.10    3.40
  16   0  -6    7.70    2.90
  15   0  -6   -1.50    2.10
  15   0  -6    0.30    2.50
  15   0  -6    4.00    2.60
 -15   0   6    0.50    1.80
  15   0  -6   -5.00    4.30
 -15   0   6    0.40    3.50
  14   0  -6   20.30    2.50
 -14   0   6   24.20    4.00
  14   0  -6   17.50    2.90
  14   0  -6   12.80    4.30
  14   0  -6   12.70    3.00
 -13   0   6   -2.80    2.40
  13   0  -6    1.00    2.90
  13   0  -6   -4.10    1.90
  13   0  -6    2.30    1.90
  13   0  -6    0.60    2.10
  12   0  -6  466.25   14.70
  12   0  -6  439.06   15.90
  12   0  -6  439.26   16.10
  12   0  -6  469.45   17.80
 -12   0   6  459.45   17.10
  11   0  -6    2.00    2.20
  11   0  -6    0.30    1.80
 -11   0   6    0.80    2.00
  11   0  -6   -0.40    1.40
  11   0  -6    0.60    1.60
  10   0  -6   27.80    2.90
  10   0  -6   29.00    2.50
 -10   0   6   29.00    3.50
  10   0  -6   28.70    2.80
  10   0  -6   34.20    4.00
   9   0  -6    0.30    1.10
  -9   0   6   -0.20    1.30
   9   0  -6   -0.80    1.70
   9   0  -6    1.50    1.30
   8   0  -6   30.10    2.60
   8   0  -6   28.30    3.30
   8   0  -6   29.30    2.30
   8   0  -6   31.30    2.50
   7   0  -6   -0.30    1.00
   7   0  -6    1.10    1.30
   7   0  -6   -0.20    1.10
   7   0  -6    0.30    1.00
   6   0  -6 1964.60   54.89
   6   0  -6 1886.11   55.49
   6   0  -6 1913.61   55.49
  -6   0   6 1828.72   56.09
   5   0  -6   -0.30    0.90
   5   0  -6    1.00    0.80
  -5   0   6   -0.50    0.70
   5   0  -6    1.10    0.90
   4   0  -6   20.90    1.60
  -4   0   6   20.00    1.90
   4   0  -6   18.90    1.60
   4   0  -6   20.90    1.50
   3   0  -6    0.00    0.80
   3   0  -6   -0.40    0.60
  -3   0   6    0.40    0.60
   3   0  -6    0.20    0.70
  -2   0   6 1281.37   38.50
  -2   0   6 1257.27   38.10
   2   0  -6 1301.57   37.70
   2   0  -6 1333.77   37.80
   2   0  -6 1342.27   37.80
  -1   0   6   -0.70    0.70
   1   0  -6   -0.60    0.60
   1   0  -6    0.30    0.50
   1   0  -6    0.70    0.70
  -1   0   6   -0.20    0.50
   1   0  -6   -1.20    0.60
   0   0  -6  560.44   16.40
   0   0   6  519.75   16.60
   0   0  -6  566.94   15.80
   0   0   6  516.25   16.00
   1   0   6    0.30    0.50
  -1   0  -6    1.40    0.50
   1   0   6    0.40    0.40
  -1   0  -6    0.00    0.60
   1   0   6   -0.80    0.70
  -2   0  -6  209.28    6.90
   2   0   6  212.88    6.60
   2   0   6  193.78    6.80
   2   0   6  196.68    6.30
  -2   0  -6  213.68    6.30
   3   0   6   -0.30    0.50
   3   0   6   -0.10    0.90
  -3   0  -6   -0.50    0.70
   3   0   6    0.40    0.50
   3   0   6    1.00    0.80
   4   0   6   48.50    2.50
   4   0   6   52.09    2.70
   4   0   6   51.99    3.00
  -4   0  -6   48.60    2.70
   4   0   6   54.79    2.60
   4   0   6   50.39    2.30
   5   0   6   -0.20    0.60
   5   0   6    0.90    1.10
   5   0   6   -0.90    0.50
   5   0   6    0.00    0.90
   5   0   6   -0.50    0.90
  -5   0  -6    0.70    0.80
   6   0   6  456.35   14.30
   6   0   6  436.16   15.00
  -6   0  -6  430.76   14.40
   6   0   6  445.56   14.00
   6   0   6  467.85   14.40
   7   0   6    0.00    0.90
  -7   0  -6   -0.10    0.90
   7   0   6   -1.80    1.10
   7   0   6    0.90    1.20
   7   0   6    0.20    1.10
   8   0   6   57.19    4.30
   8   0   6   50.39    3.30
  -8   0  -6   56.29    3.50
   8   0   6   54.49    3.00
   8   0   6   53.09    3.20
   9   0   6    1.30    1.30
   9   0   6   -1.20    1.80
   9   0   6   -0.40    1.20
   9   0   6    0.80    1.00
  -9   0  -6    0.30    1.00
  10   0   6    6.10    2.30
  10   0   6    8.40    1.40
  10   0   6    4.00    1.50
 -10   0  -6    6.20    1.80
  10   0   6    5.60    1.80
  11   0   6   -1.50    1.50
 -11   0  -6    0.50    1.60
  11   0   6    1.60    1.60
  11   0   6   -5.00    2.20
  11   0   6   -1.50    1.30
  12   0   6   51.99    3.30
  12   0   6   47.00    4.00
  12   0   6   49.10    4.20
  12   0   6   55.89    6.10
 -12   0  -6   50.79    4.20
  13   0   6    3.10    2.20
  13   0   6    2.20    2.30
  13   0   6   -1.40    1.50
 -13   0  -6    0.20    2.00
  13   0   6   -0.80    3.50
  14   0   6   17.00    3.10
  14   0   6    7.10    2.90
 -14   0  -6    8.40    2.60
  14   0   6   11.90    4.30
 -15   0  -6    3.00    2.50
 -15   0  -6    8.40    3.40
  15   0   6    3.70    4.80
  15   0   6   -3.10    2.40
  15   0   6   -0.70    2.10
  16   0   6    1.40    3.00
  16   0   6   -0.50    4.50
  16   0   6   10.20    3.40
 -16   0  -6    4.20    2.40
 -16   0  -6    9.40    4.40
  16  -1  -6   19.60    3.60
 -16  -1   6   22.20    3.60
  16  -1  -6   18.10    3.50
  16  -1  -6   24.00    7.60
  16   1  -6   21.50    3.80
 -16   1   6   29.20    6.00
  16   1  -6   29.10    4.00
  16   1  -6   19.90    4.10
 -16   1   6   19.30    3.50
  16   1  -6   18.40    6.10
  15  -1  -6   12.30    3.00
  15  -1  -6   16.30    4.90
 -15  -1   6    3.60    2.10
  15  -1  -6    8.90    2.60
 -15   1   6    5.30    4.00
  15   1  -6   10.90    3.20
  15   1  -6    8.40    3.30
  15   1  -6    4.70    2.70
  15   1  -6    5.70    5.00
  14  -1  -6   10.50    4.80
 -14  -1   6    2.50    2.00
  14  -1  -6    4.90    2.20
  14  -1  -6    6.40    2.10
  14  -1  -6    7.20    2.40
  14   1  -6    9.00    2.40
  14   1  -6    7.60    2.90
 -14   1   6    1.30    3.50
  14   1  -6    4.90    2.40
  14   1  -6    2.70    3.80
  13  -1  -6    7.30    2.30
  13  -1  -6    5.50    3.60
  13  -1  -6    8.50    2.50
 -13  -1   6    6.90    2.10
  13  -1  -6    8.00    2.00
  13   1  -6    5.20    2.00
 -13   1   6    7.30    3.20
  13   1  -6    5.80    2.60
  13   1  -6    7.20    3.30
  13   1  -6    9.50    2.40
  12  -1  -6    0.50    1.70
  12  -1  -6    2.00    1.60
  12  -1  -6    4.40    2.20
  12  -1  -6    2.70    3.30
  12   1  -6    3.70    2.20
  12   1  -6    2.90    1.70
  12   1  -6   -1.10    2.60
 -12   1   6    1.40    2.20
  12   1  -6    1.80    2.00
  11  -1  -6   10.30    2.30
  11  -1  -6   15.70    3.30
  11  -1  -6   10.10    2.20
  11  -1  -6   16.30    2.20
  11   1  -6   15.40    2.70
 -11   1   6   16.10    3.10
  11   1  -6   17.20    2.40
  11   1  -6   15.10    2.50
  11   1  -6   12.40    3.30
 -10  -1   6   95.89    3.50
  10  -1  -6   89.39    4.80
  10  -1  -6   83.29    4.90
  10  -1  -6   87.19    6.30
  10  -1  -6   87.59    4.70
  10   1  -6   98.19    4.90
  10   1  -6   89.09    5.00
 -10   1   6   92.19    5.80
  10   1  -6  102.39    6.00
  10   1  -6   96.99    5.40
   9  -1  -6  281.07   10.00
   9  -1  -6  274.77   10.30
   9  -1  -6  284.57   11.70
  -9  -1   6  278.17    8.80
   9  -1  -6  277.07   10.10
   9   1  -6  295.77   10.20
   9   1  -6  276.57   10.20
   9   1  -6  281.47   11.00
   9   1  -6  270.37   10.50
  -9   1   6  287.27   11.20
   8  -1  -6    3.70    1.40
   8  -1  -6    6.60    1.50
   8  -1  -6    6.10    1.90
   8  -1  -6    3.60    1.40
  -8  -1   6    5.50    0.90
   8   1  -6    5.80    1.60
   8   1  -6    6.10    1.80
  -8   1   6    7.80    1.90
   8   1  -6    5.30    1.80
   8   1  -6    3.50    1.60
   7  -1  -6  105.49    4.50
   7  -1  -6  100.69    4.70
   7  -1  -6  101.49    4.70
  -7  -1   6  105.59    3.90
   7   1  -6   99.89    4.60
   7   1  -6   99.49    4.90
   7   1  -6  106.39    4.70
   7   1  -6   95.99    5.00
  -7   1   6  105.59    5.40
   6  -1  -6    2.20    1.20
   6  -1  -6    1.60    1.10
  -6  -1   6    3.80    0.80
   6  -1  -6    4.50    1.20
   6   1  -6    5.20    1.40
   6   1  -6    6.80    1.50
   6   1  -6    4.40    1.20
  -6   1   6    2.90    1.30
  -5  -1   6   60.29    2.70
   5  -1  -6   57.39    2.80
   5  -1  -6   57.29    3.30
   5  -1  -6   63.69    3.30
   5   1  -6   62.89    3.30
   5   1  -6   62.59    3.20
   5   1  -6   58.09    3.00
  -5   1   6   60.39    3.60
   4  -1  -6  877.81   25.90
  -4  -1   6  835.72   25.40
   4  -1  -6  885.41   25.30
   4  -1  -6  845.82   26.00
   4   1  -6  833.82   25.50
   4   1  -6  884.01   25.90
  -4   1   6  821.32   26.30
   4   1  -6  879.41   25.90
   3  -1  -6  210.48    7.20
   3  -1  -6  213.38    6.60
   3  -1  -6  205.98    7.40
  -3  -1   6  207.68    7.00
  -3   1   6  209.98    6.50
   3   1  -6  208.78    7.30
   3   1  -6  208.68    6.90
   3   1  -6  212.48    7.30
  -3   1   6  194.78    7.60
  -2  -1   6  418.26   13.00
   2  -1  -6  402.86   13.30
   2  -1  -6  430.06   13.10
   2  -1  -6  448.76   12.40
  -2  -1   6  403.36   13.00
   2   1  -6  418.96   13.20
  -2   1   6  421.96   13.60
   2   1  -6  425.66   13.20
  -2   1   6  405.36   13.70
   2   1  -6  413.06   12.60
  -2   1   6  419.76   12.60
  -1  -1   6  158.28    5.70
  -1  -1   6  148.69    5.40
   1  -1  -6  164.78    5.60
   1  -1  -6  152.98    5.80
   1   1  -6  153.28    5.20
  -1   1   6  158.98    6.20
   1   1  -6  158.98    5.70
   1   1  -6  158.58    5.70
  -1   1   6  164.58    5.30
  -1   1   6  157.68    5.90
   1   1  -6  155.98    5.20
   0  -1  -6   -0.80    0.90
   0  -1  -6   -0.10    0.80
   0  -1  -6    0.40    0.80
   0  -1   6    0.50    0.70
   0  -1   6   -0.30    0.60
   0   1   6    0.00    0.90
   0   1   6    0.20    0.80
   0   1  -6    0.00    0.40
   0   1  -6    0.70    0.80
   0   1   6    0.60    0.70
   0   1  -6    0.10    0.60
  -1  -1  -6 1027.90   29.60
   1  -1   6  961.60   29.40
  -1  -1  -6  960.80   29.60
  -1  -1  -6 1039.50   29.40
   1  -1   6 1005.70   28.60
   1   1   6  991.60   29.90
   1   1   6  981.80   29.80
   1   1   6 1039.40   29.50
  -1   1  -6  952.50   28.60
   1   1   6 1001.50   28.60
  -1   1  -6  999.00   29.60
  -1   1  -6 1042.60   29.20
   2  -1   6  175.98    6.20
  -2  -1  -6  178.88    6.30
   2  -1   6  177.88    6.50
   2  -1   6  176.48    6.30
  -2  -1  -6  183.68    6.20
   2   1   6  175.28    6.60
   2   1   6  170.28    6.40
   2   1   6  180.68    6.40
  -2   1  -6  181.78    6.00
   2   1   6  178.68    5.60
  -2   1  -6  184.58    6.20
  -3  -1  -6  428.36   13.10
   3  -1   6  422.56   13.10
  -3  -1  -6  429.56   12.90
   3  -1   6  401.26   13.20
   3  -1   6  410.06   12.00
   3  -1   6  399.16   13.20
  -3   1  -6  405.76   12.20
   3   1   6  401.46   13.20
   3   1   6  417.06   13.20
   3   1   6  430.06   12.50
   3   1   6  400.86   13.40
  -3   1  -6  419.06   12.90
   4  -1   6  209.58    7.80
   4  -1   6  210.88    7.60
   4  -1   6  217.28    7.50
  -4  -1  -6  212.98    7.40
  -4  -1  -6  218.58    7.30
   4  -1   6  207.18    6.50
  -4   1  -6  211.98    7.30
   4   1   6  210.08    7.50
  -4   1  -6  210.08    6.80
   4   1   6  204.08    7.80
   4   1   6  212.48    7.60
   4   1   6  212.38    7.00
   5  -1   6   19.70    2.00
  -5  -1  -6   17.30    1.80
   5  -1   6   15.10    2.20
   5  -1   6   13.30    1.40
   5  -1   6   15.40    2.00
   5   1   6   17.10    2.20
  -5   1  -6   18.00    1.70
  -5   1  -6   16.10    1.40
   5   1   6   15.20    2.00
   5   1   6   12.40    1.60
   5   1   6   15.70    1.90
  -6  -1  -6   85.19    4.10
   6  -1   6   88.89    4.80
   6  -1   6   88.79    3.50
   6  -1   6   84.39    4.10
   6  -1   6   89.49    4.30
   6   1   6   86.19    3.50
   6   1   6   88.49    4.50
   6   1   6   83.39    4.20
  -6   1  -6   83.19    3.60
  -6   1  -6   86.39    4.00
   6   1   6   87.59    3.90
   6   1   6   82.39    4.10
   7  -1   6    1.10    1.20
  -7  -1  -6    3.00    1.10
   7  -1   6    5.40    1.30
   7  -1   6    3.50    1.20
   7  -1   6    3.00    1.20
   7  -1   6    4.50    1.60
  -7   1  -6    3.30    1.00
   7   1   6    4.50    1.50
   7   1   6    4.90    0.90
   7   1   6    4.20    1.60
  -7   1  -6    1.60    1.10
   7   1   6    4.20    1.50
   7   1   6    4.00    1.20
   8  -1   6    1.00    1.10
   8  -1   6    2.20    1.10
   8  -1   6    0.40    1.30
   8  -1   6    0.80    1.20
   8  -1   6   -3.10    1.60
  -8  -1  -6    1.70    1.10
  -8   1  -6    0.90    1.10
   8   1   6    1.10    1.40
   8   1   6    1.10    0.80
  -8   1  -6    1.70    1.20
   8   1   6   -1.10    1.20
   8   1   6    0.50    1.20
   8   1   6    0.60    1.20
   9  -1   6    7.60    2.20
  -9  -1  -6    6.90    1.90
   9  -1   6    6.10    1.60
   9  -1   6    4.30    1.50
   9  -1   6    3.20    1.40
   9  -1   6    6.20    1.50
   9   1   6    6.20    1.70
   9   1   6    4.10    2.00
  -9   1  -6    4.50    1.40
   9   1   6    4.30    1.80
  -9   1  -6    5.70    1.60
   9   1   6    6.20    1.00
   9   1   6    4.70    1.50
 -10  -1  -6    9.30    1.80
  10  -1   6   14.10    3.10
  10  -1   6   15.20    2.20
  10  -1   6   13.70    2.20
  10  -1   6   15.10    2.10
  10  -1   6   13.60    2.60
 -10   1  -6   13.80    2.20
  10   1   6   11.20    2.40
  10   1   6   13.20    2.40
  10   1   6   15.40    1.60
  10   1   6   16.90    3.10
 -10   1  -6   12.80    2.40
  11  -1   6   10.20    3.30
 -11  -1  -6    7.50    2.00
  11  -1   6   11.00    2.20
  11  -1   6   10.10    2.00
  11  -1   6   11.70    2.30
  11  -1   6   13.80    2.10
  11   1   6   12.50    2.60
 -11   1  -6    8.30    1.90
  11   1   6   10.10    2.70
  11   1   6   10.10    2.30
 -11   1  -6   10.40    2.20
  12  -1   6  354.86   14.70
  12  -1   6  336.77   11.90
  12  -1   6  336.37   12.00
 -12  -1  -6  301.17   12.60
  12  -1   6  348.27   12.10
  12  -1   6  336.67   12.90
  12   1   6  315.37   12.70
  12   1   6  360.56   14.30
 -12   1  -6  361.66   12.90
 -12   1  -6  337.47   13.00
  12   1   6  331.57   12.70
  13  -1   6   31.10    4.40
 -13  -1  -6   13.40    2.70
  13  -1   6   23.10    2.90
  13  -1   6   24.90    3.40
  13  -1   6   14.40    4.50
  13  -1   6   18.80    2.70
  13   1   6   18.90    3.20
  13   1   6   23.60    4.00
 -13   1  -6   15.80    3.00
  13   1   6   16.50    2.90
 -13   1  -6   31.30    4.40
  14  -1   6    0.10    2.50
  14  -1   6    4.70    4.50
  14  -1   6    0.50    2.10
  14  -1   6   -2.90    2.40
 -14  -1  -6    0.70    1.70
  14  -1   6   -1.00    1.90
  14   1   6   -0.30    4.20
  14   1   6    0.30    2.20
 -14   1  -6   -2.10    2.00
  14   1   6    1.50    2.50
 -14   1  -6    1.70    2.80
  15  -1   6   12.20    3.00
  15  -1   6    4.40    2.70
  15  -1   6    5.30    2.80
 -15  -1  -6    8.20    2.50
  15  -1   6    0.40    5.10
  15   1   6    7.10    2.90
 -15   1  -6    7.30    2.50
 -15   1  -6   12.60    3.60
  15   1   6    6.10    4.90
  15   1   6    9.50    3.10
  15  -2  -6    5.90    3.50
  15  -2  -6    6.40    2.80
  15  -2  -6    7.10    2.80
 -15  -2   6    7.60    2.40
  15   2  -6    9.50    5.00
 -15   2   6   13.70    4.70
  15   2  -6    9.70    3.00
  15   2  -6   12.40    3.70
  14  -2  -6   -0.40    2.20
 -14  -2   6   -0.50    1.70
  14  -2  -6    3.30    2.80
  14  -2  -6    2.70    2.20
  14   2  -6    1.10    3.90
  14   2  -6   -1.30    2.40
 -14   2   6    0.20    3.50
  14   2  -6    1.40    2.80
  13  -2  -6   25.20    3.50
  13  -2  -6   19.90    3.00
 -13  -2   6   27.40    3.30
  13  -2  -6   21.40    3.40
  13   2  -6   22.20    4.00
  13   2  -6   28.80    3.90
 -13   2   6   25.90    4.40
  13   2  -6   17.50    3.30
  12  -2  -6   35.10    3.80
  12  -2  -6   36.50    4.10
 -12  -2   6   38.80    3.40
  12  -2  -6   29.40    3.50
  12   2  -6   42.60    4.20
 -12   2   6   41.80    5.50
  12   2  -6   35.50    5.10
  12   2  -6   38.20    4.00
  11  -2  -6   22.00    3.10
 -11  -2   6   22.10    2.90
  11  -2  -6   28.20    3.80
  11   2  -6   27.00    3.70
 -11   2   6   20.30    3.20
  11   2  -6   21.40    3.20
  11   2  -6   17.90    3.20
  10  -2  -6   41.70    3.50
 -10  -2   6   42.80    3.30
  10  -2  -6   42.00    3.50
  10  -2  -6   44.50    4.00
  10   2  -6   44.90    4.40
  10   2  -6   48.10    3.90
  10   2  -6   50.29    4.30
 -10   2   6   50.49    4.80
  -9  -2   6   29.20    2.00
   9  -2  -6   31.50    3.00
   9  -2  -6   32.40    2.90
  -9  -2   6   29.50    2.60
   9  -2  -6   31.90    3.40
   9   2  -6   32.70    3.20
  -9   2   6   34.90    4.00
   9   2  -6   29.10    3.30
   9   2  -6   34.50    3.50
   8  -2  -6  138.59    6.40
   8  -2  -6  131.79    5.70
  -8  -2   6  137.19    5.00
   8  -2  -6  132.79    6.10
   8   2  -6  134.89    6.40
  -8   2   6  139.19    7.10
   8   2  -6  140.49    6.30
   8   2  -6  141.19    6.70
   7  -2  -6   14.20    2.00
   7  -2  -6   13.80    2.10
  -7  -2   6   13.80    1.80
   7  -2  -6   14.50    2.20
   7   2  -6   15.10    2.50
   7   2  -6   14.80    2.30
   7   2  -6   13.10    2.10
  -7   2   6   15.70    2.60
   6  -2  -6  272.07    9.80
  -6  -2   6  280.47    9.00
   6  -2  -6  270.67    9.10
   6  -2  -6  268.17   10.10
   6   2  -6  266.17   10.00
   6   2  -6  267.47    9.90
   6   2  -6  270.27   10.00
  -6   2   6  269.27   10.60
  -5  -2   6   12.70    1.60
   5  -2  -6   13.80    1.60
   5  -2  -6   10.80    1.70
   5  -2  -6   14.90    2.10
   5   2  -6   10.90    2.20
   5   2  -6   12.90    2.00
   5   2  -6   10.60    1.90
  -5   2   6   13.30    1.20
  -5   2   6    9.60    1.90
   4  -2  -6    5.60    1.50
   4  -2  -6    7.30    1.60
  -4  -2   6    5.40    1.20
   4  -2  -6    9.50    1.30
  -4   2   6    6.10    1.80
   4   2  -6    7.80    1.80
   4   2  -6    7.80    1.50
   4   2  -6    5.90    1.70
  -4   2   6    8.50    1.00
  -3  -2   6  214.48    7.80
   3  -2  -6  210.18    8.30
   3  -2  -6  221.78    7.10
   3  -2  -6  221.58    8.00
  -3  -2   6  221.88    7.00
  -3   2   6  210.68    8.60
   3   2  -6  222.28    7.90
   3   2  -6  220.78    8.20
  -3   2   6  227.48    7.20
   3   2  -6  223.68    8.20
  -2  -2   6    9.80    0.90
  -2  -2   6   11.90    1.60
   2  -2  -6    7.90    1.50
   2  -2  -6   10.00    1.20
   2  -2  -6   13.80    1.80
  -2   2   6   15.70    2.20
   2   2  -6    9.70    1.40
   2   2  -6   13.00    1.90
  -2   2   6   13.00    2.00
   2   2  -6   12.10    2.00
  -2   2   6   12.70    1.50
   1  -2  -6    3.30    1.30
   1  -2  -6    4.80    0.80
  -1  -2   6    4.80    0.60
  -1  -2   6    5.20    1.30
   1  -2  -6    2.10    1.10
  -1  -2   6    4.20    1.00
  -1   2   6    3.10    1.10
   1   2  -6    4.10    1.00
   1   2  -6    3.80    1.30
  -1   2   6    5.90    1.20
  -1   2   6    2.20    1.10
   0  -2   6   41.30    2.20
   0  -2  -6   41.20    2.70
   0  -2   6   37.80    1.90
   0  -2  -6   41.80    2.70
   0  -2   6   38.50    2.70
   0   2  -6   38.60    2.10
   0   2   6   40.30    2.60
   0   2   6   39.90    3.00
   0   2  -6   37.20    1.80
   0   2   6   38.80    2.80
   0   2  -6   36.10    2.50
  -1  -2  -6  169.28    6.20
   1  -2   6  173.98    5.70
  -1  -2  -6  166.38    6.30
  -1  -2  -6  159.58    6.40
   1  -2   6  165.28    5.70
   1  -2   6  171.78    6.70
   1   2   6  157.88    6.80
  -1   2  -6  167.38    5.50
  -1   2  -6  165.18    5.80
   1   2   6  172.98    6.40
   1   2   6  160.78    6.50
   2  -2   6  888.91   26.70
  -2  -2  -6  847.82   26.50
  -2  -2  -6  895.81   26.70
   2  -2   6  851.71   26.90
   2  -2   6  902.11   25.70
  -2  -2  -6  907.41   26.50
   2  -2   6  866.21   26.20
   2   2   6  893.71   26.70
  -2   2  -6  893.01   25.80
   2   2   6  863.51   26.70
   2   2   6  851.31   27.10
  -2   2  -6  850.21   25.90
  -2   2  -6  891.41   26.50
   2   2   6  871.41   25.70
   3  -2   6 2596.44   70.99
   3  -2   6 2469.15   71.79
  -3  -2  -6 2452.95   71.69
  -3  -2  -6 2505.05   71.99
   3  -2   6 2441.36   71.99
   3  -2   6 2401.86   72.39
  -3  -2  -6 2482.15   71.69
   3   2   6 2448.16   72.09
  -3   2  -6 2464.85   71.29
   3   2   6 2484.55   71.19
   3   2   6 2547.84   72.19
   3   2   6 2433.56   72.49
  -3   2  -6 2377.16   71.29
  -3   2  -6 2521.75   71.79
  -4  -2  -6   42.40    2.80
  -4  -2  -6   40.70    2.70
   4  -2   6   39.70    2.90
   4  -2   6   39.10    3.10
   4  -2   6   40.90    2.20
   4  -2   6   39.30    2.90
  -4  -2  -6   37.90    2.50
  -4   2  -6   44.00    2.40
   4   2   6   40.60    2.90
   4   2   6   39.30    3.00
  -4   2  -6   39.00    2.30
   4   2   6   39.70    3.00
   4   2   6   40.00    2.50
  -4   2  -6   37.70    2.60
  -5  -2  -6   16.50    2.00
   5  -2   6   14.30    2.10
   5  -2   6   12.40    2.00
   5  -2   6   15.70    2.10
   5  -2   6   13.00    1.60
  -5  -2  -6   12.50    1.80
   5   2   6   16.60    2.20
  -5   2  -6   15.80    1.80
   5   2   6   17.80    2.00
  -5   2  -6   18.00    1.90
   5   2   6   14.60    2.20
   5   2   6   16.50    2.40
  -6  -2  -6   49.30    3.20
  -6  -2  -6   52.39    3.20
   6  -2   6   51.29    2.60
   6  -2   6   46.60    3.70
   6  -2   6   51.09    3.70
   6  -2   6   46.90    3.20
  -6   2  -6   49.70    3.00
   6   2   6   48.40    3.00
  -6   2  -6   49.90    3.00
   6   2   6   46.20    3.40
   6   2   6   50.39    3.40
   6   2   6   48.10    3.70
  -7  -2  -6  127.39    5.60
   7  -2   6  132.59    5.00
   7  -2   6  136.79    6.20
  -7  -2  -6  124.69    5.70
   7  -2   6  126.19    5.90
   7  -2   6  131.49    6.50
  -7   2  -6  134.39    5.70
   7   2   6  122.29    6.10
   7   2   6  127.89    6.20
  -7   2  -6  134.19    5.60
   7   2   6  127.79    6.20
   7   2   6  127.19    5.60
   8  -2   6    2.60    2.00
  -8  -2  -6    5.00    1.60
   8  -2   6    0.70    1.60
   8  -2   6    0.00    1.40
   8  -2   6    1.70    1.20
  -8  -2  -6    1.80    1.50
  -8   2  -6    2.80    1.30
   8   2   6    2.50    0.90
   8   2   6    3.20    1.70
   8   2   6    2.70    1.60
   8   2   6    2.50    1.50
   8   2   6    1.30    1.70
  -8   2  -6    1.30    1.30
   9  -2   6  126.99    5.20
  -9  -2  -6  120.19    5.70
   9  -2   6  121.59    7.00
   9  -2   6  105.89    5.80
   9  -2   6  116.39    6.40
   9  -2   6  120.29    5.00
  -9   2  -6  113.19    5.70
   9   2   6  117.99    6.30
   9   2   6  107.69    5.50
   9   2   6  105.89    5.90
   9   2   6  124.29    6.50
  -9   2  -6  119.79    5.70
   9   2   6  118.59    4.10
  10  -2   6    8.00    1.80
  10  -2   6   12.10    3.10
  10  -2   6    8.20    2.00
  10  -2   6    7.10    2.30
  10  -2   6    4.10    2.20
 -10  -2  -6    4.70    1.80
 -10   2  -6    5.60    1.90
  10   2   6    2.90    1.90
 -10   2  -6    8.00    2.00
  10   2   6    8.40    2.10
  10   2   6    3.70    2.10
  10   2   6    4.40    2.20
  11  -2   6   93.29    7.50
  11  -2   6   98.19    6.10
  11  -2   6   95.49    4.70
  11  -2   6   88.29    5.70
  11  -2   6   88.19    4.70
 -11  -2  -6   97.29    5.40
  11   2   6   89.19    5.70
 -11   2  -6  105.09    5.80
  11   2   6  105.19    6.40
  11   2   6  105.29    6.60
  11   2   6   89.19    5.40
 -11   2  -6   88.09    5.40
  12  -2   6   15.60    4.60
  12  -2   6   17.10    3.00
  12  -2   6   21.60    2.90
 -12  -2  -6   25.40    3.30
  12  -2   6   19.60    2.60
  12  -2   6   22.40    3.50
  12   2   6   16.50    2.90
  12   2   6   20.90    3.70
  12   2   6   26.80    3.60
  12   2   6   19.00    3.30
 -12   2  -6   25.30    3.30
 -12   2  -6   25.90    4.10
  13  -2   6   18.00    2.70
  13  -2   6   13.70    4.60
  13  -2   6   16.20    2.70
  13  -2   6   10.40    3.10
 -13  -2  -6   13.60    2.80
  13  -2   6   19.70    3.80
 -13   2  -6   13.80    3.10
 -13   2  -6   17.70    3.10
  13   2   6   19.70    4.30
  13   2   6   20.30    3.50
  13   2   6   15.70    3.30
  14  -2   6    2.30    2.20
  14  -2   6   -1.00    3.10
  14  -2   6    7.30    2.40
  14  -2   6    5.50    5.10
 -14  -2  -6    5.20    2.30
  14  -2   6   -2.50    2.70
 -14   2  -6   -0.20    3.20
  14   2   6   -0.30    2.40
  14   2   6    2.30    2.50
  14   2   6    2.60    4.30
 -14   2  -6    3.80    2.40
  15  -2   6   10.40    3.10
  15  -2   6   14.80    3.20
  15  -2   6   10.80    3.60
  15  -2   6   -1.30    8.30
 -15  -2  -6   10.50    3.20
  15  -2   6    4.90    2.80
  15   2   6    6.70    5.40
 -15   2  -6   13.60    2.90
  15   2   6   11.90    3.50
  15   2   6    5.50    2.80
  14  -3  -6    0.70    2.50
  14  -3  -6   10.70    4.00
  14  -3  -6    4.50    2.50
 -14  -3   6    6.10    2.50
 -14   3   6    5.40    5.00
  14   3  -6    2.30    2.70
  14   3  -6    4.40    3.90
  14   3  -6    5.80    3.50
  13  -3  -6   40.30    4.20
  13  -3  -6   49.99    6.40
  13  -3  -6   50.29    4.80
 -13  -3   6   48.90    4.10
  13   3  -6   49.60    5.00
 -13   3   6   57.69    7.90
  13   3  -6   56.19    5.40
  13   3  -6   58.19    6.20
  12  -3  -6    8.10    3.10
 -12  -3   6   -0.50    1.90
  12  -3  -6    3.10    2.20
  12  -3  -6    3.50    2.10
  12   3  -6   -1.50    2.30
  12   3  -6    6.20    2.90
 -12   3   6    0.90    3.90
  12   3  -6   -2.40    2.20
 -11  -3   6   35.10    3.20
  11  -3  -6   44.90    5.40
  11  -3  -6   33.20    3.50
  11  -3  -6   37.80    4.00
  11   3  -6   41.80    4.60
 -11   3   6   52.99    6.10
  11   3  -6   34.20    4.20
  11   3  -6   41.80    4.60
  10  -3  -6   56.89    4.00
  10  -3  -6   57.29    5.20
 -10  -3   6   59.19    3.60
  10  -3  -6   55.29    4.50
  10   3  -6   60.49    5.00
  10   3  -6   57.19    4.80
 -10   3   6   54.69    6.10
   9  -3  -6  107.09    5.30
   9  -3  -6  102.39    5.80
  -9  -3   6  111.99    4.80
  -9  -3   6  111.39    4.80
   9  -3  -6  117.69    6.70
   9   3  -6  100.09    6.30
   9   3  -6  107.09    6.20
  -9   3   6  115.89    7.30
   9   3  -6  111.09    6.40
  -8  -3   6   22.70    2.20
   8  -3  -6   22.70    2.60
   8  -3  -6   17.10    2.90
  -8  -3   6   22.00    2.70
   8  -3  -6   20.90    2.80
   8   3  -6   17.70    3.00
  -8   3   6   33.00    4.30
   8   3  -6   17.50    2.70
   8   3  -6   22.00    3.10
   7  -3  -6   42.80    3.40
  -7  -3   6   44.90    2.50
   7  -3  -6   44.80    4.30
  -7  -3   6   45.70    3.20
   7  -3  -6   46.00    3.00
   7   3  -6   52.09    4.10
   7   3  -6   40.20    3.90
   7   3  -6   40.70    3.80
  -7   3   6   35.70    4.30
  -6  -3   6   46.60    3.40
   6  -3  -6   42.80    3.40
   6  -3  -6   42.70    4.00
  -6  -3   6   42.00    2.30
   6  -3  -6   43.10    2.80
   6   3  -6   46.80    3.60
   6   3  -6   42.30    3.70
  -6   3   6   45.80    4.60
   6   3  -6   44.50    3.90
  -6   3   6   43.20    2.10
  -5  -3   6    4.10    1.50
   5  -3  -6    4.70    1.40
   5  -3  -6    2.60    1.50
   5  -3  -6    2.30    1.60
  -5   3   6    2.60    2.20
   5   3  -6    1.80    1.60
   5   3  -6    3.30    1.70
   5   3  -6    6.40    1.70
  -5   3   6    5.60    1.40
   4  -3  -6  101.69    5.60
  -4  -3   6   97.29    4.80
  -4  -3   6  100.39    5.00
   4  -3  -6   94.99    5.00
   4   3  -6  107.49    5.10
   4   3  -6  101.59    5.40
  -4   3   6  101.69    5.80
   4   3  -6   99.79    5.20
  -4   3   6  106.79    4.30
   3  -3  -6   15.60    1.70
  -3  -3   6   12.20    2.00
   3  -3  -6   14.40    2.40
  -3  -3   6    7.80    1.60
   3  -3  -6   13.00    2.20
  -3   3   6   13.30    2.50
  -3   3   6   11.60    1.80
   3   3  -6   10.50    1.80
   3   3  -6    9.70    2.20
   3   3  -6    9.70    2.10
  -3   3   6   13.20    2.30
   2  -3  -6    8.60    1.40
   2  -3  -6    3.60    1.50
  -2  -3   6    6.50    1.70
  -2  -3   6    6.20    1.40
   2  -3  -6    5.30    1.60
  -2   3   6    6.00    1.50
   2   3  -6    6.20    1.70
  -2   3   6    2.70    1.30
   2   3  -6    5.00    1.50
  -2   3   6    3.10    1.60
   1  -3  -6  148.79    5.20
  -1  -3   6  136.89    6.40
  -1  -3   6  139.09    5.60
   1  -3  -6  136.59    6.40
   1  -3  -6  142.49    6.20
  -1   3   6  134.69    6.20
  -1   3   6  137.19    6.80
   1   3  -6  145.79    5.90
   1   3  -6  140.99    6.30
  -1   3   6  138.59    5.70
   0  -3  -6   43.80    3.50
   0  -3  -6   44.40    3.20
   0  -3   6   47.70    3.60
   0  -3   6   35.70    2.70
   0   3  -6   39.00    2.80
   0   3  -6   46.80    3.30
   0   3   6   42.10    3.20
   0   3   6   52.29    3.20
   0   3   6   43.30    3.80
   1  -3   6   47.70    2.30
  -1  -3  -6   46.40    3.60
   1  -3   6   52.49    2.90
  -1  -3  -6   45.60    3.30
   1  -3   6   45.00    3.60
  -1   3  -6   48.20    2.10
   1   3   6   48.40    3.30
  -1   3  -6   44.90    3.20
   1   3   6   47.40    3.30
   1   3   6   47.50    4.10
  -1   3  -6   47.60    3.00
   2  -3   6   49.70    2.90
  -2  -3  -6   49.90    3.10
  -2  -3  -6   50.39    3.50
   2  -3   6   49.20    3.50
   2  -3   6   50.99    3.00
   2  -3   6   50.39    3.90
  -2  -3  -6   51.79    3.50
   2   3   6   53.09    3.60
  -2   3  -6   46.20    3.10
  -2   3  -6   49.80    2.40
  -2   3  -6   50.99    3.30
   2   3   6   56.09    3.40
   2   3   6   51.59    4.10
   3  -3   6   12.00    1.70
  -3  -3  -6   11.40    2.10
   3  -3   6    9.40    1.90
  -3  -3  -6   11.30    1.90
  -3  -3  -6   18.10    2.20
   3  -3   6    9.10    1.90
   3  -3   6   11.50    1.70
   3   3   6   14.80    2.20
   3   3   6    8.30    2.00
   3   3   6   12.90    1.80
   3   3   6   12.90    2.40
  -3   3  -6   10.80    1.70
  -3   3  -6   11.50    1.40
  -3   3  -6   13.00    1.90
   4  -3   6  104.59    4.30
   4  -3   6   99.49    5.60
   4  -3   6   91.59    5.00
  -4  -3  -6   98.89    4.60
  -4  -3  -6   98.29    4.90
   4  -3   6   98.69    4.90
  -4  -3  -6  102.59    5.10
  -4   3  -6   84.99    4.00
   4   3   6   99.49    5.30
  -4   3  -6   96.29    4.60
   4   3   6  107.79    5.70
  -4   3  -6   95.19    4.60
   4   3   6   99.19    4.80
   4   3   6  105.29    4.50
  -5  -3  -6  595.14   18.60
  -5  -3  -6  592.24   19.40
   5  -3   6  594.14   19.20
   5  -3   6  495.35   18.00
  -5  -3  -6  610.14   18.70
   5  -3   6  588.54   19.40
   5  -3   6  614.14   20.10
   5   3   6  610.34   19.10
  -5   3  -6  592.54   18.80
   5   3   6  562.74   19.70
  -5   3  -6  602.14   18.40
  -5   3  -6  594.64   18.60
   5   3   6  596.14   18.60
   6  -3   6   10.10    2.30
  -6  -3  -6    8.80    1.60
  -6  -3  -6   10.20    2.00
   6  -3   6   10.20    2.40
  -6  -3  -6    7.70    2.00
   6  -3   6    9.00    1.80
   6  -3   6    6.50    2.30
  -6   3  -6    9.20    1.80
   6   3   6   10.10    2.50
   6   3   6    7.70    2.00
   6   3   6    8.00    1.90
   6   3   6    8.30    2.20
  -6   3  -6   11.50    1.90
  -6   3  -6    8.10    1.70
   7  -3   6  282.67    9.70
  -7  -3  -6  279.27   10.20
   7  -3   6  274.17   10.80
   7  -3   6  284.87   11.30
  -7  -3  -6  280.27   10.80
   7  -3   6  283.87   11.40
   7   3   6  283.77   11.40
  -7   3  -6  287.87   10.40
   7   3   6  263.77   11.10
  -7   3  -6  281.47   10.10
   7   3   6  272.47   10.20
   7   3   6  269.77   10.50
   8  -3   6    3.10    2.00
  -8  -3  -6    1.70    1.70
   8  -3   6   -0.70    1.60
   8  -3   6    3.50    2.20
   8  -3   6   -1.70    2.40
  -8  -3  -6    5.30    1.90
   8   3   6    6.10    1.90
  -8   3  -6    5.90    1.80
  -8   3  -6    3.00    2.10
   8   3   6    1.10    1.80
   8   3   6    0.70    1.90
   8   3   6    5.20    2.20
  -9  -3  -6   85.39    4.90
   9  -3   6   80.39    6.10
  -9  -3  -6   80.89    5.20
   9  -3   6   79.89    4.40
   9  -3   6   83.39    6.40
   9  -3   6   80.99    5.20
  -9   3  -6   85.29    4.90
   9   3   6   92.49    6.40
   9   3   6   76.59    5.60
   9   3   6   87.99    5.70
   9   3   6   81.79    5.10
  -9   3  -6   84.99    5.50
  10  -3   6    7.70    3.00
  10  -3   6    8.80    2.70
 -10  -3  -6    8.80    2.00
 -10  -3  -6    6.30    2.10
  10  -3   6    6.00    2.00
  10  -3   6    9.40    3.90
  10   3   6    6.40    2.90
  10   3   6    9.20    2.80
 -10   3  -6    8.30    2.10
  10   3   6    6.70    2.50
 -10   3  -6    3.30    2.50
  10   3   6    4.60    2.50
  11  -3   6   39.30    4.10
 -11  -3  -6   39.80    3.90
  11  -3   6   40.90    3.50
 -11  -3  -6   36.60    3.80
  11  -3   6   38.10    5.20
  11  -3   6   45.40    5.90
  11  -3   6   33.20    3.70
  11   3   6   37.30    4.40
  11   3   6   38.60    5.50
 -11   3  -6   45.80    4.00
 -11   3  -6   35.40    4.80
  11   3   6   40.10    5.30
  11   3   6   30.40    4.00
 -12  -3  -6    6.30    2.30
  12  -3   6    4.70    2.00
  12  -3   6    2.70    2.40
  12  -3   6    7.10    2.30
  12  -3   6    4.40    4.40
 -12  -3  -6    5.90    2.30
  12  -3   6    9.60    4.10
  12   3   6    2.50    3.70
 -12   3  -6    5.80    2.90
 -12   3  -6    4.70    2.10
  12   3   6    2.50    2.60
  12   3   6    7.60    2.50
  12   3   6    8.20    3.30
  13  -3   6   14.70    2.70
 -13  -3  -6    7.60    2.60
  13  -3   6   16.70    4.20
  13  -3   6    6.40    3.00
  13  -3   6    6.50    2.80
 -13  -3  -6   10.60    2.70
  13   3   6    9.00    3.30
 -13   3  -6   12.20    2.70
 -13   3  -6    1.30    3.60
  13   3   6    5.70    4.10
  13   3   6    7.50    4.30
  13   3   6    8.60    2.80
  14  -3   6   33.60    8.00
  14  -3   6   37.10    4.50
  14  -3   6   31.30    5.30
 -14  -3  -6   28.50    4.40
  14  -3   6   36.50    4.90
 -14  -3  -6   26.70    3.90
  14   3   6   40.30    5.20
 -14   3  -6   31.30    4.20
  14   3   6   34.50    5.10
  14   3   6   27.60    5.80
 -14   3  -6   20.90    4.90
  12  -4  -6    5.90    4.30
  12  -4  -6    1.40    2.50
 -12  -4   6    0.10    2.40
  12  -4  -6    6.10    2.70
 -12   4   6    7.80    5.50
  12   4  -6   -3.20    2.60
  12   4  -6    1.20    2.80
  11  -4  -6    4.40    3.90
  11  -4  -6    4.10    2.50
 -11  -4   6    4.20    2.30
  11  -4  -6    3.20    2.30
  11   4  -6    2.50    2.60
  11   4  -6    5.80    3.30
 -11   4   6   11.90    4.80
  11   4  -6    8.50    3.60
 -10  -4   6    0.80    2.00
  10  -4  -6    1.10    3.40
 -10  -4   6    3.10    2.10
  10  -4  -6    1.50    1.90
  10  -4  -6    3.70    2.40
  10   4  -6    5.20    2.80
  10   4  -6   -0.30    2.50
 -10   4   6    0.40    4.20
  10   4  -6    2.00    2.40
   9  -4  -6   19.40    2.90
  -9  -4   6   20.40    2.70
   9  -4  -6   21.80    3.70
   9  -4  -6   23.20    3.60
  -9  -4   6   26.90    3.10
   9   4  -6   14.60    3.00
   9   4  -6   30.60    5.00
  -9   4   6   22.50    4.80
   9   4  -6   24.90    3.90
  -8  -4   6    4.70    2.20
   8  -4  -6    3.10    2.80
   8  -4  -6    3.60    1.70
   8  -4  -6    3.00    2.10
  -8  -4   6    5.00    2.20
  -8   4   6    5.40    3.30
   8   4  -6    3.40    2.40
   8   4  -6    6.80    2.90
   8   4  -6    4.50    2.40
   7  -4  -6    4.00    1.90
   7  -4  -6   -5.50    2.50
  -7  -4   6   -0.50    2.20
   7  -4  -6   -0.60    1.70
  -7  -4   6    1.70    1.90
   7   4  -6    2.20    2.00
   7   4  -6    1.50    2.20
   7   4  -6    0.80    2.10
   6  -4  -6   74.09    6.40
   6  -4  -6   77.69    4.20
  -6  -4   6   72.79    4.90
   6  -4  -6   79.09    5.10
  -6  -4   6   70.29    5.10
   6   4  -6   68.99    5.10
   6   4  -6   83.69    5.50
  -6   4   6   69.99    3.80
  -6   4   6   85.39    6.30
   6   4  -6   67.49    5.20
  -5  -4   6   -0.30    1.60
   5  -4  -6    4.70    2.90
   5  -4  -6    0.50    1.70
  -5  -4   6    1.70    2.00
   5  -4  -6   -1.70    1.50
  -5   4   6    0.30    2.00
   5   4  -6   -0.90    1.80
  -5   4   6    1.20    1.80
   5   4  -6    3.00    1.80
   5   4  -6    0.70    2.00
  -4  -4   6    1.20    1.40
  -4  -4   6    7.10    2.30
   4  -4  -6    1.50    2.50
   4  -4  -6    3.70    1.60
   4  -4  -6    2.70    1.80
  -4   4   6   -2.00    1.80
   4   4  -6    2.50    1.70
   4   4  -6    3.70    2.40
  -4   4   6    1.50    2.20
  -4   4   6   -3.30    1.90
  -3  -4   6   29.90    3.20
   3  -4  -6   39.50    2.90
   3  -4  -6   41.80    4.80
   3  -4  -6   35.90    3.60
  -3  -4   6   37.40    4.10
  -3   4   6   38.60    3.30
   3   4  -6   40.60    3.70
  -3   4   6   41.80    4.50
   3   4  -6   38.60    3.80
  -3   4   6   40.30    4.20
  -2  -4   6   48.00    4.40
   2  -4  -6   39.60    2.80
  -2  -4   6   38.80    3.40
   2  -4  -6   34.40    4.30
   2  -4  -6   36.10    3.60
  -2   4   6   37.50    3.30
   2   4  -6   37.40    3.80
  -2   4   6   36.00    3.80
   2   4  -6   34.30    3.60
  -2   4   6   39.30    4.50
  -1  -4   6   17.30    2.90
   1  -4  -6   18.10    2.30
  -1  -4   6   20.10    2.70
   1  -4  -6   15.50    2.60
   1  -4  -6   17.80    2.80
   1   4  -6   14.70    2.70
  -1   4   6   21.00    2.80
   1   4  -6   16.10    2.40
  -1   4   6   16.20    2.50
  -1   4   6   12.50    2.60
   0  -4   6  117.19    5.60
   0  -4  -6  120.19    6.20
   0  -4   6  120.79    6.80
   0  -4  -6  127.29    6.70
   0  -4  -6  122.59    5.20
   0   4  -6  103.79    5.90
   0   4  -6  127.69    5.90
   0   4   6  129.29    7.50
   0   4   6  114.59    5.90
   0   4   6  123.89    5.80
  -1  -4  -6  146.09    7.30
  -1  -4  -6  135.69    6.80
   1  -4   6  132.49    6.10
   1   4   6  142.99    6.30
  -1   4  -6  143.89    6.50
   1   4   6  144.19    6.80
  -1   4  -6  137.39    6.60
   1   4   6  141.49    7.70
   2  -4   6   28.60    3.20
   2  -4   6   29.90    3.20
  -2  -4  -6   33.80    4.10
   2  -4   6   35.10    4.20
  -2  -4  -6   32.60    3.40
   2   4   6   30.30    3.60
  -2   4  -6   35.70    3.60
   2   4   6   28.80    3.20
   2   4   6   29.80    4.60
  -2   4  -6   35.80    3.20
  -2   4  -6   30.00    1.90
   3  -4   6  253.77    9.20
  -3  -4  -6  255.87   10.50
  -3  -4  -6  259.57   10.30
   3  -4   6  249.18   10.20
   3  -4   6  255.77   11.00
   3  -4   6  252.57    9.40
   3   4   6  246.48   10.40
   3   4   6  257.47   11.20
   3   4   6  258.47    9.50
  -3   4  -6  251.27    9.90
  -3   4  -6  259.87    9.90
  -3   4  -6  257.97    8.40
  -4  -4  -6   59.49    4.70
   4  -4   6   69.09    4.10
  -4  -4  -6   63.59    4.60
  -4  -4  -6   65.59    4.00
   4  -4   6   70.89    4.40
   4  -4   6   54.19    4.30
   4  -4   6   64.39    5.70
   4   4   6   65.39    4.80
   4   4   6   54.79    3.90
  -4   4  -6   67.89    3.30
  -4   4  -6   70.69    4.70
   4   4   6   64.09    5.40
  -4   4  -6   60.49    4.10
  -5  -4  -6   30.10    3.10
   5  -4   6   23.70    3.50
   5  -4   6   28.70    2.90
   5  -4   6   25.70    3.70
   5  -4   6   30.70    3.50
  -5  -4  -6   32.50    3.60
  -5  -4  -6   35.40    4.10
  -5   4  -6   32.00    2.70
   5   4   6   35.80    3.30
   5   4   6   32.10    4.10
  -5   4  -6   27.80    3.00
  -5   4  -6   29.30    3.70
   5   4   6   32.30    4.30
   5   4   6   32.70    3.30
   6  -4   6    1.50    2.70
   6  -4   6   -1.90    1.80
  -6  -4  -6    0.20    1.70
   6  -4   6    0.30    2.30
   6  -4   6   -1.10    1.60
  -6  -4  -6    0.00    1.90
  -6  -4  -6   -0.70    1.70
   6   4   6   -1.10    1.70
  -6   4  -6    2.00    1.70
   6   4   6    0.10    2.00
  -6   4  -6    1.10    1.40
   6   4   6    3.30    2.10
   6   4   6   -2.10    2.20
  -6   4  -6   -0.80    1.80
   7  -4   6   -1.60    1.80
   7  -4   6    0.30    2.40
  -7  -4  -6   -3.40    1.80
  -7  -4  -6    1.80    1.90
   7  -4   6    3.80    2.00
   7  -4   6    1.50    2.70
  -7  -4  -6    2.00    2.20
   7   4   6   -1.00    2.00
   7   4   6   -4.30    2.90
  -7   4  -6    0.90    2.00
   7   4   6    2.90    2.40
   7   4   6    0.20    2.30
  -7   4  -6    1.90    1.90
  -7   4  -6    0.10    1.40
  -8  -4  -6  177.08    6.90
   8  -4   6  169.88    9.10
   8  -4   6  168.78    9.80
   8  -4   6  163.98    7.00
  -8  -4  -6  163.98    7.30
  -8  -4  -6  165.38    8.30
   8  -4   6  153.58    7.90
   8   4   6  185.58    9.70
  -8   4  -6  155.78    7.20
   8   4   6  167.18    7.70
   8   4   6  159.78    7.70
   8   4   6  162.28    8.50
  -8   4  -6  161.88    7.90
  -9  -4  -6   -0.10    2.20
   9  -4   6    0.40    2.00
   9  -4   6   -4.70    3.30
  -9  -4  -6   -1.50    2.00
   9  -4   6    0.30    3.20
   9  -4   6   -4.40    1.90
   9   4   6   -0.30    2.30
   9   4   6    3.60    2.70
  -9   4  -6    2.10    1.70
   9   4   6   -2.40    3.40
   9   4   6    3.20    2.60
  -9   4  -6    1.90    2.50
  10  -4   6   11.00    2.60
 -10  -4  -6    9.20    2.70
  10  -4   6   10.40    4.60
  10  -4   6    8.90    2.70
  10  -4   6   13.30    4.30
 -10  -4  -6   15.80    3.00
  10   4   6   10.70    3.00
  10   4   6   15.60    3.30
 -10   4  -6    5.90    2.40
  10   4   6   19.30    4.00
 -10   4  -6    8.30    3.00
  10   4   6   10.40    3.20
  11  -4   6   31.10    5.80
 -11  -4  -6   36.10    4.40
 -11  -4  -6   40.50    4.40
  11  -4   6   45.60    4.40
  11  -4   6   39.70    6.10
  11  -4   6   36.40    3.80
  11  -4   6   31.10    4.10
 -11   4  -6   44.90    5.90
  11   4   6   30.10    4.20
  11   4   6   22.70    4.10
  11   4   6   33.30    4.70
 -11   4  -6   26.10    3.60
  11   4   6   40.90    5.90
  12  -4   6   47.00    6.70
  12  -4   6   54.79    7.40
 -12  -4  -6   49.70    5.00
  12  -4   6   48.30    5.30
  12  -4   6   50.49    4.80
 -12  -4  -6   51.99    5.10
  12   4   6   47.10    5.10
  12   4   6   61.99    7.10
 -12   4  -6   58.19    4.90
  12   4   6   47.30    6.50
  12   4   6   42.50    5.40
 -12   4  -6   58.29    7.10
 -10  -5   6   14.20    3.80
 -10  -5   6   15.50    3.80
  10  -5  -6    9.80    3.10
  10  -5  -6    2.30    5.70
  10  -5  -6   15.50    3.20
 -10   5   6   11.70    6.10
  10   5  -6   12.90    5.30
  10   5  -6    8.30    3.30
  10   5  -6   12.00    3.40
  -9  -5   6    1.40    2.10
  -9  -5   6   -5.30    3.30
   9  -5  -6    0.20    4.20
   9  -5  -6    0.20    2.30
   9  -5  -6   -0.30    2.30
  -9   5   6   -0.60    4.60
   9   5  -6   -5.60    3.60
   9   5  -6   -3.50    2.70
   9   5  -6    0.80    2.90
   8  -5  -6   -7.90    3.90
   8  -5  -6    1.00    2.30
   8  -5  -6   -0.80    2.10
  -8  -5   6   -0.20    2.10
   8   5  -6    2.90    2.60
  -8   5   6   -5.40    3.90
   8   5  -6    0.50    2.80
   8   5  -6   -0.20    3.40
  -7  -5   6   10.60    3.00
   7  -5  -6    8.90    3.10
   7  -5  -6    8.90    2.30
   7  -5  -6    7.60    4.00
  -7  -5   6    6.50    3.60
  -7   5   6   17.00    4.20
   7   5  -6    4.30    2.60
  -7   5   6    4.20    5.20
   7   5  -6    9.70    3.70
  -6  -5   6   44.30    4.50
   6  -5  -6   41.00    4.00
   6  -5  -6   51.69    7.30
  -6  -5   6   41.00    5.90
   6  -5  -6   34.50    4.20
   6   5  -6   45.70    6.00
  -6   5   6   56.59    3.90
  -6   5   6   40.90    5.80
  -6   5   6   42.10    6.60
   6   5  -6   38.90    4.80
   5  -5  -6  113.69    8.50
  -5  -5   6  107.79    7.50
  -5  -5   6   99.09    6.20
   5  -5  -6  109.49    5.70
   5  -5  -6  102.89    6.60
  -5   5   6  103.89    5.50
   5   5  -6  106.49    7.00
  -5   5   6  123.89    7.80
  -5   5   6  110.49    8.30
   5   5  -6   97.49    6.90
  -4  -5   6    1.80    2.90
   4  -5  -6    5.40    2.10
  -4  -5   6    2.00    2.10
   4  -5  -6    2.80    3.50
   4  -5  -6    2.60    2.30
  -4   5   6   -1.00    3.40
   4   5  -6    7.40    2.90
  -4   5   6    3.40    2.50
   4   5  -6    2.00    2.40
  -4   5   6    4.70    2.90
   3  -5  -6   33.70    3.20
   3  -5  -6   38.60    4.20
  -3  -5   6   26.10    4.20
  -3  -5   6   26.50    3.90
   3  -5  -6   22.00    4.20
  -3   5   6   21.00    3.30
   3   5  -6   26.40    3.90
  -3   5   6   22.20    4.00
   3   5  -6   29.90    4.50
  -3   5   6   29.90    3.90
   2  -5  -6   88.29    4.90
   2  -5  -6   87.59    7.20
   2  -5  -6   81.39    5.60
  -2  -5   6   83.89    5.50
  -2  -5   6   84.39    7.30
  -2   5   6   83.49    5.30
   2   5  -6   73.49    6.00
  -2   5   6  101.69    7.80
   2   5  -6   84.09    5.90
  -2   5   6   84.49    5.70
   1  -5  -6  193.88    7.90
  -1  -5   6  194.38   10.30
   1  -5  -6  206.48   10.50
   1  -5  -6  190.88    9.00
  -1  -5   6  186.28    8.50
  -1   5   6  194.18    8.40
   1   5  -6  191.68    9.10
   1   5  -6  192.28    9.10
  -1   5   6  183.18    8.50
  -1   5   6  203.18   11.00
   0  -5  -6   21.30    3.30
   0  -5  -6   27.80    3.10
   0  -5  -6   25.80    3.90
   0  -5   6   20.50    3.80
   0  -5   6   22.30    3.20
   0   5   6   20.00    3.40
   0   5   6   28.00    3.90
   0   5  -6   19.40    3.30
   0   5  -6   20.30    3.30
   0   5   6   24.70    4.60
   1  -5   6   57.69    4.60
  -1  -5  -6   61.89    6.20
   1  -5   6   57.09    4.60
   1  -5   6   54.09    6.40
  -1  -5  -6   51.99    4.90
  -1   5  -6   56.09    4.70
  -1   5  -6   65.79    5.20
   1   5   6   61.09    5.00
   1   5   6   53.89    4.40
   1   5   6   57.49    6.90
   2  -5   6   22.70    3.40
  -2  -5  -6   18.00    3.30
  -2  -5  -6   37.90    5.70
   2  -5   6   28.20    3.50
   2  -5   6   36.50    5.30
   2   5   6   27.10    3.60
  -2   5  -6   17.50    3.00
   2   5   6   33.60    5.10
   2   5   6   28.40    3.90
  -2   5  -6   25.10    3.70
   3  -5   6    3.50    2.30
   3  -5   6    0.10    3.50
   3  -5   6   -4.40    1.90
  -3  -5  -6    3.50    2.80
  -3  -5  -6    0.30    2.20
  -3   5  -6    1.20    2.60
   3   5   6   -1.20    2.00
  -3   5  -6    0.90    2.40
   3   5   6    4.40    3.40
   3   5   6   -2.70    2.50
  -4  -5  -6   13.10    3.00
   4  -5   6   11.00    2.60
   4  -5   6   14.40    4.30
   4  -5   6   18.40    3.10
  -4  -5  -6   13.80    3.40
  -4   5  -6   17.50    2.00
   4   5   6   18.50    2.60
  -4   5  -6   16.90    2.80
   4   5   6   15.90    3.40
  -4   5  -6   20.30    3.20
   4   5   6   12.30    3.60
   5  -5   6   10.60    4.00
  -5  -5  -6    9.30    3.40
  -5  -5  -6    8.00    2.80
   5  -5   6   10.60    2.50
   5  -5   6    8.80    2.20
  -5   5  -6   13.90    2.10
   5   5   6    8.60    2.60
  -5   5  -6   16.20    3.20
   5   5   6   10.70    3.50
   5   5   6   13.90    2.30
  -5   5  -6   14.40    2.70
   6  -5   6   11.20    2.60
   6  -5   6    9.00    4.20
   6  -5   6    4.40    2.30
  -6  -5  -6    3.60    2.10
  -6  -5  -6    5.30    3.30
  -6   5  -6    5.10    1.90
  -6   5  -6    7.30    2.50
   6   5   6    5.20    2.80
   6   5   6    2.40    2.80
  -6   5  -6    5.20    3.40
   6   5   6    5.40    4.00
   7  -5   6   17.60    3.00
  -7  -5  -6   17.80    3.20
  -7  -5  -6   22.20    3.30
   7  -5   6   22.80    5.50
   7  -5   6   16.00    3.00
  -7  -5  -6   16.80    3.90
  -7   5  -6   15.90    2.50
   7   5   6   20.10    3.60
  -7   5  -6   22.60    3.20
   7   5   6   15.40    4.70
   7   5   6   13.30    2.90
   7   5   6   13.00    3.20
  -7   5  -6   24.40    4.10
   8  -5   6   20.40    5.60
  -8  -5  -6   22.90    3.60
   8  -5   6   25.00    4.00
   8  -5   6   23.70    3.60
  -8  -5  -6   20.10    3.80
  -8  -5  -6   24.70    3.50
   8  -5   6   23.10    4.90
   8   5   6   21.80    3.50
   8   5   6   22.30    4.00
  -8   5  -6   21.50    4.20
   8   5   6   22.60    5.10
  -8   5  -6   24.10    3.00
   8   5   6   25.00    4.20
  -9  -5  -6    4.30    3.20
   9  -5   6   -1.20    2.70
   9  -5   6    1.40    5.30
  -9  -5  -6    0.80    2.80
   9  -5   6   -1.40    2.50
   9  -5   6    5.30    5.20
  -9   5  -6    8.60    3.80
   9   5   6   -2.40    3.00
   9   5   6   -3.00    3.00
  -9   5  -6   -2.10    2.10
   9   5   6   -1.90    3.30
   9   5   6   -1.80    5.50
   5  -6  -6    3.00    3.70
  -5  -6   6   18.50    5.50
   5  -6  -6    7.20    2.90
   5  -6  -6   14.30    3.20
  -5  -6   6    7.30    3.20
  -5   6   6    6.60    7.70
  -5   6   6    6.70    4.30
   5   6  -6   17.50    4.30
   5   6  -6   14.50    3.80
  -5   6   6   10.50    3.30
   4  -6  -6   15.50    7.20
  -4  -6   6    7.60    2.90
   4  -6  -6    2.60    3.00
  -4  -6   6    5.00    4.90
   4  -6  -6    2.80    2.60
  -4   6   6   -9.10    5.70
   4   6  -6    2.10    3.00
  -4   6   6    2.90    3.10
  -4   6   6   10.80    4.10
   4   6  -6    6.50    4.50
   3  -6  -6    8.50    3.40
  -3  -6   6    1.10    5.00
   3  -6  -6    6.30    2.80
   3  -6  -6   10.70    4.80
  -3  -6   6    4.90    2.80
   3   6  -6    8.10    3.30
   3   6  -6   11.60    4.30
  -3   6   6    4.50    5.70
  -3   6   6    1.70    4.00
  -3   6   6    9.00    3.70
   2  -6  -6   28.00    3.60
  -2  -6   6   25.90    4.00
  -2  -6   6   31.30    6.20
   2  -6  -6   14.60    5.00
   2  -6  -6   19.10    4.00
  -2   6   6   26.50    4.10
  -2   6   6   27.20    4.00
   2   6  -6   29.80    4.90
  -2   6   6   25.40    6.10
   2   6  -6   27.60    4.90
   1  -6  -6    4.70    4.90
   1  -6  -6    4.50    2.90
  -1  -6   6    5.60    5.00
   1  -6  -6    4.70    2.90
  -1  -6   6    2.60    2.60
  -1   6   6    2.30    2.90
  -1   6   6    6.80    3.20
   1   6  -6    0.80    2.70
   1   6  -6    5.70    3.70
  -1   6   6   -1.30    5.00
   0  -6   6   -3.60    2.50
   0  -6  -6    1.40    2.80
   0  -6   6    3.10    5.00
   0  -6  -6    0.60    2.60
   0  -6  -6   -4.00    4.80
   0  -6   6   -1.10    2.30
   0   6   6   -0.50    2.70
   0   6  -6   -1.60    2.70
   0   6   6   -2.70    5.20
   0   6  -6    1.70    3.30
   0   6   6   -1.50    3.20
   1  -6   6   -0.80    2.60
  -1  -6  -6    0.90    2.70
  -1  -6  -6   -1.70    4.90
  -1  -6  -6    6.10    2.80
   1  -6   6   -0.40    5.40
   1  -6   6    0.20    2.50
   1   6   6    4.10    3.00
  -1   6  -6    0.90    2.70
   1   6   6   -1.60    2.60
  -1   6  -6    2.40    3.50
   1   6   6    8.60    4.90
  -2  -6  -6   22.60    3.40
  -2  -6  -6   15.60    5.70
   2  -6   6   13.90    5.90
  -2  -6  -6   13.30    3.50
   2  -6   6   10.20    2.90
   2  -6   6   16.80    3.20
  -2   6  -6   18.30    3.50
  -2   6  -6   18.10    4.10
   2   6   6   24.60    5.60
   2   6   6   17.10    4.40
   2   6   6   15.30    2.90
  -3  -6  -6    7.50    4.70
  -3  -6  -6    1.00    2.80
   3  -6   6   -2.00    3.00
   3  -6   6    0.60    2.80
   3  -6   6   -3.50    5.70
  -3   6  -6   -5.10    2.80
  -3   6  -6    1.30    3.50
   3   6   6   -5.10    3.00
   3   6   6    0.90    5.60
   3   6   6   -3.00    2.60
   4  -6   6   -0.90    6.00
   4  -6   6    4.20    2.90
   4  -6   6    1.50    2.70
  -4  -6  -6    2.50    4.60
  -4  -6  -6    0.60    2.40
  -4   6  -6    0.30    2.70
   4   6   6    5.10    3.30
   4   6   6    4.90    5.10
  -4   6  -6    0.20    3.60
   4   6   6    1.50    3.30
  16   0  -7   -0.30    2.50
  16   0  -7    0.10    2.40
 -16   0   7    2.40    2.10
  16   0  -7    1.70    5.80
 -16   0   7    0.50    5.00
 -15   0   7    0.00    1.90
  15   0  -7    0.80    2.30
  15   0  -7    0.80    4.10
 -15   0   7   -3.80    3.60
  15   0  -7   -0.10    2.40
  15   0  -7    2.70    2.70
  14   0  -7   -1.90    1.90
  14   0  -7   -1.00    2.20
 -14   0   7   -2.30    3.20
  14   0  -7    1.10    2.10
  14   0  -7   -0.10    3.50
 -13   0   7   -0.50    2.30
  13   0  -7   -1.00    1.90
  13   0  -7    2.30    3.30
  13   0  -7    2.40    2.10
  13   0  -7    0.30    1.80
 -12   0   7   -1.60    2.00
  12   0  -7    1.40    1.90
  12   0  -7   -2.10    1.70
  12   0  -7   -0.80    1.90
  12   0  -7   -0.10    2.70
  11   0  -7   69.09    3.70
  11   0  -7   69.39    4.60
  11   0  -7   73.19    6.00
  11   0  -7   67.89    4.40
 -11   0   7   69.59    5.20
  10   0  -7    0.90    1.70
  10   0  -7    3.80    2.20
  10   0  -7    1.90    1.50
  10   0  -7   -0.50    1.60
 -10   0   7   -0.30    1.60
   9   0  -7  279.67    9.10
  -9   0   7  268.27   10.80
   9   0  -7  268.07   10.00
   9   0  -7  255.97    9.90
   9   0  -7  274.57   11.20
  -8   0   7    0.00    1.10
   8   0  -7   -0.80    1.10
   8   0  -7   -0.30    1.00
   7   0  -7    6.20    1.50
   7   0  -7    8.00    1.40
   7   0  -7    7.80    1.30
   6   0  -7   -0.60    0.90
   6   0  -7   -0.50    0.80
   6   0  -7    0.50    1.00
  -6   0   7    0.60    0.90
   5   0  -7   10.50    1.50
   5   0  -7    9.30    1.50
  -5   0   7   11.00    1.70
   5   0  -7   10.70    1.30
  -4   0   7   -0.30    0.60
   4   0  -7    0.00    0.90
   4   0  -7    0.60    0.90
   4   0  -7    1.50    0.80
   3   0  -7 1980.50   55.59
  -3   0   7 1820.92   55.99
   3   0  -7 1970.20   55.59
   3   0  -7 1918.91   55.59
   2   0  -7   -0.20    0.60
   2   0  -7   -0.30    0.70
  -2   0   7   -0.30    0.60
  -2   0   7   -0.30    0.80
   2   0  -7    1.70    0.80
   1   0  -7  470.85   13.70
  -1   0   7  432.16   13.90
   1   0  -7  459.25   14.20
  -1   0   7  442.66   14.50
   1   0  -7  464.75   13.70
   1   0  -7  473.65   14.00
   0   0   7    0.20    0.50
   0   0   7    0.20    0.90
   0   0  -7   -1.20    0.70
   0   0  -7    0.50    0.60
   1   0   7  657.83   19.60
   1   0   7  638.24   20.40
   1   0   7  668.83   19.60
  -1   0  -7  701.53   19.40
  -1   0  -7  669.73   20.10
   2   0   7   -0.80    0.80
  -2   0  -7    0.20    0.70
   2   0   7    0.30    0.40
  -2   0  -7   -0.10    0.50
   2   0   7    1.10    0.70
   2   0   7    0.30    0.70
   3   0   7   10.00    1.00
   3   0   7   13.50    1.40
  -3   0  -7   12.80    1.50
  -3   0  -7   10.50    1.00
   3   0   7   10.60    1.30
   3   0   7   13.50    1.90
   4   0   7    0.80    0.70
   4   0   7   -0.10    0.50
   4   0   7    0.00    1.00
   4   0   7   -0.10    1.00
   4   0   7   -0.20    0.90
  -4   0  -7   -0.80    0.90
   5   0   7   38.80    2.30
   5   0   7   38.10    2.30
   5   0   7   36.90    2.50
   5   0   7   36.30    2.00
   5   0   7   35.20    2.80
  -5   0  -7   35.30    2.50
   6   0   7   -0.20    0.70
   6   0   7    0.30    1.00
   6   0   7   -1.90    1.40
  -6   0  -7    0.90    1.00
   6   0   7   -0.40    1.00
   7   0   7  148.49    6.90
  -7   0  -7  147.49    6.30
   7   0   7  163.68    6.30
   7   0   7  156.48    5.80
   7   0   7  154.18    6.10
  -8   0  -7    0.00    1.20
   8   0   7   -1.60    1.10
   8   0   7    1.70    1.30
   8   0   7    1.10    1.00
   8   0   7   -0.10    1.40
   9   0   7   12.40    1.80
  -9   0  -7   10.10    2.00
   9   0   7    9.50    1.80
   9   0   7   10.80    2.30
   9   0   7   13.90    2.10
  10   0   7   -0.10    1.40
 -10   0  -7   -0.80    1.30
  10   0   7   -2.20    1.60
  10   0   7   -2.90    1.90
  10   0   7   -2.00    1.50
 -11   0  -7   99.49    5.50
  11   0   7   90.29    5.10
  11   0   7   99.99    4.80
  11   0   7   92.59    6.40
  11   0   7   90.59    5.30
  12   0   7    0.70    1.70
  12   0   7    0.40    3.00
  12   0   7    0.20    2.00
  12   0   7   -3.20    1.90
 -12   0  -7   -1.70    1.50
  13   0   7  228.98    8.10
  13   0   7  216.58    9.20
  13   0   7  230.78   11.70
 -13   0  -7  215.78    9.80
  13   0   7  201.68    9.60
  14   0   7   -1.40    2.40
  14   0   7    3.40    2.50
 -14   0  -7   -0.50    2.00
  14   0   7    9.50    4.40
  15   0   7   -0.80    5.50
  15   0   7    2.60    2.70
 -15   0  -7   -1.80    1.90
  15   0   7    5.50    2.70
 -15   0  -7    7.90    3.40
 -16  -1   7    0.00    4.60
  16  -1  -7    0.00    2.60
 -16  -1   7   -4.50    2.10
  16  -1  -7    2.40    2.60
  16   1  -7    9.30    5.30
 -16   1   7   -0.60    2.00
  16   1  -7    3.30    3.00
 -16   1   7   -1.60    5.70
  16   1  -7   -2.70    2.60
  16   1  -7    3.00    2.10
  15  -1  -7   53.39    4.70
 -15  -1   7   49.80    4.50
  15  -1  -7   45.00    4.90
  15   1  -7   57.79    8.50
 -15   1   7   46.10    7.50
  15   1  -7   53.69    4.80
  15   1  -7   44.30    4.90
  15   1  -7   50.99    4.70
  14  -1  -7   -0.30    2.00
 -14  -1   7    1.80    2.00
  14  -1  -7   -4.30    3.70
  14  -1  -7   -1.80    1.80
  14  -1  -7    2.60    2.10
  14   1  -7    2.30    3.90
  14   1  -7    0.30    2.60
  14   1  -7    0.20    2.20
  14   1  -7   -1.90    1.60
 -14   1   7    3.90    3.20
  13  -1  -7   17.80    2.50
  13  -1  -7   18.30    3.00
 -13  -1   7   18.40    2.80
  13  -1  -7   18.00    3.00
  13  -1  -7   22.90    5.30
  13   1  -7   15.40    2.80
  13   1  -7   25.50    3.30
  13   1  -7   19.50    3.60
  13   1  -7   30.60    4.60
 -13   1   7   21.30    4.50
  12  -1  -7   -2.60    3.10
  12  -1  -7    1.10    1.80
  12  -1  -7   -1.80    1.60
  12  -1  -7    1.70    1.70
  12   1  -7   -0.40    2.80
  12   1  -7   -0.90    1.50
  12   1  -7   -0.50    2.20
  12   1  -7   -2.10    1.90
 -12   1   7   -0.30    2.40
  11  -1  -7  252.67    9.50
 -11  -1   7  251.67    8.10
  11  -1  -7  262.77   12.20
  11  -1  -7  246.58   10.10
  11  -1  -7  245.48    9.90
  11   1  -7  251.17   10.10
  11   1  -7  253.27    9.60
 -11   1   7  259.07   11.20
  11   1  -7  242.88   10.30
  11   1  -7  266.57   11.40
  10  -1  -7  106.49    5.20
  10  -1  -7  103.39    5.50
 -10  -1   7  111.49    4.10
  10  -1  -7   98.39    5.20
  10   1  -7  105.89    5.60
  10   1  -7   98.69    5.30
  10   1  -7  116.79    6.50
 -10   1   7   97.19    6.30
  10   1  -7  109.79    5.40
  -9  -1   7  480.85   14.60
   9  -1  -7  476.85   15.80
   9  -1  -7  460.55   15.90
   9  -1  -7  469.35   15.60
   9   1  -7  459.65   15.90
  -9   1   7  479.25   17.00
   9   1  -7  504.05   15.80
   9   1  -7  478.95   16.80
   9   1  -7  471.95   16.20
   8  -1  -7   -1.30    1.10
  -8  -1   7    0.20    0.80
   8  -1  -7    0.30    1.30
   8  -1  -7   -0.20    1.10
   8   1  -7    2.30    1.40
  -8   1   7   -0.10    1.20
   8   1  -7   -0.40    1.70
   8   1  -7   -0.50    1.10
   7  -1  -7   35.90    2.80
   7  -1  -7   44.90    2.60
  -7  -1   7   40.40    2.20
   7  -1  -7   38.70    2.90
  -7   1   7   34.10    3.30
   7   1  -7   33.30    2.60
   7   1  -7   41.30    3.00
   7   1  -7   36.40    2.80
   6  -1  -7  263.17    8.60
   6  -1  -7  241.18    9.00
  -6  -1   7  251.97    8.40
   6  -1  -7  256.77    9.10
   6   1  -7  276.77    9.10
   6   1  -7  258.17    9.20
   6   1  -7  240.58    8.70
  -6   1   7  247.68    9.70
   5  -1  -7  252.67    8.70
  -5  -1   7  242.58    8.20
   5  -1  -7  246.58    8.80
   5  -1  -7  257.67    8.20
   5   1  -7  244.68    8.80
   5   1  -7  238.88    8.40
   5   1  -7  251.07    8.70
  -5   1   7  244.28    9.30
   4  -1  -7  201.48    7.20
  -4  -1   7  191.78    6.80
   4  -1  -7  202.78    7.40
   4  -1  -7  218.38    6.60
   4   1  -7  192.28    7.10
   4   1  -7  192.98    7.20
   4   1  -7  195.68    6.80
  -4   1   7  190.68    7.60
   3  -1  -7   23.60    2.00
  -3  -1   7   23.30    2.00
   3  -1  -7   23.90    2.20
   3  -1  -7   25.40    1.50
  -3  -1   7   23.00    1.80
   3   1  -7   27.50    2.10
   3   1  -7   27.20    2.00
   3   1  -7   26.70    1.70
  -3   1   7   23.50    2.20
   2  -1  -7  113.09    3.60
   2  -1  -7  108.49    4.70
  -2  -1   7  113.09    4.50
  -2  -1   7  112.39    4.40
   2  -1  -7  107.29    4.40
  -2   1   7  114.59    4.90
   2   1  -7  117.09    4.00
   2   1  -7  113.49    4.50
   2   1  -7  114.89    4.50
  -2   1   7  112.69    4.00
  -2   1   7  102.99    5.10
   1  -1  -7  681.33   19.50
  -1  -1   7  623.74   19.40
  -1  -1   7  612.84   19.60
   1  -1  -7  630.94   19.80
  -1   1   7  631.14   20.20
   1   1  -7  660.93   19.70
  -1   1   7  646.24   19.90
  -1   1   7  661.43   19.30
   1   1  -7  651.33   19.20
   0  -1  -7   41.40    2.20
   0  -1   7   37.90    2.20
   0  -1   7   42.30    2.50
   0  -1  -7   40.80    2.50
   0  -1  -7   41.60    2.50
   0   1   7   41.00    2.60
   0   1  -7   38.90    2.10
   0   1   7   39.30    2.70
   0   1   7   42.00    2.30
   0   1  -7   39.30    2.30
   1  -1   7  332.57   10.60
  -1  -1  -7  335.47   10.40
  -1  -1  -7  333.87   10.70
   1  -1   7  320.47   10.80
  -1  -1  -7  318.87   10.70
   1   1   7  332.87   11.10
  -1   1  -7  342.07   10.40
   1   1   7  329.67   10.80
  -1   1  -7  320.87   10.60
   1   1   7  326.97    9.60
   1   1   7  329.17   10.60
  -2  -1  -7  990.90   28.50
   2  -1   7  925.91   28.90
  -2  -1  -7  971.00   28.80
   2  -1   7  985.10   28.60
   2  -1   7  947.91   28.80
  -2   1  -7  971.70   28.70
   2   1   7  990.80   28.80
   2   1   7  942.31   29.10
   2   1   7  963.30   27.80
  -2   1  -7  964.40   28.40
   2   1   7  941.61   28.80
   3  -1   7  245.88    8.50
   3  -1   7  229.78    8.30
   3  -1   7  249.18    8.20
  -3  -1  -7  234.48    8.20
  -3  -1  -7  240.58    8.00
   3   1   7  242.68    7.60
   3   1   7  236.98    8.30
   3   1   7  232.88    8.60
  -3   1  -7  245.98    8.10
   4  -1   7  124.69    4.00
  -4  -1  -7  131.19    4.80
  -4  -1  -7  127.19    5.00
   4  -1   7  116.79    5.10
   4  -1   7  129.19    5.50
   4  -1   7  126.89    5.00
   4   1   7  124.79    5.10
   4   1   7  120.49    5.10
   4   1   7  134.49    4.60
  -4   1  -7  112.29    4.80
  -4   1  -7  119.49    4.20
   4   1   7  123.49    5.40
  -5  -1  -7  659.53   20.40
   5  -1   7  646.14   20.50
   5  -1   7  649.43   20.90
   5  -1   7  669.73   19.30
  -5  -1  -7  667.93   20.10
   5  -1   7  670.33   20.40
  -5   1  -7  673.53   19.70
   5   1   7  664.83   19.90
  -5   1  -7  658.03   20.30
   5   1   7  646.24   20.90
   5   1   7  639.54   20.30
   5   1   7  645.74   20.60
   6  -1   7  227.78    8.20
   6  -1   7  216.58    8.70
  -6  -1  -7  217.68    8.20
   6  -1   7  234.38    7.20
   6  -1   7  229.78    8.30
   6   1   7  231.28    7.80
   6   1   7  214.18    8.60
   6   1   7  211.18    8.20
  -6   1  -7  219.18    8.00
   6   1   7  225.78    7.50
  -6   1  -7  213.48    7.50
   6   1   7  220.18    8.10
  -7  -1  -7  256.67    9.80
   7  -1   7  272.67    9.80
   7  -1   7  278.47    9.50
   7  -1   7  277.37    9.90
   7  -1   7  277.17   10.60
   7  -1   7  276.17    8.80
   7   1   7  280.17    9.00
  -7   1  -7  272.47    9.30
  -7   1  -7  273.57    9.80
   7   1   7  275.47   10.50
   7   1   7  271.97    9.50
   7   1   7  272.97    9.90
   7   1   7  270.57    9.70
  -8  -1  -7    9.60    1.90
   8  -1   7    9.10    1.90
   8  -1   7   15.00    2.00
   8  -1   7   12.30    2.00
   8  -1   7   12.30    1.60
   8  -1   7   11.20    2.20
   8   1   7   11.60    2.10
  -8   1  -7   11.10    1.60
   8   1   7    8.80    1.70
  -8   1  -7   12.90    2.10
   8   1   7    8.00    1.80
   8   1   7   10.40    1.60
   8   1   7    9.70    1.80
   9  -1   7    6.10    1.80
   9  -1   7    6.80    1.70
   9  -1   7    9.10    1.70
   9  -1   7    8.50    1.70
   9  -1   7   10.50    2.40
  -9  -1  -7    5.00    1.50
   9   1   7    7.50    1.30
   9   1   7    7.80    1.70
  -9   1  -7    9.10    2.10
   9   1   7    7.60    2.00
   9   1   7    6.60    1.90
   9   1   7    9.10    2.20
  -9   1  -7    9.40    1.80
  10  -1   7   87.69    4.90
  10  -1   7   81.69    5.00
  10  -1   7   94.29    6.20
  10  -1   7   85.09    4.10
  10  -1   7   88.69    4.60
 -10  -1  -7   81.89    4.90
  10   1   7   88.09    5.90
  10   1   7   84.89    3.60
  10   1   7   79.39    5.00
  10   1   7   85.19    4.90
 -10   1  -7   80.19    4.70
 -10   1  -7   79.99    4.90
  11  -1   7   -1.70    1.80
  11  -1   7   -1.40    2.50
  11  -1   7    1.10    1.80
 -11  -1  -7   -2.10    1.50
  11  -1   7    1.00    2.00
  11  -1   7   -0.60    1.50
 -11   1  -7    1.20    1.70
  11   1   7   -0.80    1.80
  11   1   7    0.00    1.90
  11   1   7   -3.80    2.60
 -11   1  -7    1.80    1.70
  12  -1   7   78.59    4.80
 -12  -1  -7   69.79    5.10
  12  -1   7   80.49    4.40
  12  -1   7   81.99    5.40
  12  -1   7   82.69    7.60
  12  -1   7   90.39    5.10
 -12   1  -7   76.39    5.20
  12   1   7   72.69    6.60
 -12   1  -7   85.19    5.30
  12   1   7   75.09    5.20
  12   1   7   71.99    5.00
  13  -1   7    2.60    2.30
  13  -1   7    2.50    2.00
  13  -1   7    4.20    2.30
  13  -1   7    6.00    3.80
 -13  -1  -7    2.30    1.80
  13  -1   7    2.10    2.20
 -13   1  -7    6.80    2.70
 -13   1  -7    2.10    1.70
  13   1   7    9.30    2.50
  13   1   7    8.40    3.60
  13   1   7    3.70    2.30
  14  -1   7   62.19    5.30
  14  -1   7   59.69    4.80
  14  -1   7   70.39    5.30
 -14  -1  -7   57.09    5.00
  14  -1   7   68.79    9.40
 -14   1  -7   70.09    6.10
  14   1   7   60.59    5.10
 -14   1  -7   57.09    4.90
  14   1   7   58.69    4.90
  14   1   7   49.10    7.90
  15  -1   7    2.80    2.80
  15  -1   7    6.90    3.10
 -15  -1  -7    9.70    2.80
  15  -1   7    8.40    3.10
  15   1   7    2.90    2.80
 -15   1  -7    2.10    2.80
  15   1   7    2.80    5.40
 -15   1  -7   -4.80    3.40
  15   1   7    5.10    3.10
  15  -2  -7    0.80    3.50
  15  -2  -7    1.10    2.40
 -15  -2   7    2.70    2.20
  15  -2  -7    1.20    2.90
  15   2  -7   -2.40    4.50
  15   2  -7    5.40    3.30
 -15   2   7    0.30    4.80
  15   2  -7    2.50    3.10
 -14  -2   7   12.50    2.30
  14  -2  -7   18.40    3.20
  14  -2  -7   12.70    3.10
  14  -2  -7    7.70    2.70
  14   2  -7   10.50    3.70
 -14   2   7    7.50    3.90
  14   2  -7    9.60    3.10
  14   2  -7   16.00    3.60
 -13  -2   7    8.90    2.40
  13  -2  -7   10.70    2.70
  13  -2  -7   12.60    2.70
  13  -2  -7   11.50    3.00
  13   2  -7   10.00    2.60
  13   2  -7   11.90    3.60
  13   2  -7   15.70    3.40
 -13   2   7   10.30    3.70
 -12  -2   7  139.79    6.50
  12  -2  -7  149.39    7.50
  12  -2  -7  148.49    7.00
  12  -2  -7  142.49    7.30
 -12   2   7  145.09    8.70
  12   2  -7  127.29    7.80
  12   2  -7  146.79    7.80
  12   2  -7  152.08    7.40
 -11  -2   7   33.20    3.20
  11  -2  -7   36.00    3.60
  11  -2  -7   36.50    3.40
  11  -2  -7   30.80    4.40
  11   2  -7   32.90    3.90
  11   2  -7   33.90    3.90
 -11   2   7   40.60    5.00
  11   2  -7   34.80    4.50
  10  -2  -7   98.89    5.20
 -10  -2   7   99.89    5.00
  10  -2  -7  115.59    5.90
 -10  -2   7  102.19    4.00
  10  -2  -7  102.99    5.60
  10   2  -7  103.09    5.60
 -10   2   7  107.89    6.70
  10   2  -7  107.49    6.10
  10   2  -7   99.69    6.00
   9  -2  -7  299.27   11.40
   9  -2  -7  292.57   11.20
   9  -2  -7  298.77   10.70
  -9  -2   7  294.97    9.60
  -9   2   7  307.97   12.40
   9   2  -7  289.97   11.70
   9   2  -7  314.07   11.40
   8  -2  -7    9.40    1.70
   8  -2  -7    7.40    1.90
   8  -2  -7    6.30    1.80
  -8  -2   7   10.10    1.40
   8   2  -7    6.50    2.10
   8   2  -7   14.60    2.60
  -8   2   7    9.80    2.30
   7  -2  -7    8.60    1.60
   7  -2  -7    5.50    1.60
  -7  -2   7    7.30    1.40
   7  -2  -7    7.10    1.70
   7   2  -7    7.40    1.80
   7   2  -7    8.10    1.90
  -7   2   7    6.20    1.60
   6  -2  -7    1.80    1.20
  -6  -2   7   -0.20    1.00
   6  -2  -7    1.50    1.10
   6  -2  -7   -0.40    1.20
   6   2  -7   -0.20    1.50
   6   2  -7    0.10    1.10
  -6   2   7    2.10    1.30
   6   2  -7    3.90    1.50
   5  -2  -7  207.78    8.00
  -5  -2   7  209.18    7.50
   5  -2  -7  209.88    8.40
   5  -2  -7  207.68    7.20
  -5   2   7  205.48    8.80
  -5   2   7  225.68    6.70
   5   2  -7  219.18    8.20
   5   2  -7  204.58    7.90
   5   2  -7  206.58    8.20
  -4  -2   7    1.30    0.90
  -4  -2   7    0.70    1.00
   4  -2  -7    1.40    1.20
   4  -2  -7    0.50    1.10
   4  -2  -7    2.00    0.90
   4   2  -7    0.60    1.30
   4   2  -7    0.90    0.90
  -4   2   7    4.00    1.00
   4   2  -7    0.60    1.20
  -4   2   7    1.90    1.30
  -3  -2   7 1318.87   39.60
   3  -2  -7 1319.67   39.80
  -3  -2   7 1358.56   38.80
   3  -2  -7 1367.86   38.70
   3  -2  -7 1295.57   40.20
  -3   2   7 1318.07   40.50
   3   2  -7 1331.17   40.00
   3   2  -7 1334.17   40.00
   3   2  -7 1298.67   39.50
  -3   2   7 1408.46   38.90
  -2  -2   7   56.39    2.30
   2  -2  -7   56.99    2.30
  -2  -2   7   57.99    3.30
   2  -2  -7   59.69    3.20
   2  -2  -7   51.99    3.40
   2   2  -7   56.29    2.90
  -2   2   7   49.60    3.60
   2   2  -7   49.20    3.20
  -2   2   7   58.09    3.80
   2   2  -7   57.59    3.30
  -2   2   7   58.69    2.90
   1  -2  -7    4.40    1.30
  -1  -2   7    3.70    1.00
   1  -2  -7    3.80    1.40
   1  -2  -7    5.10    0.80
  -1  -2   7    3.90    1.40
  -1  -2   7    2.80    0.70
  -1   2   7    3.30    1.20
   1   2  -7    3.90    1.40
  -1   2   7    2.80    1.20
   1   2  -7    3.90    0.80
  -1   2   7    2.70    1.10
   1   2  -7    4.50    0.90
   0  -2   7   17.80    1.60
   0  -2  -7   16.40    1.80
   0  -2  -7   23.70    2.00
   0  -2  -7   14.90    2.20
   0  -2  -7   19.30    1.20
   0  -2   7   17.40    1.40
   0  -2   7   15.70    2.10
   0   2   7   16.40    2.00
   0   2  -7   17.60    2.00
   0   2  -7   18.00    1.40
   0   2   7   18.60    2.20
   0   2  -7   17.70    1.50
   0   2   7   16.40    2.20
   1  -2   7    4.90    1.00
  -1  -2  -7    4.00    1.10
  -1  -2  -7    3.80    1.20
   1  -2   7    2.70    1.00
  -1  -2  -7    4.50    1.20
   1  -2   7    2.10    1.10
  -1   2  -7    4.50    1.40
   1   2   7    5.70    1.30
   1   2   7    2.70    1.40
   1   2   7    4.50    1.40
  -1   2  -7    4.50    1.00
  -1   2  -7    4.00    0.80
   2  -2   7   22.40    2.00
  -2  -2  -7   21.20    2.10
  -2  -2  -7   25.00    2.50
   2  -2   7   21.40    2.20
   2  -2   7   21.70    2.40
  -2  -2  -7   17.20    2.00
   2  -2   7   22.70    1.60
   2   2   7   25.90    1.70
   2   2   7   22.50    2.30
  -2   2  -7   21.90    2.00
   2   2   7   22.40    2.60
   2   2   7   18.80    2.50
  -2   2  -7   21.00    1.60
  -2   2  -7   19.20    1.50
   3  -2   7   38.50    2.90
  -3  -2  -7   42.70    2.80
  -3  -2  -7   41.90    2.80
   3  -2   7   34.40    2.80
   3  -2   7   35.90    1.90
   3  -2   7   34.90    3.00
  -3  -2  -7   38.40    2.80
   3   2   7   43.40    2.30
  -3   2  -7   40.50    2.10
   3   2   7   38.50    3.00
   3   2   7   41.50    3.30
   3   2   7   42.00    2.90
  -3   2  -7   36.40    2.20
  -3   2  -7   36.10    2.50
   4  -2   7 1558.34   47.10
   4  -2   7 1648.34   45.50
  -4  -2  -7 1570.24   46.20
  -4  -2  -7 1610.54   46.60
   4  -2   7 1558.04   46.80
  -4  -2  -7 1591.64   46.70
   4  -2   7 1598.04   46.70
   4   2   7 1622.14   45.90
  -4   2  -7 1572.14   45.80
   4   2   7 1581.74   47.20
   4   2   7 1609.94   47.00
  -4   2  -7 1570.64   46.30
  -4   2  -7 1376.56   46.00
   4   2   7 1577.74   46.90
   5  -2   7   38.30    3.10
   5  -2   7   35.40    2.90
   5  -2   7   38.80    2.10
   5  -2   7   39.90    3.20
  -5  -2  -7   33.20    2.70
  -5  -2  -7   36.50    2.80
  -5   2  -7   37.30    2.40
  -5   2  -7   35.60    2.60
   5   2   7   37.90    3.20
   5   2   7   36.90    3.10
   5   2   7   38.20    3.10
   5   2   7   34.30    2.40
  -6  -2  -7  106.69    4.90
   6  -2   7   98.19    5.20
   6  -2   7  100.09    5.30
   6  -2   7   91.59    4.90
   6  -2   7  102.89    4.00
  -6  -2  -7  105.79    4.90
  -6   2  -7   99.59    4.60
   6   2   7  101.89    5.20
  -6   2  -7  102.09    4.40
   6   2   7  103.09    4.50
   6   2   7   96.49    5.10
   6   2   7   97.69    5.20
   7  -2   7   14.80    2.30
   7  -2   7   12.70    1.80
   7  -2   7   17.80    2.50
  -7  -2  -7   18.20    2.50
   7  -2   7   10.20    2.10
  -7  -2  -7   14.20    2.10
  -7   2  -7   15.20    2.10
  -7   2  -7   16.60    2.20
   7   2   7   17.70    2.30
   7   2   7   13.10    2.20
   7   2   7   17.00    2.50
   7   2   7   20.20    2.80
  -8  -2  -7   37.30    3.10
   8  -2   7   34.00    4.10
  -8  -2  -7   34.40    3.10
   8  -2   7   42.20    3.80
   8  -2   7   42.20    3.40
   8   2   7   39.70    3.70
   8   2   7   38.20    3.00
  -8   2  -7   37.30    3.10
  -8   2  -7   38.30    3.00
   8   2   7   41.20    3.80
   8   2   7   37.50    2.40
   8   2   7   38.40    3.60
   9  -2   7   73.29    5.40
   9  -2   7   75.29    4.80
  -9  -2  -7   68.09    4.40
  -9  -2  -7   75.99    4.40
   9  -2   7   71.19    5.70
   9  -2   7   77.49    3.80
   9  -2   7   76.69    4.20
  -9   2  -7   72.99    4.50
   9   2   7   73.89    5.30
   9   2   7   74.79    5.00
   9   2   7   75.09    4.90
   9   2   7   78.19    3.20
   9   2   7   72.59    4.30
  -9   2  -7   77.89    4.50
  10  -2   7   27.80    2.80
  10  -2   7   29.40    3.40
  10  -2   7   30.30    3.00
  10  -2   7   38.80    5.10
 -10  -2  -7   27.80    3.10
  10  -2   7   27.90    4.10
  10   2   7   32.60    4.00
  10   2   7   22.00    3.20
  10   2   7   29.90    3.40
  10   2   7   28.50    4.40
 -10   2  -7   35.70    3.60
 -10   2  -7   27.60    3.20
 -11  -2  -7    6.10    2.30
  11  -2   7    7.10    2.00
  11  -2   7    1.70    1.90
  11  -2   7    4.30    2.80
  11  -2   7    6.40    2.00
  11  -2   7    5.30    3.50
  11   2   7    6.20    2.90
  11   2   7    5.80    2.30
 -11   2  -7    3.30    1.60
  11   2   7    3.60    2.20
  11   2   7    5.60    2.40
 -11   2  -7    7.40    2.20
 -12  -2  -7   36.60    3.70
  12  -2   7   36.30    5.60
  12  -2   7   33.00    3.90
  12  -2   7   34.40    3.50
  12  -2   7   40.70    3.60
  12  -2   7   33.50    5.10
 -12   2  -7   35.30    3.90
  12   2   7   33.90    5.10
 -12   2  -7   43.30    4.60
  12   2   7   34.70    5.50
  12   2   7   33.90    4.00
  12   2   7   36.80    3.90
  13  -2   7   11.90    2.60
  13  -2   7    1.80    3.00
 -13  -2  -7    3.50    2.10
  13  -2   7   10.00    5.30
  13  -2   7   11.40    2.80
  13  -2   7    4.00    2.40
  13   2   7    6.80    2.50
  13   2   7    4.30    3.80
  13   2   7    7.00    2.80
 -13   2  -7    4.10    2.10
 -13   2  -7    7.00    2.70
  14  -2   7  -10.10    5.20
  14  -2   7   11.10    2.90
  14  -2   7    4.10    2.50
 -14  -2  -7    3.30    2.00
  14  -2   7    6.40    4.00
  14  -2   7    2.60    2.40
 -14   2  -7    2.50    2.10
  14   2   7    5.40    2.70
  14   2   7    4.70    2.80
  14   2   7    7.90    4.90
 -14   2  -7   10.30    3.50
  15  -2   7   21.90    3.50
  15  -2   7   15.20    3.60
 -15  -2  -7   18.60    3.60
  15  -2   7   24.30    3.50
  15  -2   7   25.80    4.50
 -15   2  -7   29.30    4.60
 -15   2  -7   15.40    3.10
  15   2   7   25.20    6.20
  15   2   7   16.30    3.60
  15   2   7   21.70    4.20
  14  -3  -7    0.70    2.70
  14  -3  -7   -5.40    4.20
  14  -3  -7    4.30    2.70
  14   3  -7    3.40    2.80
 -14   3   7    8.00    4.60
  14   3  -7    3.10    3.00
  13  -3  -7   25.80    3.80
  13  -3  -7   26.90    3.90
  13  -3  -7   17.70    3.80
 -13  -3   7   31.00    3.60
  13   3  -7   25.40    4.10
  13   3  -7   31.10    4.30
 -13   3   7   25.00    5.20
 -12  -3   7   23.00    3.10
  12  -3  -7   21.20    3.90
  12  -3  -7   18.80    3.50
  12  -3  -7   22.50    3.40
  12   3  -7   23.70    4.00
  12   3  -7   25.80    3.70
 -12   3   7   20.00    4.50
  11  -3  -7    4.10    3.00
  11  -3  -7    5.50    2.00
  11  -3  -7    9.10    2.60
 -11  -3   7    7.80    2.10
  11   3  -7    9.80    2.70
 -11   3   7    5.10    3.10
  11   3  -7    3.90    2.20
  10  -3  -7   60.29    4.70
 -10  -3   7   62.19    3.50
  10  -3  -7   68.49    5.60
 -10  -3   7   56.99    3.80
  10  -3  -7   58.79    4.00
  10   3  -7   57.79    4.90
  10   3  -7   53.99    4.80
 -10   3   7   60.99    6.50
   9  -3  -7   77.79    5.70
  -9  -3   7   78.59    4.10
   9  -3  -7   75.89    4.90
   9  -3  -7   79.29    4.50
  -9  -3   7   79.79    4.00
   9   3  -7   76.39    5.20
  -9   3   7   84.79    6.50
   9   3  -7   77.49    5.50
   9   3  -7   79.09    5.50
  -8  -3   7   36.70    2.60
   8  -3  -7   34.90    2.80
  -8  -3   7   36.30    3.10
   8  -3  -7   37.40    4.30
   8  -3  -7   38.80    3.40
  -8   3   7   37.30    4.80
   8   3  -7   34.00    3.80
   8   3  -7   37.30    4.00
   8   3  -7   36.70    3.80
   7  -3  -7   51.29    4.50
  -7  -3   7   49.99    2.80
   7  -3  -7   46.40    3.20
  -7  -3   7   55.89    3.50
   7  -3  -7   49.99    3.90
  -7   3   7   56.09    5.10
   7   3  -7   44.70    4.00
   7   3  -7   43.20    3.90
   7   3  -7   54.39    4.30
  -6  -3   7  124.09    4.30
  -6  -3   7  118.19    5.60
   6  -3  -7  118.39    6.00
   6  -3  -7  120.79    5.10
   6  -3  -7  126.79    6.60
  -6   3   7  114.79    4.20
   6   3  -7  130.59    6.30
  -6   3   7  124.69    7.20
   6   3  -7  112.69    6.20
   6   3  -7  116.49    6.20
   5  -3  -7   22.00    3.10
  -5  -3   7   17.70    1.30
   5  -3  -7   17.70    2.00
  -5  -3   7   19.10    2.60
   5  -3  -7   24.60    2.60
   5   3  -7   21.60    2.70
  -5   3   7   16.10    2.10
   5   3  -7   16.90    2.50
  -5   3   7   18.60    3.20
   5   3  -7   16.80    2.90
   4  -3  -7    2.70    1.70
  -4  -3   7    0.80    1.40
  -4  -3   7    0.50    1.40
   4  -3  -7    0.20    1.00
   4  -3  -7    0.40    1.10
   4   3  -7   -0.70    1.20
  -4   3   7   -1.20    1.70
  -4   3   7   -0.40    1.30
   4   3  -7   -2.00    1.30
   4   3  -7   -0.50    1.50
   3  -3  -7   35.20    3.30
   3  -3  -7   36.70    2.30
   3  -3  -7   31.20    3.30
  -3  -3   7   36.00    3.10
  -3  -3   7   32.30    2.70
  -3   3   7   32.40    3.60
  -3   3   7   38.10    2.60
   3   3  -7   34.80    2.80
   3   3  -7   34.00    3.20
  -3   3   7   31.80    3.70
   2  -3  -7   21.50    1.80
   2  -3  -7   19.80    2.70
  -2  -3   7   19.10    2.10
   2  -3  -7   19.50    2.90
  -2  -3   7   16.80    2.60
   2   3  -7   19.50    2.40
   2   3  -7   19.20    2.60
  -2   3   7   20.50    2.20
  -2   3   7   19.50    3.00
  -2   3   7   21.90    3.10
   1  -3  -7  118.19    5.80
   1  -3  -7  125.69    4.60
   1  -3  -7  128.19    6.20
  -1  -3   7  119.09    5.90
  -1  -3   7  128.49    5.20
  -1   3   7  130.19    5.90
  -1   3   7  124.49    6.50
  -1   3   7  128.99    5.40
   1   3  -7  120.79    5.30
   1   3  -7  122.89    5.80
   0  -3   7  434.06   15.30
   0  -3  -7  436.16   15.30
   0  -3  -7  475.45   13.80
   0  -3   7  418.76   13.20
   0  -3  -7  432.46   15.00
   0  -3   7  460.75   14.20
   0   3   7  452.65   14.80
   0   3  -7  438.26   14.40
   0   3  -7  461.95   13.10
   0   3  -7  428.16   14.90
   0   3   7  446.56   15.80
   0   3   7  447.96   15.10
  -1  -3  -7  150.78    6.70
   1  -3   7  157.78    7.00
  -1  -3  -7  149.69    6.60
   1  -3   7  150.28    5.40
   1  -3   7  154.18    5.80
  -1   3  -7  152.58    6.00
   1   3   7  151.88    6.50
   1   3   7  151.38    6.60
   1   3   7  143.09    7.20
  -1   3  -7  161.08    5.20
  -1   3  -7  154.08    6.50
   2  -3   7    6.80    1.90
  -2  -3  -7    5.80    1.50
  -2  -3  -7    8.30    1.60
  -2  -3  -7    7.40    1.70
   2  -3   7    8.90    1.60
   2  -3   7    6.60    1.40
   2  -3   7    8.70    2.00
   2   3   7    5.70    1.80
  -2   3  -7    7.80    1.20
  -2   3  -7    7.50    1.90
   2   3   7    8.40    1.70
  -2   3  -7    8.50    1.50
   2   3   7    8.30    2.10
   3  -3   7    2.60    1.30
  -3  -3  -7    2.30    1.50
  -3  -3  -7    0.90    1.40
   3  -3   7    3.30    1.60
   3  -3   7   -0.80    1.30
   3  -3   7    0.60    1.30
  -3  -3  -7    2.70    1.40
  -3   3  -7   -0.70    1.10
  -3   3  -7   -0.20    1.00
   3   3   7   -0.10    1.50
   3   3   7    1.50    1.30
   3   3   7    1.80    1.30
   3   3   7   -1.80    1.50
  -3   3  -7    0.50    1.60
   4  -3   7  234.68    9.60
   4  -3   7  228.88    7.80
  -4  -3  -7  228.08    8.50
  -4  -3  -7  224.78    8.50
   4  -3   7  222.98    8.60
  -4  -3  -7  224.18    8.90
   4  -3   7  213.78    8.90
   4   3   7  230.38    8.10
   4   3   7  236.08    9.70
  -4   3  -7  223.28    7.90
   4   3   7  239.48    9.30
   4   3   7  233.38    8.80
  -4   3  -7  227.28    8.30
  -4   3  -7  209.48    8.30
   5  -3   7  112.99    5.80
   5  -3   7  121.09    4.90
   5  -3   7  124.29    6.60
  -5  -3  -7  127.59    5.70
  -5  -3  -7  117.29    5.90
   5  -3   7  112.89    5.90
  -5  -3  -7  127.49    5.60
   5   3   7  125.99    5.80
  -5   3  -7  119.29    5.00
   5   3   7  121.59    6.50
   5   3   7  111.89    6.00
   5   3   7  123.49    5.20
  -5   3  -7  117.59    5.20
  -5   3  -7  114.89    5.30
   6  -3   7    6.50    2.20
  -6  -3  -7    9.40    2.10
  -6  -3  -7    9.90    1.70
  -6  -3  -7    8.00    2.10
   6  -3   7    7.10    1.60
   6  -3   7   11.90    2.50
   6  -3   7   13.20    2.70
   6   3   7   10.80    2.20
   6   3   7   10.60    2.10
   6   3   7    7.30    2.10
  -6   3  -7   10.80    1.70
  -6   3  -7   11.00    1.90
  -6   3  -7   13.10    2.10
   6   3   7    9.80    2.50
   7  -3   7    8.60    2.40
  -7  -3  -7    7.00    2.10
   7  -3   7    3.60    2.30
   7  -3   7    3.30    2.10
  -7  -3  -7    6.10    1.80
   7  -3   7    6.90    1.80
   7   3   7    4.20    2.10
  -7   3  -7    7.70    1.70
   7   3   7   10.90    2.10
   7   3   7    5.50    2.20
   7   3   7   10.40    2.40
  -7   3  -7    6.50    1.80
  -8  -3  -7   35.30    3.20
   8  -3   7   30.30    3.30
   8  -3   7   24.80    3.40
   8  -3   7   37.20    3.00
  -8  -3  -7   28.30    3.20
   8  -3   7   29.90    4.00
   8   3   7   27.90    3.40
   8   3   7   33.00    3.20
  -8   3  -7   33.50    3.00
   8   3   7   26.60    4.20
   8   3   7   36.30    4.00
  -8   3  -7   40.60    3.70
   9  -3   7    5.00    1.90
   9  -3   7    1.50    2.50
  -9  -3  -7    2.00    1.50
   9  -3   7    2.60    2.80
  -9  -3  -7    2.60    2.10
   9  -3   7    1.70    2.00
  -9   3  -7    2.80    1.60
   9   3   7    3.60    2.70
  -9   3  -7    3.70    2.30
   9   3   7    5.60    2.40
   9   3   7    1.80    2.10
   9   3   7    2.60    2.20
 -10  -3  -7    6.50    2.40
  10  -3   7    1.20    1.80
 -10  -3  -7    4.20    2.20
  10  -3   7    2.30    3.30
  10  -3   7    2.40    3.10
  10  -3   7    4.50    2.10
 -10   3  -7    1.60    2.50
  10   3   7    3.40    2.20
  10   3   7    5.30    2.60
  10   3   7    3.40    2.30
 -10   3  -7    5.40    1.80
  10   3   7    5.40    2.70
  11  -3   7    3.20    2.10
  11  -3   7    0.10    2.10
  11  -3   7    0.70    3.40
 -11  -3  -7    4.10    2.30
  11  -3   7    1.50    3.80
 -11  -3  -7    2.70    2.00
  11  -3   7    5.40    2.20
  11   3   7   -1.00    2.30
  11   3   7    0.50    2.10
 -11   3  -7    0.80    2.50
  11   3   7   -1.00    2.80
 -11   3  -7    2.00    1.80
  11   3   7   -2.00    3.30
  12  -3   7    2.70    4.90
  12  -3   7   -0.60    2.20
  12  -3   7    2.00    2.50
  12  -3   7   -3.70    3.50
  12  -3   7    3.10    2.40
 -12  -3  -7    1.30    2.30
 -12  -3  -7    3.20    2.30
  12   3   7    2.40    3.50
 -12   3  -7    0.10    2.80
 -12   3  -7    1.10    1.80
  12   3   7    4.00    2.60
  12   3   7    1.60    2.40
  12   3   7   -1.50    3.80
  13  -3   7    6.50    5.70
  13  -3   7   13.80    4.50
  13  -3   7    7.50    3.00
 -13  -3  -7    7.50    2.60
 -13  -3  -7    8.90    2.70
  13  -3   7    3.40    2.50
  13  -3   7    7.50    2.90
  13   3   7    5.70    4.20
  13   3   7    7.00    4.20
  13   3   7    6.70    2.80
  13   3   7    5.80    3.00
 -13   3  -7   15.70    3.60
 -13   3  -7    7.60    2.60
 -12  -4   7   24.00    2.90
  12  -4  -7   33.80    5.30
  12  -4  -7   18.00    3.10
  12  -4  -7   19.00    3.50
  12   4  -7   24.90    4.50
 -12   4   7   27.70    6.50
  12   4  -7   24.80    4.10
  11  -4  -7    5.50    4.10
 -11  -4   7    2.00    2.30
  11  -4  -7   -3.10    2.00
  11  -4  -7    0.10    2.00
 -11   4   7    4.40    4.60
  11   4  -7    2.90    2.60
  11   4  -7    2.10    2.70
  10  -4  -7   73.59    7.70
 -10  -4   7   74.29    4.90
  10  -4  -7   74.29    5.50
 -10  -4   7   75.69    4.10
  10  -4  -7   80.89    4.90
  10   4  -7   85.99    6.90
 -10   4   7   85.29    8.80
  10   4  -7   74.99    6.00
  10   4  -7   63.59    5.70
   9  -4  -7   18.60    4.20
  -9  -4   7   21.80    3.00
  -9  -4   7   24.40    3.90
   9  -4  -7   18.40    2.80
   9  -4  -7   22.10    3.60
  -9  -4   7   18.10    3.30
   9   4  -7   16.40    3.20
   9   4  -7   19.80    4.00
   9   4  -7   19.80    3.80
  -9   4   7   27.70    5.40
  -8  -4   7    7.20    2.40
   8  -4  -7    5.70    2.90
   8  -4  -7    4.70    1.80
   8  -4  -7    9.20    2.60
  -8  -4   7    6.50    2.50
   8   4  -7    3.50    2.80
  -8   4   7   11.30    3.50
   8   4  -7    5.90    2.80
   8   4  -7    3.80    2.70
   7  -4  -7   -2.20    2.10
  -7  -4   7   -1.70    1.70
   7  -4  -7   -2.00    2.60
  -7  -4   7   -0.50    2.20
   7  -4  -7   -2.10    1.70
   7   4  -7   -1.90    2.00
  -7   4   7    1.00    3.10
   7   4  -7    0.40    2.00
   7   4  -7   -0.70    2.00
  -6  -4   7   35.60    4.20
  -6  -4   7   32.70    3.60
   6  -4  -7   41.20    5.10
   6  -4  -7   39.10    3.10
   6  -4  -7   35.70    3.70
   6   4  -7   34.70    4.00
   6   4  -7   34.20    3.80
  -6   4   7   40.00    5.20
  -6   4   7   35.40    2.90
   6   4  -7   39.60    4.50
   5  -4  -7  362.06   14.00
  -5  -4   7  338.57   12.70
  -5  -4   7  326.67   12.50
   5  -4  -7  333.47   11.60
   5  -4  -7  328.77   13.00
   5   4  -7  333.97   13.40
   5   4  -7  329.97   13.40
  -5   4   7  352.66   13.80
  -5   4   7  367.46   14.50
   5   4  -7  362.56   13.20
  -5   4   7  347.77   11.40
  -4  -4   7   51.69    4.00
   4  -4  -7   57.99    4.50
   4  -4  -7   59.69    3.40
  -4  -4   7   56.39    4.80
   4  -4  -7   65.89    5.40
   4   4  -7   59.69    4.40
  -4   4   7   58.99    3.80
  -4   4   7   52.99    5.20
  -4   4   7   56.39    5.50
   4   4  -7   60.19    4.70
   3  -4  -7   78.69    4.00
   3  -4  -7   86.89    5.30
  -3  -4   7   85.09    5.60
  -3  -4   7   77.99    4.70
   3  -4  -7   81.49    5.90
   3   4  -7   82.69    5.20
  -3   4   7   81.59    5.60
  -3   4   7   84.49    6.00
  -3   4   7   85.19    4.70
   3   4  -7   84.09    5.10
  -2  -4   7    8.70    2.50
  -2  -4   7   10.50    2.20
   2  -4  -7    9.30    2.70
   2  -4  -7    7.90    1.90
   2  -4  -7    8.20    2.30
  -2   4   7   10.60    2.20
   2   4  -7    7.20    2.60
  -2   4   7    3.10    2.10
  -2   4   7   10.90    2.30
   2   4  -7    7.80    2.10
   1  -4  -7    2.30    1.90
   1  -4  -7    3.40    1.60
   1  -4  -7    1.40    1.80
  -1  -4   7   -2.50    1.50
  -1  -4   7    2.40    2.10
   1   4  -7    1.60    1.70
  -1   4   7    1.00    2.00
  -1   4   7   -2.20    1.80
   1   4  -7    1.80    1.60
  -1   4   7    1.10    1.80
   0  -4  -7    6.60    1.70
   0  -4   7    4.90    1.80
   0  -4   7    5.50    2.20
   0  -4  -7    5.30    2.30
   0  -4  -7    3.70    2.10
   0   4  -7    7.20    2.10
   0   4   7    4.40    2.00
   0   4   7    7.00    2.80
   0   4   7    6.30    1.90
   0   4  -7    5.70    1.60
   1  -4   7  146.79    7.80
   1  -4   7  160.58    6.50
  -1  -4  -7  140.39    7.10
  -1  -4  -7  155.08    7.60
  -1   4  -7  146.39    6.60
  -1   4  -7  142.99    6.90
   1   4   7  156.68    6.90
   1   4   7  146.19    8.20
   1   4   7  150.88    7.00
  -2  -4  -7    3.30    2.00
   2  -4   7    1.40    1.70
   2  -4   7   -0.60    1.20
   2  -4   7   -0.20    1.70
   2  -4   7   -0.20    2.10
  -2  -4  -7   -2.70    1.50
   2   4   7   -1.40    2.20
  -2   4  -7   -2.00    1.60
   2   4   7    1.40    1.80
   2   4   7    0.20    2.00
  -2   4  -7   -1.30    1.00
  -2   4  -7    2.10    1.40
  -3  -4  -7  132.19    6.70
   3  -4   7  121.49    5.50
  -3  -4  -7  115.49    6.30
   3  -4   7  121.19    5.50
   3  -4   7  113.89    6.20
   3  -4   7  116.49    7.30
  -3   4  -7  121.89    6.00
  -3   4  -7  124.09    6.10
   3   4   7  124.99    6.10
   3   4   7  119.39    6.40
  -3   4  -7  117.39    4.70
   3   4   7  136.39    7.50
  -4  -4  -7   25.80    3.30
   4  -4   7   30.30    4.20
   4  -4   7   22.80    2.80
   4  -4   7   19.40    2.70
  -4  -4  -7   21.20    2.80
   4  -4   7   21.00    3.00
  -4  -4  -7   31.10    4.20
  -4   4  -7   21.40    2.10
   4   4   7   26.40    3.30
   4   4   7   28.30    4.00
   4   4   7   27.90    3.70
  -4   4  -7   18.80    2.80
  -4   4  -7   20.90    2.90
  -5  -4  -7    0.20    1.80
   5  -4   7    2.30    1.90
  -5  -4  -7    2.30    1.80
   5  -4   7    0.80    2.00
   5  -4   7   -2.20    2.30
  -5  -4  -7   -1.30    2.10
   5  -4   7    1.40    2.10
  -5   4  -7    0.90    1.50
   5   4   7    0.70    2.30
  -5   4  -7    0.90    2.00
   5   4   7    1.40    2.10
   5   4   7   -1.70    2.00
  -5   4  -7   -0.70    1.80
   5   4   7    0.60    1.80
  -6  -4  -7   34.20    4.30
   6  -4   7   27.80    4.50
  -6  -4  -7   21.30    3.40
   6  -4   7   29.30    4.30
   6  -4   7   28.60    3.40
   6  -4   7   28.80    3.00
  -6  -4  -7   29.70    3.60
   6   4   7   24.00    3.70
  -6   4  -7   22.10    3.60
   6   4   7   33.20    4.90
   6   4   7   35.80    3.70
   6   4   7   32.60    3.40
  -6   4  -7   30.40    2.90
  -6   4  -7   30.90    3.20
   7  -4   7   20.20    4.10
   7  -4   7   23.70    3.60
  -7  -4  -7   22.80    3.50
   7  -4   7   22.70    3.00
   7  -4   7   24.00    3.70
  -7  -4  -7   24.40    3.70
  -7  -4  -7   21.10    3.00
  -7   4  -7   24.60    3.80
  -7   4  -7   21.60    2.90
   7   4   7   26.10    4.20
   7   4   7   21.60    3.60
   7   4   7   26.00    3.40
  -7   4  -7   24.00    2.90
   7   4   7   19.50    3.80
   8  -4   7    8.00    2.20
  -8  -4  -7    6.10    2.60
   8  -4   7   10.10    3.50
  -8  -4  -7   14.60    2.80
   8  -4   7    9.10    2.60
   8  -4   7    7.30    3.60
  -8   4  -7    4.70    2.00
  -8   4  -7   14.30    2.60
   8   4   7   13.30    2.80
   8   4   7    9.50    2.80
   8   4   7   10.10    3.60
   8   4   7    6.40    2.60
   9  -4   7   12.50    2.70
  -9  -4  -7   15.20    3.00
   9  -4   7   17.70    3.00
   9  -4   7   22.10    4.80
  -9  -4  -7   19.30    3.00
   9  -4   7   20.40    4.20
  -9   4  -7   13.30    2.40
  -9   4  -7   15.80    3.00
   9   4   7   13.40    3.20
   9   4   7   18.80    3.40
   9   4   7   11.10    3.70
   9   4   7   16.80    3.30
 -10  -4  -7    3.80    2.80
  10  -4   7    1.70    4.10
 -10  -4  -7    1.40    2.40
  10  -4   7   -1.00    1.90
  10  -4   7    1.50    2.40
  10  -4   7    3.60    3.90
 -10   4  -7   -1.10    1.80
 -10   4  -7    0.10    2.80
  10   4   7    2.10    3.10
  10   4   7    2.70    2.70
  10   4   7   -7.70    3.80
  10   4   7   -2.70    3.00
 -11  -4  -7    5.40    2.80
  11  -4   7   -2.60    4.80
  11  -4   7    3.20    2.40
  11  -4   7   -1.20    5.00
  11  -4   7    4.00    2.60
 -11  -4  -7   -4.40    2.30
  11   4   7   -2.40    2.70
  11   4   7   -2.00    2.70
  11   4   7   -5.40    3.50
 -11   4  -7    0.30    3.10
  11   4   7    7.30    4.30
 -11   4  -7   -3.70    2.00
  12  -4   7    2.10    5.30
  12  -4   7    1.20    2.40
  12  -4   7   -2.10    3.00
  12  -4   7   -4.60    5.90
  12  -4   7   -1.00    2.80
 -12  -4  -7   -0.60    2.80
 -12  -4  -7   -1.70    2.60
 -12   4  -7   -0.10    2.00
  12   4   7    3.80    3.00
 -12   4  -7   -3.10    3.70
  12   4   7    1.90    3.90
  12   4   7   -2.20    5.90
  12   4   7    1.80    3.10
  10  -5  -7    7.80    3.30
  10   5  -7    4.60    5.60
 -10   5   7    5.70    6.90
  -9  -5   7    1.50    3.20
   9  -5  -7    5.50    4.60
  -9  -5   7    2.40    2.80
   9  -5  -7   -1.10    2.50
   9  -5  -7   -0.40    2.50
   9   5  -7    1.70    4.00
  -9   5   7    4.70    5.10
   9   5  -7    1.00    3.10
   9   5  -7    4.60    3.20
   8  -5  -7   69.09    5.40
  -8  -5   7   63.29    6.70
  -8  -5   7   69.69    5.40
   8  -5  -7   61.59    8.40
   8  -5  -7   69.39    4.80
  -8   5   7   60.69    7.60
   8   5  -7   65.79    6.10
   8   5  -7   63.29    6.10
   8   5  -7   69.69    7.20
  -7  -5   7   48.20    4.40
   7  -5  -7   36.50    4.40
   7  -5  -7   51.19    7.70
   7  -5  -7   47.10    4.20
  -7  -5   7   53.59    6.30
  -7   5   7   63.89    7.80
  -7   5   7   58.59    7.60
   7   5  -7   59.59    6.50
   7   5  -7   47.60    5.30
   6  -5  -7    6.00    2.40
   6  -5  -7    5.20    2.70
  -6  -5   7   10.80    2.80
  -6  -5   7   11.10    3.60
   6  -5  -7    3.40    3.90
   6   5  -7    7.20    2.60
   6   5  -7    7.40    3.40
  -6   5   7    4.60    3.90
  -6   5   7    1.40    3.30
  -6   5   7    6.40    2.60
  -5  -5   7   18.30    3.20
   5  -5  -7   16.10    3.80
  -5  -5   7   17.00    3.80
   5  -5  -7   12.70    2.90
   5  -5  -7   12.60    2.60
   5   5  -7   18.30    3.70
   5   5  -7   21.90    4.00
  -5   5   7   23.80    4.40
  -5   5   7   16.70    3.60
  -5   5   7   20.60    3.20
   4  -5  -7   11.80    3.50
   4  -5  -7    5.80    2.10
   4  -5  -7    9.70    2.80
  -4  -5   7    1.30    2.20
  -4  -5   7    6.30    3.20
  -4   5   7    4.60    2.50
  -4   5   7    5.00    3.70
   4   5  -7    5.10    2.40
  -4   5   7    6.20    3.00
   4   5  -7    4.20    2.80
   3  -5  -7   37.30    3.30
   3  -5  -7   38.90    4.20
  -3  -5   7   34.80    4.10
   3  -5  -7   44.00    6.40
  -3  -5   7   40.30    5.70
   3   5  -7   33.90    4.30
  -3   5   7   45.10    5.10
   3   5  -7   32.90    4.30
  -3   5   7   41.10    4.20
   2  -5  -7   41.90    4.50
   2  -5  -7   55.29    6.40
  -2  -5   7   53.19    4.60
  -2  -5   7   47.10    6.30
   2  -5  -7   51.49    3.70
   2   5  -7   37.00    4.50
  -2   5   7   50.99    7.00
  -2   5   7   49.00    4.40
  -2   5   7   46.00    5.10
   2   5  -7   50.39    5.20
   1  -5  -7   89.19    7.40
  -1  -5   7   86.69    5.30
   1  -5  -7   81.09    4.50
   1  -5  -7   77.19    5.80
  -1  -5   7   89.39    7.50
  -1   5   7   76.79    5.30
   1   5  -7   77.59    5.80
  -1   5   7   76.69    7.90
  -1   5   7   93.49    5.70
   1   5  -7   82.59    5.70
   0  -5  -7   10.40    2.20
   0  -5  -7    8.60    3.20
   0  -5  -7    8.90    2.70
   0  -5   7    8.30    2.20
   0  -5   7   15.90    3.90
   0   5   7    2.90    3.30
   0   5  -7    7.90    2.50
   0   5   7   12.60    2.70
   0   5   7   10.90    2.90
   0   5  -7   13.20    2.70
  -1  -5  -7    3.30    1.90
   1  -5   7   -0.40    1.90
  -1  -5  -7    0.60    3.20
   1  -5   7    7.40    3.50
  -1  -5  -7    0.90    2.00
   1  -5   7   -0.10    2.00
   1   5   7    4.40    3.60
  -1   5  -7   -3.00    2.20
  -1   5  -7    1.20    2.00
   1   5   7   -0.50    2.40
   1   5   7    1.70    2.30
   2  -5   7   15.40    4.10
   2  -5   7   10.10    2.60
   2  -5   7   10.80    2.60
  -2  -5  -7   14.90    3.10
  -2  -5  -7   12.50    3.80
  -2   5  -7   13.50    2.90
   2   5   7    7.80    2.80
   2   5   7    8.80    2.40
  -2   5  -7   17.30    2.80
   2   5   7   13.90    3.70
  -3  -5  -7   23.40    3.60
   3  -5   7   24.30    3.30
   3  -5   7   34.50    3.90
   3  -5   7   26.90    4.40
  -3  -5  -7   25.50    4.10
  -3   5  -7   32.70    4.20
   3   5   7   29.10    3.90
  -3   5  -7   28.80    3.70
   3   5   7   24.00    3.80
   3   5   7   23.40    4.50
  -3   5  -7   27.90    2.50
  -4  -5  -7   -1.80    2.80
  -4  -5  -7   -0.40    2.40
   4  -5   7    4.10    4.00
   4  -5   7    1.30    2.20
   4  -5   7    1.30    2.40
   4   5   7   -1.10    3.40
  -4   5  -7    2.50    2.90
   4   5   7    3.10    2.50
  -4   5  -7    3.80    2.40
   4   5   7    6.70    2.20
  -4   5  -7    2.50    1.50
   5  -5   7   29.00    3.60
  -5  -5  -7   26.80    4.50
   5  -5   7   23.00    5.00
  -5  -5  -7   21.60    3.60
   5  -5   7   23.00    3.70
   5   5   7   30.80    4.10
   5   5   7   22.60    3.60
  -5   5  -7   40.70    5.10
  -5   5  -7   26.30    3.50
  -5   5  -7   22.80    2.90
   5   5   7   29.00    4.90
   6  -5   7    5.90    2.30
  -6  -5  -7   -2.00    3.10
   6  -5   7   -6.10    3.70
  -6  -5  -7   -1.90    2.30
   6  -5   7    5.10    2.50
   6   5   7    0.50    2.80
  -6   5  -7   -5.90    2.80
   6   5   7    0.00    2.50
   6   5   7   -2.30    3.70
  -6   5  -7    2.10    1.80
  -6   5  -7   -0.80    2.70
  -7  -5  -7    2.30    2.70
  -7  -5  -7   -1.80    2.40
   7  -5   7    1.90    3.80
   7  -5   7   -2.20    4.20
   7  -5   7   -3.70    2.30
   7  -5   7   -1.90    2.20
  -7  -5  -7   -0.60    3.70
  -7   5  -7    3.80    3.30
  -7   5  -7    0.30    2.10
   7   5   7   -0.60    2.70
  -7   5  -7    1.30    2.50
   7   5   7    1.10    2.60
   7   5   7    0.40    3.00
   7   5   7  -10.20    4.70
   8  -5   7   18.70    3.70
   8  -5   7   25.90    5.00
  -8  -5  -7   25.50    3.90
   8  -5   7   19.00    3.30
   8  -5   7   21.10    5.50
  -8  -5  -7   22.50    3.40
  -8  -5  -7   15.80    3.50
  -8   5  -7   24.80    3.90
  -8   5  -7   15.30    2.80
   8   5   7   17.10    3.50
   8   5   7   28.80    6.00
   8   5   7   15.00    3.70
   8   5   7   25.00    3.80
   9  -5   7   15.30    3.50
  -9  -5  -7   13.10    3.90
   9  -5   7   11.00    6.50
   9  -5   7   13.70    5.10
  -9  -5  -7   11.00    3.40
   9  -5   7    9.30    2.80
   9   5   7    9.10    6.40
  -9   5  -7   11.10    2.80
   9   5   7    9.60    3.30
   9   5   7    6.70    3.20
  -9   5  -7   13.80    3.90
   9   5   7    8.00    3.60
   4  -6  -7   20.40    3.30
  -4  -6   7   20.90    4.10
  -4  -6   7    4.10    5.70
   4  -6  -7   18.30    3.70
   4  -6  -7    2.00    5.70
  -4   6   7   20.20    4.50
  -4   6   7   20.20    3.80
   4   6  -7   12.50    4.20
   4   6  -7   17.40    3.90
  -4   6   7   10.60    7.30
   3  -6  -7   43.80    7.00
  -3  -6   7   43.20    4.90
   3  -6  -7   44.00    5.20
  -3  -6   7   40.10    6.80
   3  -6  -7   45.90    4.50
  -3   6   7   34.60    4.90
  -3   6   7   37.90    4.80
   3   6  -7   55.59    7.40
   3   6  -7   38.40    5.30
  -3   6   7   50.19    8.10
  -2  -6   7   16.50    3.30
   2  -6  -7   16.20    3.70
  -2  -6   7   21.00    5.90
   2  -6  -7   22.20    5.90
   2  -6  -7   20.90    3.40
   2   6  -7   18.30    4.50
  -2   6   7   20.00    3.90
  -2   6   7   24.40    4.20
   2   6  -7   12.60    3.50
  -2   6   7   13.80    5.90
   1  -6  -7   31.60    6.60
  -1  -6   7   31.70    4.20
   1  -6  -7   26.70    4.50
  -1  -6   7   38.20    6.40
   1  -6  -7   31.60    4.20
  -1   6   7   31.40    6.80
  -1   6   7   36.70    5.60
  -1   6   7   25.80    4.60
   1   6  -7   24.50    4.20
   1   6  -7   25.10    4.80
   0  -6   7    0.40    2.40
   0  -6   7   -0.80    2.50
   0  -6  -7   -1.20    2.50
   0  -6  -7    0.00    2.70
   0  -6  -7    2.30    5.40
   0  -6   7   -4.40    5.10
   0   6   7    6.70    3.40
   0   6  -7    3.80    3.60
   0   6   7    0.00    5.40
   0   6  -7    4.10    2.90
   0   6   7    2.50    2.70
   1  -6   7    5.70    3.10
  -1  -6  -7   -2.70    4.80
  -1  -6  -7    2.40    2.60
   1  -6   7   -2.20    5.40
  -1  -6  -7   -0.70    2.60
   1  -6   7   -2.60    2.60
   1   6   7   -3.90    5.70
  -1   6  -7   -0.60    3.60
   1   6   7   -1.60    3.10
   1   6   7    1.70    3.10
  -1   6  -7   -0.10    2.90
   2  -6   7   31.80    6.60
  -2  -6  -7   35.80    4.40
   2  -6   7   27.80    4.40
  -2  -6  -7   34.00    5.30
  -2  -6  -7   45.40    6.50
   2  -6   7   34.20    4.70
   2   6   7   28.90    7.30
  -2   6  -7   42.70    6.30
   2   6   7   48.60    5.50
   2   6   7   40.70    5.40
  -2   6  -7   47.90    5.00
   3  -6   7    1.70    3.10
   3  -6   7    5.40    2.80
   3  -6   7    7.00    8.00
  -3  -6  -7   10.10    3.10
  -3  -6  -7    4.00    5.20
  -3   6  -7    7.40    3.00
   3   6   7    6.90    3.60
  -3   6  -7    6.10    3.60
   3   6   7    6.00    5.40
   3   6   7    1.20    3.10
  -4  -6  -7    5.00    3.10
   4  -6   7    6.90    2.70
   4  -6   7    5.20    2.70
  -4  -6  -7   17.60    5.90
  -4   6  -7   14.90    3.50
   4   6   7   10.00    3.80
   4   6   7    0.90    3.60
  -4   6  -7   11.60    3.90
 -16   0   8    0.40    2.50
  16   0  -8    3.80    2.60
 -16   0   8    2.50    6.20
  16   0  -8   -0.10    2.60
 -15   0   8   -2.20    1.70
  15   0  -8    2.90    2.70
 -15   0   8   -3.30    3.60
  15   0  -8    1.80    2.50
  15   0  -8   -3.20    2.10
  14   0  -8    6.10    2.60
  14   0  -8    7.80    2.40
  14   0  -8    6.20    2.30
 -14   0   8    6.60    3.50
 -13   0   8   -2.10    2.90
  13   0  -8    5.20    2.20
  13   0  -8   -1.90    1.90
  13   0  -8    5.30    2.10
  12   0  -8  114.59    6.20
  12   0  -8  110.09    6.10
  12   0  -8  123.39    5.20
 -12   0   8  117.59    7.20
 -11   0   8    1.90    1.90
  11   0  -8   -1.00    1.70
  11   0  -8    1.20    1.70
  11   0  -8   -1.20    1.50
  10   0  -8   37.70    3.40
  10   0  -8   39.70    2.80
 -10   0   8   36.60    3.90
  10   0  -8   38.30    3.30
  -9   0   8    0.00    1.40
   9   0  -8   -0.10    1.50
   9   0  -8   -0.80    1.30
   9   0  -8   -2.20    1.30
   8   0  -8  210.38    8.00
   8   0  -8  214.88    7.30
   8   0  -8  208.18    8.00
  -8   0   8  195.88    8.60
   7   0  -8    0.60    1.30
   7   0  -8    0.70    1.00
  -7   0   8    1.60    1.10
   7   0  -8   -0.30    1.00
  -6   0   8   26.60    2.60
   6   0  -8   24.40    2.20
   6   0  -8   24.10    2.10
   6   0  -8   28.10    2.00
  -5   0   8   -0.10    0.80
   5   0  -8    1.30    1.10
   5   0  -8   -1.40    0.80
   5   0  -8    1.00    1.00
   4   0  -8  333.57   10.60
   4   0  -8  341.67   10.50
  -4   0   8  312.97   11.10
   4   0  -8  335.87   10.70
   3   0  -8   -0.10    0.80
  -3   0   8    0.40    1.00
  -3   0   8    0.40    0.70
   3   0  -8    1.60    1.00
   3   0  -8    2.10    0.80
   2   0  -8  703.83   21.00
  -2   0   8  680.43   21.80
   2   0  -8  725.73   20.80
   2   0  -8  723.23   20.90
  -2   0   8  677.33   21.20
   1   0  -8   -0.10    0.60
  -1   0   8    0.30    0.60
  -1   0   8   -0.20    0.70
   1   0  -8   -0.60    0.80
   0   0   8  608.74   19.60
   0   0  -8  681.33   18.60
   0   0   8  609.84   18.80
  -1   0  -8    1.30    0.90
   1   0   8    1.90    0.90
   1   0   8    0.60    0.70
  -1   0  -8    1.90    0.60
   2   0   8  186.98    6.90
  -2   0  -8  202.98    6.10
   2   0   8  202.18    6.40
   2   0   8  191.68    7.30
  -2   0  -8  195.98    6.90
   2   0   8  195.48    6.20
  -3   0  -8   -0.20    0.70
   3   0   8    0.10    0.50
  -3   0  -8   -0.70    0.80
   3   0   8    0.10    0.70
   3   0   8   -0.10    1.00
   3   0   8    1.10    0.90
   4   0   8  105.99    4.10
  -4   0  -8  105.19    4.40
  -4   0  -8  107.29    3.70
   4   0   8   99.39    4.30
   4   0   8   96.19    3.70
   4   0   8  101.79    4.80
  -5   0  -8    0.60    1.10
   5   0   8    0.10    0.90
   5   0   8   -0.50    0.80
   5   0   8   -0.10    0.60
   5   0   8    0.20    1.00
   5   0   8   -1.20    1.00
   6   0   8  248.98    8.70
   6   0   8  245.28    9.60
   6   0   8  261.17    8.80
   6   0   8  251.77    9.00
   7   0   8    0.40    1.30
  -7   0  -8    0.00    1.10
   7   0   8   -0.50    1.10
   7   0   8    1.10    1.30
   7   0   8    1.00    1.50
   8   0   8    0.00    1.20
   8   0   8    1.30    1.40
   8   0   8    2.10    1.30
  -8   0  -8    1.90    1.30
   8   0   8    1.80    1.60
   9   0   8    0.80    1.20
   9   0   8   -0.20    2.00
   9   0   8   -0.20    1.30
   9   0   8    0.60    1.60
  -9   0  -8    0.90    1.50
  10   0   8  398.96   12.90
  10   0   8  397.06   15.00
  10   0   8  396.26   13.80
 -10   0  -8  369.06   13.90
  10   0   8  380.26   13.50
 -11   0  -8   -1.30    1.40
  11   0   8    0.90    1.80
  11   0   8    2.60    1.60
  11   0   8    3.40    1.90
  11   0   8   -2.40    2.80
  12   0   8    2.80    2.20
  12   0   8    1.60    2.60
  12   0   8    2.10    2.10
  12   0   8   -2.60    2.00
 -12   0  -8    1.30    1.60
  13   0   8    4.00    1.90
 -13   0  -8    0.50    1.80
  13   0   8    1.60    2.20
  13   0   8    5.60    4.10
  13   0   8    2.10    2.40
  14   0   8    6.40    4.40
  14   0   8    2.80    2.40
 -14   0  -8    3.30    2.10
  14   0   8    6.30    2.70
  14   0   8    9.00    2.20
  15   0   8    0.70    2.50
 -15   0  -8    1.90    3.40
  15   0   8   -0.20    5.30
  15   0   8    5.10    3.00
 -15   0  -8    1.00    2.20
  16  -1  -8    6.00    2.80
 -16  -1   8    3.10    2.90
  16  -1  -8    8.20    3.10
  16   1  -8   12.10    3.30
  16   1  -8    4.90    2.90
  16   1  -8    5.10    2.50
 -16   1   8   -0.60    4.20
 -15  -1   8    7.50    2.50
  15  -1  -8   10.70    2.80
 -15  -1   8   10.60    4.20
  15  -1  -8    7.10    2.90
  15   1  -8   12.60    3.10
  15   1  -8   15.20    2.90
  15   1  -8   11.00    3.10
 -15   1   8    7.70    4.20
  14  -1  -8    0.90    2.30
 -14  -1   8    6.20    2.40
  14  -1  -8    2.00    1.90
  14   1  -8    6.20    2.40
 -14   1   8   10.90    3.90
  14   1  -8    7.00    2.50
  14   1  -8    3.10    2.10
  13  -1  -8   22.30    2.70
  13  -1  -8   20.40    3.30
  13  -1  -8   16.10    3.20
  13   1  -8   13.80    2.70
  13   1  -8   18.10    3.10
  13   1  -8   15.40    3.20
 -13   1   8   17.80    4.30
  12  -1  -8    6.10    2.00
  12  -1  -8    7.40    2.20
  12  -1  -8    7.70    2.00
 -12  -1   8    9.50    1.40
  12   1  -8    4.90    2.30
  12   1  -8    8.20    2.60
 -12   1   8    1.00    2.40
  12   1  -8   12.60    2.70
  11  -1  -8   21.60    3.00
 -11  -1   8   23.40    2.20
  11  -1  -8   28.70    3.30
  11  -1  -8   26.90    3.10
 -11   1   8   20.30    3.30
  11   1  -8   24.10    3.30
  11   1  -8   25.10    3.20
  11   1  -8   22.20    3.10
  10  -1  -8   40.40    3.30
 -10  -1   8   45.80    2.70
  10  -1  -8   36.60    3.80
  10  -1  -8   44.20    3.50
  10   1  -8   40.20    3.60
  10   1  -8   40.40    3.50
 -10   1   8   42.40    4.40
  10   1  -8   44.70    3.70
   9  -1  -8   11.80    2.20
   9  -1  -8   13.90    2.20
  -9  -1   8   15.50    1.80
   9  -1  -8   12.30    2.00
   9   1  -8   10.30    2.20
   9   1  -8   15.30    2.30
  -9   1   8   16.50    2.90
   9   1  -8   13.70    2.20
   8  -1  -8  315.07   11.50
   8  -1  -8  318.17   11.30
   8  -1  -8  327.77   11.30
  -8  -1   8  327.27   10.60
  -8   1   8  332.47   12.50
   8   1  -8  338.67   11.40
   8   1  -8  322.37   11.70
   8   1  -8  327.97   11.40
  -7  -1   8   35.70    2.30
   7  -1  -8   35.10    2.60
   7  -1  -8   31.50    2.60
   7  -1  -8   35.20    2.90
   7   1  -8   38.10    2.80
  -7   1   8   33.10    3.20
   7   1  -8   31.60    2.50
   7   1  -8   34.10    2.80
  -6  -1   8   71.69    3.40
   6  -1  -8   80.09    3.90
   6  -1  -8   75.69    4.00
   6  -1  -8   76.19    3.50
   6   1  -8   71.89    3.60
  -6   1   8   76.19    4.50
   6   1  -8   74.99    3.80
   6   1  -8   74.89    4.00
   5  -1  -8  805.92   23.20
  -5  -1   8  742.83   23.30
   5  -1  -8  780.72   23.70
   5  -1  -8  771.42   23.80
   5   1  -8  760.02   23.80
   5   1  -8  763.72   23.40
   5   1  -8  800.52   23.70
  -5   1   8  749.23   24.30
   4  -1  -8  373.86   10.80
  -4  -1   8  338.07   11.20
   4  -1  -8  345.07   11.70
   4  -1  -8  352.66   11.50
   4   1  -8  356.36   11.50
   4   1  -8  347.87   11.10
  -4   1   8  344.87   12.00
   4   1  -8  311.57   11.40
   3  -1  -8   25.50    1.50
  -3  -1   8   25.10    2.00
   3  -1  -8   26.20    2.00
  -3  -1   8   24.40    2.20
   3  -1  -8   27.20    2.50
   3   1  -8   30.40    1.80
   3   1  -8   24.60    2.10
  -3   1   8   21.50    2.70
  -3   1   8   23.10    2.30
   3   1  -8   24.20    2.10
  -2  -1   8  202.88    7.20
   2  -1  -8  208.98    7.10
  -2  -1   8  201.08    7.20
   2  -1  -8  197.08    7.40
   2  -1  -8  204.18    6.20
   2   1  -8  207.38    6.60
   2   1  -8  202.48    7.20
  -2   1   8  187.18    7.40
   2   1  -8  206.18    7.20
  -2   1   8  204.28    7.90
   1  -1  -8  324.07   11.00
   1  -1  -8  353.26   10.80
  -1  -1   8  329.17   10.80
  -1  -1   8  331.77   10.90
   1  -1  -8  328.57   11.10
   1   1  -8  336.37   10.00
  -1   1   8  329.07   11.60
   1   1  -8  328.17   10.90
  -1   1   8  340.37   10.60
   1   1  -8  337.27   10.50
  -1   1   8  322.97   11.10
   0  -1   8  480.85   15.30
   0  -1   8  483.85   15.10
   0  -1  -8  495.15   15.00
   0  -1  -8  474.65   15.30
   0  -1  -8  485.75   15.40
   0   1  -8  501.25   14.90
   0   1   8  484.55   15.40
   0   1   8  481.25   15.00
   0   1  -8  485.65   15.20
  -1  -1  -8   76.59    3.60
  -1  -1  -8   78.69    3.30
   1  -1   8   73.29    3.60
   1  -1   8   74.69    3.50
  -1   1  -8   73.19    3.50
  -1   1  -8   79.69    3.30
   1   1   8   77.59    3.70
   1   1   8   78.09    3.50
   1   1   8   73.09    2.40
   1   1   8   71.49    3.90
   2  -1   8  489.95   16.00
  -2  -1  -8  524.45   15.60
   2  -1   8  499.05   15.70
  -2  -1  -8  527.35   16.00
   2  -1   8  492.85   16.00
  -2   1  -8  489.25   15.60
   2   1   8  508.35   14.90
   2   1   8  499.85   16.30
  -2   1  -8  507.85   15.90
   2   1   8  527.65   15.90
   2   1   8  497.45   15.90
  -3  -1  -8  157.18    6.10
   3  -1   8  159.98    6.30
  -3  -1  -8  163.08    5.80
   3  -1   8  164.38    6.40
   3  -1   8  168.28    6.10
   3   1   8  159.58    6.20
  -3   1  -8  163.78    5.90
   3   1   8  163.48    5.40
   3   1   8  155.58    6.50
   3   1   8  158.08    6.10
   4  -1   8  553.74   17.70
  -4  -1  -8  571.24   17.20
  -4  -1  -8  550.04   17.60
   4  -1   8  560.94   17.90
   4  -1   8  555.84   17.50
   4   1   8  524.95   17.40
  -4   1  -8  559.84   17.50
   4   1   8  569.04   16.90
   4   1   8  562.24   17.70
  -4   1  -8  572.14   16.40
   4   1   8  569.14   18.10
   5  -1   8   48.00    2.00
  -5  -1  -8   44.30    2.90
  -5  -1  -8   46.80    2.70
   5  -1   8   47.20    3.20
   5  -1   8   47.20    3.40
   5  -1   8   51.29    3.00
   5   1   8   40.60    3.20
   5   1   8   41.50    2.50
   5   1   8   45.50    3.00
  -5   1  -8   49.70    2.90
   5   1   8   43.90    3.00
  -5   1  -8   49.70    2.20
   6  -1   8  196.18    6.10
   6  -1   8  190.88    7.30
  -6  -1  -8  186.68    7.20
  -6  -1  -8  179.88    6.80
   6  -1   8  180.68    7.10
   6  -1   8  190.98    7.80
  -6   1  -8  187.48    7.20
   6   1   8  182.58    6.60
   6   1   8  180.18    6.70
  -6   1  -8  187.98    6.40
   6   1   8  181.78    7.60
   6   1   8  180.98    7.00
   6   1   8  181.68    7.30
   7  -1   8  265.97    8.60
   7  -1   8  259.57    9.70
   7  -1   8  271.17   10.50
  -7  -1  -8  276.67    9.90
   7  -1   8  270.07    9.80
  -7   1  -8  268.87    9.80
   7   1   8  256.77    9.80
   7   1   8  267.17    9.60
   7   1   8  271.17    9.00
   7   1   8  282.07   10.50
  -7   1  -8  262.07    9.00
   7   1   8  275.07    9.40
   8  -1   8   54.09    3.40
   8  -1   8   57.59    3.80
   8  -1   8   58.89    2.90
   8  -1   8   63.39    3.80
  -8  -1  -8   51.09    3.60
   8  -1   8   59.09    4.50
  -8   1  -8   57.39    3.30
   8   1   8   48.90    3.70
   8   1   8   53.29    3.40
   8   1   8   55.59    3.50
   8   1   8   54.79    4.30
   8   1   8   59.39    3.00
  -8   1  -8   51.19    3.50
  -9  -1  -8   31.00    3.00
   9  -1   8   26.90    3.50
   9  -1   8   33.80    3.20
   9  -1   8   30.30    2.40
   9  -1   8   30.60    2.90
   9  -1   8   25.40    2.90
   9   1   8   28.80    3.20
   9   1   8   27.10    2.70
  -9   1  -8   30.40    2.70
  -9   1  -8   28.30    2.80
   9   1   8   27.60    2.30
   9   1   8   26.00    2.90
   9   1   8   28.20    3.80
 -10  -1  -8   25.00    3.00
  10  -1   8   33.50    2.60
  10  -1   8   31.90    3.30
  10  -1   8   25.50    2.90
  10  -1   8   35.90    4.30
  10  -1   8   26.50    3.40
 -10   1  -8   32.60    3.10
  10   1   8   25.70    2.90
  10   1   8   30.40    2.50
 -10   1  -8   28.20    3.10
  10   1   8   28.50    3.50
  10   1   8   28.10    4.40
  11  -1   8    2.10    1.60
  11  -1   8   -2.70    2.10
  11  -1   8    0.60    1.70
  11  -1   8    0.80    2.70
  11  -1   8   -0.50    1.70
 -11  -1  -8   -1.50    1.50
 -11   1  -8   -1.80    1.60
  11   1   8    0.20    1.70
  11   1   8    3.80    2.60
 -11   1  -8   -0.80    1.80
  11   1   8   -0.60    1.80
  11   1   8    0.80    1.30
  12  -1   8   62.79    4.70
  12  -1   8   65.39    4.90
  12  -1   8   56.69    4.10
  12  -1   8   53.79    6.50
 -12  -1  -8   65.99    4.90
  12   1   8   67.99    4.70
 -12   1  -8   66.59    4.70
  12   1   8   59.79    4.60
  12   1   8   54.69    6.50
 -12   1  -8   62.99    4.90
  13  -1   8    7.70    4.30
  13  -1   8    6.90    2.40
  13  -1   8    4.60    2.50
 -13  -1  -8    0.60    2.00
  13  -1   8    5.90    2.20
 -13   1  -8    6.80    2.50
  13   1   8    0.90    3.40
  13   1   8    6.00    2.80
 -13   1  -8    6.70    2.00
  13   1   8    2.70    2.30
  14  -1   8    1.60    3.20
  14  -1   8    5.00    2.70
  14  -1   8    7.80    4.90
  14  -1   8    2.00    2.30
 -14  -1  -8   -1.60    1.90
  14   1   8    2.80    2.40
  14   1   8    3.40    2.70
  14   1   8    1.50    4.60
 -14   1  -8    4.30    2.20
 -14   1  -8    1.30    3.00
  15  -1   8    9.00    8.10
  15  -1   8    7.10    2.90
  15  -1   8    4.70    2.80
 -15  -1  -8   10.30    2.90
  15  -1   8    6.70    3.30
  15   1   8    5.40    2.90
 -15   1  -8   13.20    3.70
 -15   1  -8    7.30    3.00
  15   1   8    3.10    3.10
  15   1   8   14.80    5.80
  15  -2  -8   23.00    3.90
 -15  -2   8   22.50    3.30
  15  -2  -8   20.00    3.60
  15  -2  -8   30.20    4.50
  15   2  -8   27.80    4.20
 -15   2   8   15.40    6.10
  15   2  -8   17.40    3.90
  14  -2  -8   56.89    5.40
  14  -2  -8   58.69    6.00
 -14  -2   8   49.70    4.40
  14  -2  -8   59.59    4.80
  14   2  -8   53.99    5.20
  14   2  -8   67.79    5.40
 -14   2   8   50.89    7.70
  13  -2  -8    3.90    2.80
  13  -2  -8   -0.60    2.00
  13  -2  -8    3.00    1.80
 -13  -2   8   -2.10    1.90
  13   2  -8    5.30    2.70
  13   2  -8    3.80    2.30
 -13   2   8   -1.90    3.40
 -12  -2   8   30.30    3.30
  12  -2  -8   24.40    3.00
  12  -2  -8   21.90    3.30
  12  -2  -8   22.00    3.20
  12   2  -8   29.70    4.20
  12   2  -8   27.20    3.70
 -12   2   8   21.00    4.10
  11  -2  -8   48.40    4.20
  11  -2  -8   47.00    3.90
  11  -2  -8   58.89    4.90
 -11  -2   8   47.20    3.50
 -11   2   8   53.19    5.90
  11   2  -8   51.99    4.60
  11   2  -8   48.40    4.30
 -10  -2   8    0.60    1.10
  10  -2  -8   -1.70    1.50
  10  -2  -8    1.50    1.70
  10  -2  -8   -0.40    1.90
  10   2  -8    2.40    2.20
  10   2  -8    1.10    2.00
 -10   2   8    2.30    2.10
   9  -2  -8   70.59    4.50
  -9  -2   8   77.69    3.60
   9  -2  -8   67.89    4.10
   9  -2  -8   72.19    5.10
   9   2  -8   78.99    5.00
   9   2  -8   76.19    5.10
  -9   2   8   77.39    5.70
  -8  -2   8  160.38    6.20
   8  -2  -8  171.68    7.50
   8  -2  -8  168.48    7.30
   8  -2  -8  166.98    6.70
   8   2  -8  174.68    7.50
   8   2  -8  166.78    7.60
  -8   2   8  171.58    8.50
   7  -2  -8    7.60    1.70
   7  -2  -8    8.70    1.70
  -7  -2   8    8.70    1.40
   7  -2  -8    7.50    1.80
  -7   2   8    8.40    2.30
   7   2  -8    6.70    2.10
   7   2  -8    7.20    2.00
   6  -2  -8   44.70    3.40
   6  -2  -8   44.40    3.10
   6  -2  -8   39.70    2.50
  -6  -2   8   43.10    2.80
   6   2  -8   41.40    3.40
  -6   2   8   44.90    3.90
   6   2  -8   46.00    3.30
   5  -2  -8   95.09    4.70
   5  -2  -8   94.69    5.00
   5  -2  -8  104.89    4.00
  -5  -2   8   94.99    4.30
   5   2  -8   93.69    4.90
  -5   2   8   99.99    3.60
  -5   2   8   94.89    5.50
   5   2  -8   93.69    4.90
   5   2  -8   96.59    4.70
   4  -2  -8   75.59    4.00
  -4  -2   8   75.69    3.80
  -4  -2   8   74.79    3.50
   4  -2  -8   78.09    3.20
   4  -2  -8   76.59    4.30
  -4   2   8   69.59    4.50
   4   2  -8   74.09    4.10
   4   2  -8   73.09    4.20
  -4   2   8   83.39    3.30
   4   2  -8   74.39    3.80
   3  -2  -8   55.29    3.80
   3  -2  -8   58.39    2.40
  -3  -2   8   52.09    3.20
   3  -2  -8   56.59    3.40
  -3  -2   8   54.49    2.70
   3   2  -8   52.19    3.40
  -3   2   8   66.39    4.10
   3   2  -8   49.70    3.00
  -3   2   8   58.49    2.90
   3   2  -8   49.60    3.30
  -3   2   8   58.69    4.00
   2  -2  -8   58.69    3.70
  -2  -2   8   59.69    2.60
  -2  -2   8   58.99    3.40
   2  -2  -8   62.29    2.30
   2  -2  -8   61.09    3.50
   2   2  -8   58.69    3.00
   2   2  -8   62.29    3.50
  -2   2   8   55.39    3.70
  -2   2   8   56.39    3.80
  -2   2   8   63.29    3.10
   1  -2  -8   12.90    0.90
  -1  -2   8   13.20    1.40
   1  -2  -8   10.30    1.80
  -1  -2   8    9.60    1.30
   1  -2  -8   12.70    1.70
  -1  -2   8   14.10    2.10
   1   2  -8    9.50    1.60
   1   2  -8   12.10    1.40
  -1   2   8    8.80    1.60
  -1   2   8   11.20    2.00
  -1   2   8   13.70    1.80
   1   2  -8   11.40    1.40
   0  -2  -8  232.38    8.20
   0  -2   8  224.68    7.50
   0  -2  -8  227.88    8.30
   0  -2   8  230.58    7.40
   0  -2   8  220.08    8.40
   0  -2  -8  219.58    8.40
   0   2   8  224.18    8.70
   0   2  -8  233.68    8.40
   0   2   8  243.88    8.10
   0   2  -8  221.28    7.40
   0   2  -8  234.28    7.40
   0   2   8  218.58    8.80
   1  -2   8    7.60    1.10
  -1  -2  -8    7.20    1.40
  -1  -2  -8    4.50    1.40
  -1  -2  -8    6.70    1.50
   1  -2   8    8.50    1.10
   1  -2   8    6.30    1.70
   1   2   8    6.70    1.70
  -1   2  -8    5.30    0.80
  -1   2  -8    8.20    1.20
  -1   2  -8    5.60    1.30
   1   2   8    6.10    1.60
   1   2   8    5.70    1.60
  -2  -2  -8    0.80    1.20
   2  -2   8    0.70    1.00
   2  -2   8   -0.20    1.10
   2  -2   8    0.50    0.80
  -2  -2  -8   -0.30    1.00
  -2  -2  -8   -0.10    1.10
   2  -2   8    0.10    1.10
   2   2   8    2.20    1.40
   2   2   8    0.80    1.20
  -2   2  -8    0.60    1.10
  -2   2  -8    1.00    0.50
   2   2   8    0.30    1.10
   2   2   8    1.40    0.90
  -2   2  -8   -0.10    0.80
   3  -2   8  181.18    7.00
   3  -2   8  180.98    7.20
  -3  -2  -8  180.98    7.10
   3  -2   8  196.28    5.90
  -3  -2  -8  181.78    7.00
  -3  -2  -8  187.08    7.10
   3  -2   8  178.98    7.40
   3   2   8  180.88    7.20
   3   2   8  181.98    7.40
  -3   2  -8  190.98    6.50
   3   2   8  177.08    7.50
  -3   2  -8  183.48    6.00
  -3   2  -8  183.68    6.90
   3   2   8  183.78    6.20
   4  -2   8 1322.77   39.90
   4  -2   8 1326.67   40.30
   4  -2   8 1364.56   38.30
   4  -2   8 1298.47   39.90
  -4  -2  -8 1372.46   39.80
  -4  -2  -8 1323.27   39.70
  -4   2  -8 1323.47   39.60
   4   2   8 1347.67   40.30
  -4   2  -8 1305.67   38.70
  -4   2  -8 1308.37   39.30
   4   2   8 1275.07   39.90
   4   2   8 1341.57   38.80
   4   2   8 1359.96   40.20
   5  -2   8    7.30    1.50
  -5  -2  -8    7.40    1.60
   5  -2   8    6.10    1.70
   5  -2   8    6.20    1.70
  -5  -2  -8    5.90    1.70
   5  -2   8    7.30    1.20
   5   2   8    5.40    1.60
  -5   2  -8    5.80    1.10
   5   2   8    5.90    1.90
  -5   2  -8    5.80    1.10
   5   2   8    5.90    1.60
   5   2   8    7.90    1.50
   6  -2   8  180.88    6.00
  -6  -2  -8  168.98    7.10
   6  -2   8  185.28    7.80
   6  -2   8  170.78    7.30
  -6  -2  -8  173.78    7.00
   6  -2   8  181.38    7.60
   6   2   8  176.38    7.50
   6   2   8  174.88    6.70
  -6   2  -8  174.78    6.90
   6   2   8  176.98    7.60
   6   2   8  168.48    7.60
  -6   2  -8  186.08    6.50
  -7  -2  -8    2.80    1.50
   7  -2   8    5.80    1.80
   7  -2   8    3.20    1.30
   7  -2   8    5.50    1.80
  -7  -2  -8    2.80    1.30
   7  -2   8    2.80    1.80
   7   2   8    5.50    2.00
   7   2   8    2.00    1.70
   7   2   8    3.80    1.90
   7   2   8    3.70    1.80
  -7   2  -8    2.90    1.50
  -7   2  -8    2.60    1.20
   8  -2   8   33.70    4.20
  -8  -2  -8   25.20    2.60
   8  -2   8   24.70    2.30
   8  -2   8   25.20    3.50
  -8  -2  -8   24.70    2.90
   8  -2   8   22.30    2.90
   8   2   8   25.60    3.30
   8   2   8   25.10    2.80
   8   2   8   29.00    3.40
   8   2   8   23.30    3.00
   8   2   8   28.70    2.30
  -8   2  -8   23.00    2.60
  -8   2  -8   27.20    2.80
   9  -2   8    2.80    1.50
   9  -2   8    4.10    1.70
   9  -2   8    0.90    1.90
   9  -2   8    2.70    2.50
  -9  -2  -8    4.90    1.60
  -9  -2  -8    0.70    1.50
  -9   2  -8   -0.70    1.40
   9   2   8    0.50    1.00
  -9   2  -8    2.80    1.50
   9   2   8    0.80    2.10
   9   2   8    4.60    1.90
   9   2   8    2.50    2.00
   9   2   8    6.60    2.10
 -10  -2  -8   51.69    4.20
  10  -2   8   49.20    5.20
 -10  -2  -8   62.59    4.10
  10  -2   8   55.99    3.50
  10  -2   8   57.59    5.90
  10  -2   8   50.39    4.10
  10  -2   8   52.29    3.80
 -10   2  -8   47.10    4.00
  10   2   8   61.29    5.20
  10   2   8   50.89    4.20
  10   2   8   56.19    2.80
  10   2   8   62.29    4.90
  10   2   8   53.99    4.60
 -10   2  -8   58.59    4.10
  11  -2   8   12.00    2.90
  11  -2   8    2.20    1.90
  11  -2   8    9.40    2.30
 -11  -2  -8    7.00    2.00
  11  -2   8   10.30    3.40
  11  -2   8    9.90    2.00
 -11  -2  -8    5.10    2.30
 -11   2  -8    6.10    2.00
  11   2   8    6.80    2.50
  11   2   8    7.90    2.50
 -11   2  -8    8.50    2.20
  11   2   8    4.60    2.60
  11   2   8   14.10    3.60
 -12  -2  -8   27.20    3.70
  12  -2   8   32.20    4.00
  12  -2   8   31.00    3.40
  12  -2   8   27.70    3.50
  12  -2   8   36.30    5.30
 -12  -2  -8   39.30    3.80
  12  -2   8   35.20    5.70
  12   2   8   28.00    3.90
  12   2   8   22.00    3.60
  12   2   8   29.00    4.40
  12   2   8   27.10    3.80
 -12   2  -8   36.50    4.40
 -12   2  -8   30.10    3.70
 -13  -2  -8   37.20    4.10
 -13  -2  -8   35.40    4.00
  13  -2   8   51.49    5.90
  13  -2   8   35.20    4.00
  13  -2   8   45.50    4.00
  13  -2   8   39.70    3.90
  13  -2   8   40.30    6.10
 -13   2  -8   35.70    3.90
  13   2   8   35.10    4.40
  13   2   8   28.40    4.40
  13   2   8   32.60    4.20
 -13   2  -8   36.60    5.20
  14  -2   8    2.30    2.70
  14  -2   8    4.30    2.80
 -14  -2  -8    2.40    2.20
  14  -2   8    3.60    4.10
  14  -2   8    3.40    2.90
  14  -2   8    1.70    6.00
 -14   2  -8    0.60    2.30
 -14   2  -8    2.50    3.20
  14   2   8   -7.30    4.40
  14   2   8    2.40    2.90
  14   2   8   -0.40    2.50
  14  -3  -8   26.70    3.90
 -14  -3   8   34.10    4.20
  14  -3  -8   55.29    7.30
  14  -3  -8   37.80    4.60
  14   3  -8   28.90    4.60
 -14   3   8   32.20    6.50
  14   3  -8   30.50    4.90
 -13  -3   8    2.00    2.40
  13  -3  -8    2.20    2.50
  13  -3  -8    5.30    2.30
  13  -3  -8    1.30    3.70
 -13   3   8   10.00    5.40
  13   3  -8    6.30    2.80
  13   3  -8    2.60    3.10
 -12  -3   8   -0.40    2.00
  12  -3  -8    4.00    2.90
  12  -3  -8   -0.80    2.00
  12  -3  -8    0.90    2.20
  12   3  -8    2.70    2.90
  12   3  -8   -4.20    2.30
 -12   3   8    1.40    3.60
 -11  -3   8   32.10    3.30
  11  -3  -8   32.60    4.50
  11  -3  -8   33.10    3.70
  11  -3  -8   27.80    3.60
  11   3  -8   25.90    3.90
  11   3  -8   26.80    4.20
 -11   3   8   31.10    4.60
 -10  -3   8   80.19    4.10
  10  -3  -8   66.99    5.00
 -10  -3   8   72.99    4.20
  10  -3  -8   70.39    4.50
  10  -3  -8   77.39    6.10
  10   3  -8   71.19    5.40
  10   3  -8   76.69    5.80
 -10   3   8   73.49    7.00
   9  -3  -8   10.80    2.20
   9  -3  -8    8.90    2.00
   9  -3  -8    8.50    2.50
  -9  -3   8   12.90    2.00
  -9  -3   8   11.60    1.90
   9   3  -8    9.20    2.70
   9   3  -8   12.20    2.60
  -9   3   8   14.70    3.40
  -8  -3   8   11.50    1.70
   8  -3  -8    8.50    2.10
   8  -3  -8   10.30    2.50
   8  -3  -8    9.80    2.10
  -8  -3   8   11.30    2.10
  -8   3   8    7.60    2.90
   8   3  -8    6.50    2.00
   8   3  -8    6.60    2.40
   8   3  -8   11.80    3.00
  -7  -3   8  102.99    4.10
   7  -3  -8  103.69    6.20
   7  -3  -8   99.09    5.50
  -7  -3   8  100.99    5.00
   7  -3  -8  100.89    4.60
  -7   3   8   97.19    6.60
   7   3  -8   97.39    5.90
   7   3  -8   97.29    5.90
   7   3  -8  107.39    5.70
  -6  -3   8   50.79    3.50
  -6  -3   8   49.40    2.40
   6  -3  -8   44.70    2.90
  -6  -3   8   48.10    2.80
   6  -3  -8   44.40    3.70
   6  -3  -8   50.49    4.40
   6   3  -8   48.40    3.90
  -6   3   8   47.80    2.60
   6   3  -8   43.70    3.90
  -6   3   8   39.60    4.80
   6   3  -8   47.50    4.10
   5  -3  -8    1.50    1.90
  -5  -3   8    2.40    1.00
  -5  -3   8    3.60    1.50
   5  -3  -8    2.60    1.30
   5  -3  -8   -0.30    1.50
  -5  -3   8    2.40    0.80
   5   3  -8    3.80    1.90
   5   3  -8    4.40    1.60
  -5   3   8   -2.80    2.00
  -5   3   8    3.10    1.40
   5   3  -8    4.00    1.40
  -4  -3   8    1.90    1.60
   4  -3  -8    1.20    1.60
   4  -3  -8    1.00    1.60
   4  -3  -8    2.00    1.10
   4   3  -8   -0.20    1.60
  -4   3   8    1.60    1.90
  -4   3   8   -1.70    1.70
   4   3  -8    1.00    1.70
  -4   3   8   -0.50    1.30
   4   3  -8    0.00    1.20
  -3  -3   8   70.49    4.50
  -3  -3   8   73.49    3.80
   3  -3  -8   67.29    4.30
   3  -3  -8   71.19    3.20
   3  -3  -8   66.19    4.60
  -3   3   8   68.59    4.70
   3   3  -8   74.59    4.50
   3   3  -8   74.69    4.00
  -3   3   8   68.39    5.00
  -3   3   8   72.19    3.70
  -2  -3   8   22.50    2.30
   2  -3  -8   26.80    1.90
  -2  -3   8   24.80    3.20
   2  -3  -8   21.30    3.10
   2  -3  -8   22.90    2.70
  -2   3   8   26.60    2.60
   2   3  -8   25.20    2.90
  -2   3   8   19.40    3.20
   2   3  -8   27.70    2.40
  -2   3   8   20.70    3.10
   1  -3  -8    1.10    1.40
   1  -3  -8   -2.10    1.00
   1  -3  -8   -1.70    1.10
  -1  -3   8   -0.70    1.60
  -1  -3   8    0.40    1.40
  -1   3   8   -0.20    1.30
   1   3  -8    3.50    1.40
   1   3  -8   -0.50    1.10
  -1   3   8    0.30    1.20
  -1   3   8    2.90    1.30
   0  -3  -8   39.70    3.50
   0  -3  -8   37.30    2.10
   0  -3   8   38.10    2.00
   0  -3   8   37.80    3.40
   0  -3   8   35.10    2.60
   0  -3  -8   34.40    3.10
   0   3  -8   39.50    2.00
   0   3  -8   35.30    2.70
   0   3   8   35.10    3.20
   0   3   8   33.20    3.70
   0   3   8   39.20    3.00
   0   3  -8   38.30    3.10
   1  -3   8    2.10    1.50
   1  -3   8    1.60    1.10
  -1  -3  -8    1.60    1.60
  -1  -3  -8    1.50    1.40
   1  -3   8    3.00    1.00
   1   3   8    3.10    1.60
  -1   3  -8    2.80    1.00
   1   3   8    1.70    1.80
  -1   3  -8    3.40    1.00
  -1   3  -8    4.40    1.70
   1   3   8    1.60    1.50
   2  -3   8    1.00    1.10
  -2  -3  -8   -1.30    1.40
  -2  -3  -8    0.20    1.30
   2  -3   8    0.70    1.50
   2  -3   8    0.00    1.20
  -2  -3  -8    1.30    1.70
   2  -3   8    0.80    1.30
  -2   3  -8    0.20    0.90
  -2   3  -8    0.70    1.30
   2   3   8    2.00    2.10
   2   3   8   -1.90    1.30
  -2   3  -8    0.00    0.90
   2   3   8   -0.40    1.30
  -3  -3  -8   28.10    2.90
  -3  -3  -8   24.40    2.70
   3  -3   8   27.20    2.60
  -3  -3  -8   23.30    2.70
   3  -3   8   28.20    2.90
   3  -3   8   30.40    3.40
   3  -3   8   27.20    2.30
   3   3   8   28.70    3.20
  -3   3  -8   21.70    2.70
   3   3   8   28.30    2.90
  -3   3  -8   29.20    2.10
   3   3   8   27.00    2.40
  -3   3  -8   26.70    2.40
   3   3   8   27.90    3.80
   4  -3   8   75.59    4.40
   4  -3   8   88.29    3.70
  -4  -3  -8   73.09    4.50
  -4  -3  -8   77.49    4.30
   4  -3   8   74.69    4.50
  -4  -3  -8   83.29    4.60
   4  -3   8   90.09    5.50
  -4   3  -8   77.39    4.20
   4   3   8   77.99    4.60
  -4   3  -8   77.79    3.80
   4   3   8   76.29    4.80
   4   3   8   82.89    3.90
   4   3   8   78.19    5.30
  -4   3  -8   80.59    3.90
  -5  -3  -8   42.00    3.40
   5  -3   8   45.90    3.60
   5  -3   8   47.40    4.40
   5  -3   8   39.70    2.60
   5  -3   8   42.90    3.80
  -5  -3  -8   42.40    3.30
  -5  -3  -8   44.10    3.50
   5   3   8   46.00    3.10
  -5   3  -8   40.00    2.90
  -5   3  -8   34.00    3.10
   5   3   8   45.90    3.70
   5   3   8   45.80    4.40
  -5   3  -8   42.30    2.90
   5   3   8   40.10    3.70
  -6  -3  -8   84.39    5.00
   6  -3   8   83.19    3.80
   6  -3   8   70.69    5.40
  -6  -3  -8   79.89    4.60
   6  -3   8   77.09    4.70
   6  -3   8   82.89    5.20
   6   3   8   77.39    5.60
  -6   3  -8   84.49    4.50
   6   3   8   74.69    5.10
  -6   3  -8   83.39    4.10
   6   3   8   85.09    5.00
   6   3   8   84.69    4.30
  -6   3  -8   79.79    4.10
  -7  -3  -8   31.40    3.30
   7  -3   8   33.10    4.50
   7  -3   8   28.10    3.40
   7  -3   8   29.90    2.70
   7  -3   8   31.00    4.60
  -7  -3  -8   32.30    3.30
  -7   3  -8   33.40    3.10
   7   3   8   36.90    4.40
  -7   3  -8   32.00    3.00
   7   3   8   37.20    3.80
   7   3   8   23.90    3.60
   7   3   8   28.70    3.10
   8  -3   8   33.30    3.00
  -8  -3  -8   28.20    3.30
  -8  -3  -8   35.80    3.50
   8  -3   8   31.00    3.50
   8  -3   8   40.00    5.30
   8  -3   8   32.90    4.90
   8   3   8   29.40    3.70
   8   3   8   33.00    4.20
  -8   3  -8   38.00    3.30
  -8   3  -8   34.60    3.40
   8   3   8   41.40    4.60
   8   3   8   34.30    3.20
   9  -3   8   26.60    3.80
  -9  -3  -8   26.30    3.40
   9  -3   8   21.30    4.20
  -9  -3  -8   25.50    3.20
   9  -3   8   21.90    2.80
   9  -3   8   14.50    2.80
  -9   3  -8   26.10    3.40
   9   3   8   21.30    3.20
   9   3   8   24.20    3.50
   9   3   8   19.50    3.30
  -9   3  -8   21.00    2.90
   9   3   8   25.30    3.40
  10  -3   8   12.00    3.00
  10  -3   8    9.00    3.50
  10  -3   8   11.20    2.50
  10  -3   8    4.70    3.80
 -10  -3  -8   11.70    2.40
 -10  -3  -8   13.30    2.70
  10   3   8    9.10    1.50
  10   3   8    9.90    3.00
  10   3   8   10.80    3.00
  10   3   8   16.90    3.70
 -10   3  -8   13.70    2.90
  10   3   8   11.30    2.90
 -10   3  -8   10.20    2.30
  11  -3   8   -1.30    3.90
  11  -3   8    0.90    2.00
  11  -3   8    3.10    2.10
  11  -3   8    1.70    2.20
 -11  -3  -8    2.00    2.30
 -11  -3  -8    0.90    2.00
  11  -3   8   -5.30    3.30
  11   3   8   -1.10    2.10
  11   3   8    0.40    3.20
  11   3   8   -4.50    2.30
 -11   3  -8    0.70    1.70
  11   3   8    2.40    3.30
 -11   3  -8    2.60    2.80
 -12  -3  -8    0.30    2.20
 -12  -3  -8    2.20    2.20
  12  -3   8    4.80    3.80
  12  -3   8    4.60    2.50
  12  -3   8   10.00    5.00
  12  -3   8    2.70    2.70
  12  -3   8   -2.40    1.90
  12   3   8   -5.70    3.90
  12   3   8   -3.70    3.60
  12   3   8    0.00    2.20
 -12   3  -8   -0.80    1.90
  12   3   8    3.00    2.60
 -12   3  -8   -1.60    3.00
  13  -3   8   12.30    2.90
 -13  -3  -8    5.40    2.70
  13  -3   8   11.00    2.80
 -13  -3  -8    5.30    2.70
  13  -3   8    8.10    6.40
  13  -3   8    9.60    2.80
  13  -3   8    0.90    4.60
  13   3   8    8.40    3.10
  13   3   8    7.70    4.00
  13   3   8    4.90    4.10
 -13   3  -8    6.80    3.50
 -13   3  -8    5.80    2.20
  13   3   8    8.10    3.40
  12  -4  -8   30.90    4.20
  12  -4  -8   27.90    5.30
  12  -4  -8   26.70    3.50
 -12   4   8   23.90    6.20
  12   4  -8   26.50    4.60
  12   4  -8   23.40    4.20
 -11  -4   8    5.10    2.30
  11  -4  -8    2.60    2.20
 -11  -4   8    8.00    2.50
  11  -4  -8   -3.90    4.00
  11  -4  -8    5.10    2.40
  11   4  -8    2.40    2.80
  11   4  -8   11.80    3.30
 -11   4   8   13.00    5.20
  10  -4  -8    3.00    2.00
 -10  -4   8    1.70    2.30
  10  -4  -8   -3.40    3.30
  10  -4  -8    1.20    2.20
 -10  -4   8   -2.90    3.60
  10   4  -8    3.60    2.70
  10   4  -8    2.00    2.90
  10   4  -8    2.20    3.00
   9  -4  -8   45.30    3.60
  -9  -4   8   45.80    4.70
  -9  -4   8   41.30    3.00
   9  -4  -8   38.70    5.10
   9  -4  -8   37.10    4.10
   9   4  -8   44.00    4.90
   9   4  -8   49.20    5.50
  -9   4   8   41.70    6.50
   9   4  -8   36.40    4.80
  -8  -4   8   72.59    5.50
   8  -4  -8   79.99    7.00
   8  -4  -8   68.99    5.00
   8  -4  -8   72.99    4.40
  -8  -4   8   65.59    5.00
   8   4  -8   77.19    6.00
  -8   4   8   75.29    7.50
   8   4  -8   62.09    5.60
   8   4  -8   66.29    5.60
   7  -4  -8   45.50    3.50
   7  -4  -8   54.79    5.90
  -7  -4   8   50.69    4.60
   7  -4  -8   41.60    4.10
  -7  -4   8   45.90    4.10
  -7   4   8   54.29    6.20
   7   4  -8   51.09    4.90
   7   4  -8   49.50    4.80
   7   4  -8   47.90    4.50
  -6  -4   8   51.19    4.80
   6  -4  -8   58.09    3.60
   6  -4  -8   56.49    6.00
   6  -4  -8   49.20    4.30
  -6  -4   8   57.49    4.30
   6   4  -8   49.30    4.80
  -6   4   8   60.49    3.50
  -6   4   8   59.49    6.10
   6   4  -8   48.50    4.60
   6   4  -8   59.49    4.90
   5  -4  -8  203.28    9.30
   5  -4  -8  219.88    8.00
   5  -4  -8  226.18   10.60
  -5  -4   8  224.18    9.40
  -5  -4   8  204.18    8.90
  -5   4   8  210.98    8.00
   5   4  -8  205.78    9.70
  -5   4   8  230.28   10.50
   5   4  -8  232.38    9.50
  -5   4   8  236.18   11.10
   4  -4  -8    1.50    1.90
  -4  -4   8   -0.90    1.60
   4  -4  -8    0.70    1.50
  -4  -4   8    6.30    2.30
   4  -4  -8   -1.00    2.30
   4   4  -8    3.60    2.20
  -4   4   8   -0.20    2.30
   4   4  -8    1.40    1.90
  -4   4   8    2.50    2.40
  -4   4   8    2.60    2.10
   3  -4  -8   14.90    2.00
  -3  -4   8   15.80    2.70
   3  -4  -8    7.30    2.10
   3  -4  -8   16.50    3.20
  -3  -4   8   10.00    2.30
   3   4  -8   19.20    3.00
  -3   4   8   15.60    2.40
  -3   4   8    8.10    2.50
   3   4  -8   14.80    3.10
  -3   4   8   13.30    2.60
  -2  -4   8   59.49    4.80
   2  -4  -8   61.49    3.30
   2  -4  -8   57.99    5.60
   2  -4  -8   56.89    4.50
  -2  -4   8   68.49    4.10
  -2   4   8   58.59    5.40
  -2   4   8   61.79    4.10
  -2   4   8   60.99    4.80
   2   4  -8   62.99    4.50
   2   4  -8   59.39    4.30
  -1  -4   8   19.90    3.40
   1  -4  -8   21.90    3.30
   1  -4  -8   19.20    2.20
   1  -4  -8   22.50    3.10
  -1  -4   8   28.10    3.10
   1   4  -8   23.60    3.50
  -1   4   8   25.10    3.30
  -1   4   8   25.60    3.30
  -1   4   8   29.50    4.60
   1   4  -8   20.30    3.30
   0  -4  -8   52.89    4.40
   0  -4   8   53.39    3.60
   0  -4   8   49.70    4.90
   0  -4  -8   55.89    5.00
   0  -4  -8   59.09    3.10
   0   4  -8   55.19    3.90
   0   4   8   53.89    4.10
   0   4  -8   52.59    4.20
   0   4   8   57.19    5.60
   0   4   8   54.19    4.50
   1  -4   8   16.60    2.40
  -1  -4  -8   12.40    2.80
  -1  -4  -8   16.60    2.90
   1  -4   8   15.30    3.00
  -1   4  -8   18.30    2.80
   1   4   8   15.70    3.10
  -1   4  -8   16.80    2.60
   1   4   8   16.80    2.60
   1   4   8   14.10    2.50
   2  -4   8   15.90    2.30
  -2  -4  -8   18.10    2.80
  -2  -4  -8   14.30    2.70
   2  -4   8   15.50    2.60
   2  -4   8   13.70    2.10
   2  -4   8   20.80    3.30
  -2   4  -8   17.90    2.80
  -2   4  -8   19.80    1.80
   2   4   8   23.60    3.20
  -2   4  -8   16.60    2.80
   2   4   8   16.70    3.20
   2   4   8   19.30    2.60
   3  -4   8   11.60    2.10
   3  -4   8   11.10    2.00
   3  -4   8   12.80    2.50
   3  -4   8   15.00    3.40
  -3  -4  -8   10.90    2.60
  -3  -4  -8   10.90    2.60
  -3   4  -8   11.80    2.40
  -3   4  -8   17.10    1.90
  -3   4  -8   14.80    2.40
   3   4   8   18.30    3.50
   3   4   8   13.40    2.50
   3   4   8   14.50    2.40
  -4  -4  -8    1.40    1.80
   4  -4   8    5.80    2.70
  -4  -4  -8    0.40    2.10
   4  -4   8    3.60    1.90
   4  -4   8    4.10    1.80
   4  -4   8    3.60    1.80
  -4  -4  -8    2.60    1.80
  -4   4  -8    3.40    1.40
   4   4   8    0.80    2.40
  -4   4  -8    4.20    2.20
  -4   4  -8   -1.20    1.80
   4   4   8    6.70    2.00
   4   4   8    0.20    2.00
  -5  -4  -8    2.50    2.20
  -5  -4  -8    3.20    2.00
   5  -4   8    2.50    2.00
  -5  -4  -8    2.30    1.80
   5  -4   8    2.10    1.90
   5  -4   8   -1.60    2.00
   5  -4   8    0.50    2.80
  -5   4  -8   -2.20    1.90
   5   4   8    1.10    2.20
   5   4   8    1.60    1.90
   5   4   8    0.60    1.90
  -5   4  -8    2.80    1.50
   5   4   8    2.40    1.80
  -5   4  -8    4.40    2.00
   6  -4   8    4.90    2.50
   6  -4   8    3.70    2.00
  -6  -4  -8    3.40    2.00
   6  -4   8    2.50    1.90
  -6  -4  -8    2.60    2.10
  -6  -4  -8    2.40    2.00
   6  -4   8    4.40    2.90
   6   4   8    2.10    2.80
   6   4   8    6.40    2.30
   6   4   8    3.30    2.10
  -6   4  -8    4.10    2.10
  -6   4  -8    3.10    1.60
  -6   4  -8    3.70    1.90
   6   4   8    5.00    2.30
  -7  -4  -8    2.30    2.10
   7  -4   8    4.90    2.90
  -7  -4  -8    7.40    2.30
  -7  -4  -8    6.10    2.20
   7  -4   8    4.40    2.10
   7  -4   8    6.30    2.20
   7  -4   8    7.80    3.40
   7   4   8    6.40    2.50
   7   4   8    1.10    3.10
  -7   4  -8    5.90    2.20
   7   4   8    5.90    2.40
  -7   4  -8    6.10    1.80
  -7   4  -8    8.30    2.20
   7   4   8    6.60    2.40
   8  -4   8   27.90    3.30
  -8  -4  -8   25.60    3.40
  -8  -4  -8   28.60    4.10
   8  -4   8   24.70    4.50
   8  -4   8   26.40    4.10
   8  -4   8   23.30    3.70
  -8   4  -8   26.90    3.30
   8   4   8   28.70    4.80
   8   4   8   23.50    3.80
   8   4   8   20.70    3.70
  -8   4  -8   24.80    3.60
   8   4   8   23.80    3.40
   9  -4   8    5.70    3.80
  -9  -4  -8    3.50    2.40
   9  -4   8    5.70    2.50
   9  -4   8    2.30    3.60
  -9  -4  -8    4.20    2.70
   9  -4   8    1.80    2.40
   9   4   8   -2.40    3.30
  -9   4  -8    1.20    2.40
   9   4   8    4.30    2.50
   9   4   8    1.60    2.90
  -9   4  -8    3.00    2.20
   9   4   8    6.60    2.90
  10  -4   8   -0.40    2.00
  10  -4   8    6.30    4.30
 -10  -4  -8    4.60    2.70
  10  -4   8    1.00    4.30
  10  -4   8    2.20    2.50
 -10  -4  -8    3.70    2.60
 -10   4  -8    4.40    3.10
  10   4   8   -0.30    2.90
  10   4   8    1.20    4.10
  10   4   8   -1.80    3.30
 -10   4  -8   -1.70    1.80
  10   4   8    1.50    2.40
  11  -4   8    8.70    5.40
 -11  -4  -8    0.10    2.40
 -11  -4  -8    2.30    2.80
  11  -4   8    4.60    4.70
  11  -4   8    0.20    2.50
  11  -4   8   -0.60    2.50
  11   4   8    3.00    2.90
  11   4   8   -2.50    2.70
  11   4   8    5.70    3.60
  11   4   8   -6.80    4.30
 -11   4  -8    1.00    3.20
 -11   4  -8   -1.20    1.90
   9  -5  -8   19.40    5.60
   9  -5  -8   11.80    2.90
  -9  -5   8   17.20    4.00
   9  -5  -8   12.40    2.70
  -9  -5   8   16.50    4.20
   9   5  -8   19.70    4.30
  -9   5   8   17.00    5.60
   9   5  -8   22.90    4.90
   9   5  -8   13.10    3.90
   8  -5  -8   19.20    3.70
  -8  -5   8   20.40    4.00
  -8  -5   8   17.70    3.30
   8  -5  -8   11.40    4.80
   8  -5  -8   19.10    2.90
  -8   5   8   20.30    5.30
   8   5  -8   21.40    3.80
   8   5  -8   18.80    4.60
   8   5  -8   20.90    4.80
  -8   5   8   14.20    5.10
   7  -5  -8   11.10    4.70
  -7  -5   8   17.90    3.30
   7  -5  -8   13.20    3.30
  -7  -5   8   19.40    4.00
   7  -5  -8   19.70    2.80
  -7   5   8   18.70    5.00
   7   5  -8   25.70    4.30
  -7   5   8   18.20    4.80
   7   5  -8   14.70    3.30
  -6  -5   8   -0.70    3.40
   6  -5  -8    5.50    4.60
   6  -5  -8    6.50    2.30
   6  -5  -8    4.80    2.80
  -6  -5   8    7.00    2.60
   6   5  -8    6.20    3.20
  -6   5   8    2.40    4.00
  -6   5   8    3.70    2.60
   6   5  -8    3.70    3.00
  -6   5   8    8.20    3.90
   5  -5  -8    8.80    2.20
  -5  -5   8   11.80    3.60
   5  -5  -8    8.80    2.20
  -5  -5   8    8.10    2.70
   5  -5  -8    6.30    4.00
  -5   5   8    5.50    3.60
   5   5  -8    7.00    2.80
   5   5  -8    7.60    3.20
  -5   5   8    8.10    2.80
  -5   5   8    5.30    3.30
   4  -5  -8    6.20    2.10
  -4  -5   8    4.60    3.60
   4  -5  -8   12.00    4.20
  -4  -5   8    4.80    2.40
   4  -5  -8    3.30    2.50
  -4   5   8    4.80    3.20
  -4   5   8    8.20    2.90
  -4   5   8    8.70    3.70
   4   5  -8    3.00    2.40
   4   5  -8    2.30    2.60
   3  -5  -8    0.10    2.40
   3  -5  -8    2.20    2.10
  -3  -5   8   -1.00    2.20
   3  -5  -8    1.80    3.50
  -3  -5   8    3.60    3.40
  -3   5   8    0.80    2.50
   3   5  -8    1.90    2.40
  -3   5   8    1.60    2.70
  -3   5   8    1.90    3.70
   3   5  -8   -1.00    2.20
   2  -5  -8   25.70    4.80
   2  -5  -8   20.00    2.60
  -2  -5   8   18.20    3.10
  -2  -5   8   32.20    4.60
   2  -5  -8   18.60    3.60
  -2   5   8   16.10    3.30
  -2   5   8   20.50    4.80
   2   5  -8   15.00    3.50
  -2   5   8   27.30    3.70
   2   5  -8   17.00    3.30
   1  -5  -8   41.50    4.20
   1  -5  -8   39.80    3.40
  -1  -5   8   37.10    4.00
   1  -5  -8   45.70    5.60
  -1  -5   8   43.80    5.40
  -1   5   8   42.00    5.00
  -1   5   8   36.60    4.20
   1   5  -8   35.50    4.40
   1   5  -8   38.90    4.90
  -1   5   8   29.60    5.20
   0  -5   8   -0.80    3.20
   0  -5  -8    3.80    2.10
   0  -5  -8    2.00    3.30
   0  -5   8    0.10    2.10
   0  -5  -8    2.70    2.70
   0   5   8    2.30    2.50
   0   5  -8   -0.80    2.30
   0   5  -8    2.40    2.10
   0   5   8   -0.90    3.60
   0   5   8    8.30    2.80
   1  -5   8    4.50    2.50
  -1  -5  -8    0.60    3.20
  -1  -5  -8    3.50    2.10
  -1  -5  -8    1.20    2.50
   1  -5   8    4.50    2.40
   1  -5   8    3.70    3.50
  -1   5  -8    2.00    2.20
  -1   5  -8    6.10    2.20
   1   5   8    5.90    2.40
   1   5   8    4.10    2.60
   1   5   8    3.20    3.90
  -2  -5  -8   28.40    3.70
   2  -5   8   29.70    4.00
  -2  -5  -8   22.50    4.20
   2  -5   8   29.00    4.80
   2  -5   8   30.60    3.60
   2   5   8   28.10    4.50
   2   5   8   24.60    3.80
   2   5   8   33.70    4.40
  -2   5  -8   26.10    3.30
  -2   5  -8   24.60    3.80
   3  -5   8    7.40    2.50
   3  -5   8    5.30    2.30
  -3  -5  -8    5.90    3.20
  -3  -5  -8    6.60    2.90
   3  -5   8    9.00    4.00
   3   5   8    6.60    3.00
   3   5   8    7.50    2.50
  -3   5  -8    8.20    2.00
   3   5   8   11.70    4.00
  -3   5  -8    8.00    2.50
  -3   5  -8   11.30    2.70
  -4  -5  -8   16.90    4.00
   4  -5   8   14.00    4.50
   4  -5   8   10.30    2.30
  -4  -5  -8   11.10    2.70
   4  -5   8    8.70    2.90
  -4   5  -8    6.90    2.70
  -4   5  -8    8.50    2.40
  -4   5  -8    6.90    1.80
   4   5   8    9.50    2.60
   4   5   8   11.60    3.00
   4   5   8    6.00    3.60
   5  -5   8   20.70    3.60
   5  -5   8   27.40    3.80
   5  -5   8   25.40    5.20
  -5  -5  -8   27.70    3.80
  -5  -5  -8   36.20    4.40
  -5   5  -8   27.10    4.10
   5   5   8   27.50    4.30
  -5   5  -8   23.10    3.00
  -5   5  -8   26.90    3.60
   5   5   8   33.80    5.00
   5   5   8   25.50    4.00
   6  -5   8   19.20    3.00
  -6  -5  -8   27.00    4.40
   6  -5   8   20.90    3.80
   6  -5   8   14.10    3.30
  -6  -5  -8   17.70    3.10
   6  -5   8   17.10    4.80
  -6  -5  -8   19.80    3.90
   6   5   8   21.20    3.20
   6   5   8   20.90    4.70
  -6   5  -8   18.50    3.60
   6   5   8   17.80    3.70
  -6   5  -8   22.70    3.30
  -6   5  -8   18.20    2.50
   7  -5   8   17.60    3.10
  -7  -5  -8   27.40    3.50
  -7  -5  -8   24.50    4.00
   7  -5   8   20.40    4.10
  -7  -5  -8   20.60    3.50
   7  -5   8   26.00    5.60
   7  -5   8   20.00    3.60
   7   5   8   19.80    4.00
  -7   5  -8   20.30    2.80
   7   5   8   19.40    5.80
  -7   5  -8   26.00    3.60
  -7   5  -8   24.80    3.80
   7   5   8   28.50    4.20
  -8  -5  -8   -2.30    2.80
   8  -5   8    6.30    3.10
   8  -5   8    6.00    2.60
   8  -5   8    1.60    4.60
  -8  -5  -8    5.20    3.00
  -8  -5  -8    6.40    3.40
   8  -5   8    4.30    4.30
   8   5   8   11.30    5.80
   8   5   8   -0.40    3.00
  -8   5  -8    7.50    3.60
   8   5   8   -0.20    3.00
   8   5   8   -0.40    3.10
  -8   5  -8    8.20    2.30
   9  -5   8    7.20    7.10
   9  -5   8   19.20    3.30
  -9  -5  -8   18.60    3.50
  -9  -5  -8   26.40    3.90
   9  -5   8   24.40    5.50
   9  -5   8   21.00    4.00
  -9   5  -8   22.80    3.30
   9   5   8   17.80    3.90
   9   5   8   16.80    4.10
  -9   5  -8   23.20    4.50
   9   5   8   27.10    4.30
  -4  -6   8   40.90    7.10
  -4  -6   8   33.10    4.50
   4  -6  -8   39.80    5.00
  -4   6   8   38.00    5.30
  -4   6   8   45.10    5.90
   4   6  -8   32.30    4.70
   4   6  -8   36.30    5.10
  -3  -6   8   -1.80    5.20
   3  -6  -8    6.00    2.70
   3  -6  -8    3.90    2.80
   3  -6  -8   10.30    7.70
  -3  -6   8    4.60    2.80
  -3   6   8    4.80    3.30
   3   6  -8    5.50    2.80
   3   6  -8    6.40    3.90
  -3   6   8   -8.50    8.10
  -3   6   8    3.10    4.00
   2  -6  -8    5.30    2.70
   2  -6  -8    8.80    3.20
   2  -6  -8    8.80    5.40
  -2  -6   8    7.70    2.90
  -2  -6   8    9.60    5.30
   2   6  -8   10.50    3.70
  -2   6   8    7.10    3.40
   2   6  -8   10.80    4.00
  -2   6   8    0.70    7.60
  -2   6   8    3.30    3.90
   1  -6  -8    2.10    5.30
   1  -6  -8    3.00    2.60
   1  -6  -8   -0.80    2.40
  -1  -6   8    7.20    5.10
  -1  -6   8    2.70    2.60
   1   6  -8    3.60    3.10
  -1   6   8    0.40    3.40
   1   6  -8    3.60    3.80
  -1   6   8    5.00    3.40
  -1   6   8    3.60    6.80
   0  -6  -8   -4.90    4.90
   0  -6  -8    7.60    2.80
   0  -6   8    4.50    3.20
   0  -6   8    4.10    5.10
   0  -6  -8    4.30    2.80
   0  -6   8    3.30    2.60
   0   6   8   -2.10    3.10
   0   6  -8    0.10    3.60
   0   6   8    5.90    3.60
   0   6  -8   -4.40    2.70
   0   6   8   -3.70    7.30
  -1  -6  -8    6.10    2.90
   1  -6   8    6.00    3.10
   1  -6   8    0.70    2.70
  -1  -6  -8    6.00    3.00
  -1  -6  -8   -3.30    4.80
   1  -6   8   -5.70    5.00
   1   6   8    5.50    7.50
   1   6   8    5.60    3.50
  -1   6  -8    2.10    3.50
   1   6   8    3.90    3.50
  -1   6  -8    2.50    2.90
  -2  -6  -8   -3.80    2.50
   2  -6   8    5.50    3.10
  -2  -6  -8    6.60    5.20
   2  -6   8   -9.50    6.20
  -2  -6  -8    3.60    2.80
   2  -6   8   -2.00    2.50
   2   6   8    1.60    3.30
   2   6   8   -0.70    3.40
  -2   6  -8    3.20    3.50
  -2   6  -8   -1.80    2.60
   2   6   8    0.60    5.80
   3  -6   8   -0.60    3.00
  -3  -6  -8   -1.20    5.60
   3  -6   8   -4.30    4.80
  -3  -6  -8   -0.60    2.80
   3  -6   8    1.10    2.80
  -3  -6  -8    0.90    2.90
   3   6   8   -0.20    3.40
   3   6   8   -2.50    3.30
  -3   6  -8    0.10    2.70
  -3   6  -8   -0.10    3.50
   3   6   8    1.50    3.30
 -16   0   9    0.60    3.30
  16   0  -9   -2.20    2.90
  16   0  -9    6.10    2.90
  15   0  -9   -0.60    2.40
  15   0  -9    1.10    2.80
 -15   0   9   -1.20    1.90
  15   0  -9    4.20    2.70
 -15   0   9   -2.30    3.90
 -14   0   9    5.20    3.30
  14   0  -9    3.50    2.50
  14   0  -9   -2.90    2.30
  14   0  -9    0.00    1.80
 -13   0   9   51.49    6.20
  13   0  -9   59.19    3.80
  13   0  -9   50.59    4.40
  13   0  -9   49.10    4.50
 -12   0   9   -0.30    2.50
  12   0  -9    1.00    2.20
  12   0  -9    3.40    1.90
  12   0  -9    1.50    1.80
  11   0  -9    1.80    1.60
  11   0  -9    3.50    1.60
 -11   0   9    4.30    2.20
  11   0  -9    0.00    2.00
 -10   0   9   -1.00    1.60
  10   0  -9   -1.90    1.40
  10   0  -9   -0.30    1.50
  10   0  -9    0.10    1.70
  -9   0   9  155.08    7.50
   9   0  -9  162.48    6.90
   9   0  -9  156.08    6.90
   9   0  -9  169.08    6.20
   8   0  -9    0.50    1.60
   8   0  -9   -0.10    1.30
   8   0  -9    0.10    1.20
  -8   0   9   -0.80    1.20
   7   0  -9   80.29    3.60
   7   0  -9   76.69    4.00
  -7   0   9   74.79    4.50
   7   0  -9   77.89    4.00
   6   0  -9   -1.00    1.10
   6   0  -9    1.00    0.90
  -6   0   9    0.00    1.00
   6   0  -9    0.40    1.00
   5   0  -9  270.77    9.20
   5   0  -9  268.37    9.10
  -5   0   9  257.27    9.70
   5   0  -9  279.07    8.90
   4   0  -9    0.30    0.90
   4   0  -9    0.10    0.80
  -4   0   9    1.10    0.90
   4   0  -9    0.00    1.00
   3   0  -9  216.08    7.20
  -3   0   9  205.58    8.20
   3   0  -9  219.68    7.20
  -3   0   9  213.08    7.70
   3   0  -9  214.48    7.30
   2   0  -9    0.30    0.90
   2   0  -9    0.40    0.80
  -2   0   9    0.50    0.80
  -2   0   9   -0.20    0.90
   2   0  -9    0.40    0.90
  -1   0   9  500.05   15.50
   1   0  -9  498.75   15.80
   1   0  -9  524.15   15.10
  -1   0   9  491.05   16.20
   0   0  -9    0.70    0.80
   0   0   9    0.10    0.70
   0   0  -9   -0.10    0.60
   0   0   9    0.70    0.90
   1   0   9   32.80    2.60
   1   0   9   32.40    1.70
  -1   0  -9   32.50    2.30
   1   0   9   33.00    1.80
  -1   0  -9   34.20    1.60
   2   0   9   -0.90    0.80
  -2   0  -9   -1.60    0.60
   2   0   9    1.00    1.00
   2   0   9    1.80    0.90
  -2   0  -9    0.70    0.90
   2   0   9    0.70    0.50
   3   0   9  303.17    9.30
   3   0   9  276.17    8.80
   3   0   9  281.97   10.20
  -3   0  -9  287.87    9.80
  -3   0  -9  289.87    8.80
   3   0   9  280.27    9.70
   4   0   9   -1.20    0.70
   4   0   9   -0.10    0.50
  -4   0  -9    0.40    0.90
   4   0   9   -0.10    1.00
   4   0   9   -0.10    0.90
  -4   0  -9   -1.10    0.80
   5   0   9 1187.38   35.20
   5   0   9 1141.09   34.50
  -5   0  -9 1184.68   35.50
   5   0   9 1179.78   35.40
  -5   0  -9 1216.68   34.40
   5   0   9 1173.38   36.00
   6   0   9   -0.60    1.10
   6   0   9   -1.10    1.10
   6   0   9   -0.90    1.30
   6   0   9    0.30    0.90
  -6   0  -9    0.40    1.10
   7   0   9  286.77    9.90
   7   0   9  293.37   10.10
  -7   0  -9  277.67   10.40
   7   0   9  295.77   11.30
   7   0   9  283.47   10.30
   8   0   9   -2.50    1.50
  -8   0  -9   -0.60    1.30
   8   0   9   -0.80    1.20
   8   0   9   -0.30    1.30
   8   0   9    0.50    1.30
   9   0   9  169.38    6.50
   9   0   9  154.68    6.80
  -9   0  -9  154.48    7.10
   9   0   9  148.99    7.90
   9   0   9  158.58    6.90
  10   0   9    1.40    1.80
  10   0   9   -0.70    1.60
  10   0   9    1.90    2.30
  10   0   9    0.80    1.50
 -10   0  -9   -2.40    1.20
  11   0   9    0.50    2.10
  11   0   9    1.50    2.80
  11   0   9    1.50    1.60
 -11   0  -9   -0.30    1.60
  11   0   9    4.90    2.30
  12   0   9    1.70    2.10
 -12   0  -9    0.00    1.60
  12   0   9   -0.50    2.20
  12   0   9   -5.50    2.90
  13   0   9  497.55   19.60
  13   0   9  483.65   17.20
  13   0   9  468.35   17.50
  13   0   9  503.55   15.90
 -13   0  -9  470.65   17.80
  14   0   9    3.00    2.50
 -14   0  -9   -0.70    2.30
  14   0   9   -6.80    4.50
  14   0   9   -0.10    2.30
  14   0   9    2.60    2.20
  15   0   9    0.50    2.90
  15   0   9   -0.20    2.40
  15   0   9    8.20    7.70
 -15   0  -9   -2.60    3.20
 -15   0  -9   -1.10    2.20
 -15  -1   9   52.49    4.90
  15  -1  -9   55.39    5.20
 -15  -1   9   50.29    8.10
  15  -1  -9   54.79    5.00
 -15   1   9   59.99    8.50
  15   1  -9   57.59    5.20
  15   1  -9   55.39    4.90
  15   1  -9   57.59    4.80
  14  -1  -9   15.00    3.40
 -14  -1   9   12.30    4.50
  14  -1  -9   16.20    3.30
 -14   1   9   18.90    4.50
  14   1  -9   11.70    3.20
  14   1  -9   16.00    2.80
  14   1  -9   13.50    2.90
 -13  -1   9    3.20    1.30
  13  -1  -9    6.60    2.30
  13  -1  -9   -0.10    2.00
  13   1  -9    3.70    2.30
  13   1  -9    3.50    2.10
 -13   1   9    4.90    3.20
  13   1  -9    1.00    1.60
 -12  -1   9    1.20    1.30
  12  -1  -9    1.10    1.90
  12  -1  -9    0.30    1.70
  12  -1  -9    2.40    1.90
 -12   1   9    4.40    2.70
  12   1  -9   -1.70    2.30
  12   1  -9    2.70    2.00
  12   1  -9    2.20    1.90
  11  -1  -9  240.98    9.70
  11  -1  -9  247.38    9.40
 -11  -1   9  241.48    8.30
  11  -1  -9  229.18    9.80
 -11   1   9  251.87   11.20
  11   1  -9  235.48   10.10
  11   1  -9  259.47    9.60
  11   1  -9  243.48    9.90
  10  -1  -9   17.10    2.70
  10  -1  -9   19.40    2.90
 -10  -1   9   14.40    2.20
  10  -1  -9   15.90    2.30
  10   1  -9   21.90    2.80
  10   1  -9   16.80    2.70
 -10   1   9   15.00    2.70
  10   1  -9   19.10    2.90
   9  -1  -9    1.00    1.50
   9  -1  -9   -0.30    1.40
   9  -1  -9   -0.20    1.40
  -9  -1   9    2.00    0.90
   9   1  -9   -0.60    1.20
   9   1  -9   -0.60    1.50
  -9   1   9    0.50    1.70
   9   1  -9    1.20    1.60
   8  -1  -9   19.50    2.30
   8  -1  -9   17.80    2.50
   8  -1  -9   16.70    2.30
  -8  -1   9   17.60    1.90
   8   1  -9   18.50    2.40
   8   1  -9   17.30    2.20
   8   1  -9   20.80    2.80
  -8   1   9   20.90    3.10
  -7  -1   9   59.19    3.10
   7  -1  -9   56.49    3.60
   7  -1  -9   64.99    3.40
   7  -1  -9   59.79    3.70
   7   1  -9   61.19    3.50
   7   1  -9   61.99    3.50
  -7   1   9   56.99    4.10
   7   1  -9   58.59    3.70
   6  -1  -9    3.10    1.20
   6  -1  -9    2.00    1.10
   6  -1  -9    4.60    1.40
  -6  -1   9    2.10    0.90
  -6   1   9    2.60    1.30
   6   1  -9    5.40    1.50
   6   1  -9    3.50    1.60
   6   1  -9    3.80    1.20
   5  -1  -9  193.18    6.60
   5  -1  -9  188.58    7.20
   5  -1  -9  183.78    7.30
  -5  -1   9  186.18    6.90
   5   1  -9  196.38    7.40
   5   1  -9  189.48    7.20
  -5   1   9  184.68    7.70
   5   1  -9  201.08    6.90
  -4  -1   9   95.79    4.20
  -4  -1   9   91.69    4.50
   4  -1  -9   97.49    4.30
   4  -1  -9   95.69    4.60
   4  -1  -9   98.69    3.70
   4   1  -9   94.39    4.40
   4   1  -9   95.09    3.90
  -4   1   9   93.29    4.80
   4   1  -9   92.59    4.30
  -3  -1   9    2.90    0.90
   3  -1  -9    2.00    1.00
   3  -1  -9    2.50    0.90
  -3  -1   9    2.00    1.00
   3  -1  -9    1.90    1.00
   3   1  -9    1.60    0.90
   3   1  -9    2.20    1.20
  -3   1   9    0.80    1.00
   3   1  -9   -0.20    1.10
  -3   1   9    1.80    1.40
  -2  -1   9    5.20    1.20
   2  -1  -9    7.70    1.40
  -2  -1   9    5.70    1.30
   2  -1  -9    5.10    1.30
   2  -1  -9    7.20    1.00
  -2   1   9    5.20    1.20
   2   1  -9    6.70    1.30
   2   1  -9    7.00    1.00
  -2   1   9    5.60    1.70
   2   1  -9    7.60    1.40
  -1  -1   9    0.50    0.90
   1  -1  -9    2.50    1.10
  -1  -1   9    0.60    0.90
   1  -1  -9    3.10    1.10
   1  -1  -9    0.90    1.00
   1   1  -9    1.70    1.00
   1   1  -9    0.80    0.70
  -1   1   9    1.70    0.90
  -1   1   9    2.50    1.20
   1   1  -9    0.60    0.90
  -1   1   9   -0.10    1.00
   0  -1   9  472.55   15.20
   0  -1   9  464.35   15.30
   0  -1  -9  501.05   15.40
   0  -1   9  472.45   14.20
   0  -1  -9  504.85   15.00
   0   1  -9  481.55   14.90
   0   1   9  493.65   15.10
   0   1   9  469.95   15.90
   0   1  -9  480.35   15.20
   0   1   9  479.85   15.40
  -1  -1  -9    0.80    1.00
   1  -1   9    0.00    0.90
   1  -1   9    0.50    0.80
  -1  -1  -9   -0.70    0.90
   1   1   9    0.30    1.00
   1   1   9    0.00    0.80
  -1   1  -9    1.80    1.00
   1   1   9   -0.20    0.50
   1   1   9   -0.40    1.10
  -1   1  -9   -0.10    0.80
   2  -1   9  225.78    7.80
  -2  -1  -9  217.28    8.00
   2  -1   9  215.48    8.00
  -2  -1  -9  220.68    7.50
   2  -1   9  220.08    8.10
   2   1   9  221.58    7.90
   2   1   9  224.38    7.90
   2   1   9  219.58    8.40
  -2   1  -9  230.08    8.00
  -2   1  -9  226.88    7.70
   2   1   9  221.98    6.80
   3  -1   9  506.75   16.50
  -3  -1  -9  524.95   16.80
  -3  -1  -9  536.35   16.30
   3  -1   9  520.95   16.90
   3  -1   9  524.25   16.90
   3   1   9  538.75   15.80
   3   1   9  523.95   16.70
  -3   1  -9  552.74   16.60
   3   1   9  523.15   16.80
   3   1   9  532.75   17.30
  -4  -1  -9    1.00    1.00
   4  -1   9   -0.60    0.90
   4  -1   9    1.00    1.00
   4  -1   9    1.90    1.20
  -4  -1  -9    1.60    1.10
  -4   1  -9   -0.80    1.00
   4   1   9    0.30    1.20
   4   1   9    1.00    0.90
   4   1   9    2.10    1.00
   4   1   9    2.00    1.20
   5  -1   9    8.40    1.90
  -5  -1  -9    6.60    1.40
  -5  -1  -9    4.90    1.40
   5  -1   9    5.20    1.40
   5  -1   9    7.40    1.60
   5   1   9    6.10    1.30
   5   1   9    8.20    1.40
  -5   1  -9    6.10    1.00
  -5   1  -9    7.90    1.60
   5   1   9    5.50    1.60
   5   1   9    5.30    1.70
   6  -1   9    9.90    1.80
   6  -1   9   10.70    2.10
  -6  -1  -9    9.70    1.60
  -6  -1  -9    6.60    1.70
   6  -1   9   11.20    1.90
   6   1   9    7.50    1.90
   6   1   9    6.30    1.40
   6   1   9    9.10    1.70
   6   1   9    8.60    1.40
  -6   1  -9    7.10    1.10
  -6   1  -9    7.60    1.60
   6   1   9    7.00    1.70
  -7  -1  -9   15.20    2.20
   7  -1   9    9.90    2.10
   7  -1   9   11.10    2.00
  -7  -1  -9   13.30    1.90
   7  -1   9   15.20    2.00
   7   1   9   13.20    2.40
   7   1   9   10.60    1.70
   7   1   9   13.60    2.00
  -7   1  -9   15.60    1.80
  -7   1  -9   12.40    1.80
   7   1   9   10.80    1.50
   7   1   9   14.10    2.30
   8  -1   9    2.40    2.10
   8  -1   9    4.00    1.70
   8  -1   9    6.60    1.80
  -8  -1  -9    2.20    1.50
   8  -1   9    2.20    1.50
  -8  -1  -9    4.70    1.50
   8   1   9    3.70    1.30
   8   1   9    4.70    1.60
   8   1   9    1.30    2.30
   8   1   9    5.10    1.50
  -8   1  -9    1.70    1.20
  -8   1  -9    4.50    1.20
   8   1   9    5.30    2.00
   9  -1   9   -0.50    1.50
   9  -1   9    2.00    1.70
   9  -1   9    3.80    1.70
   9  -1   9    2.60    2.40
  -9  -1  -9    0.90    1.80
  -9   1  -9    0.80    1.20
   9   1   9    0.50    2.10
  -9   1  -9    0.30    1.20
   9   1   9    3.50    1.60
   9   1   9   -1.30    1.60
   9   1   9    1.90    1.60
   9   1   9   -0.10    1.10
  10  -1   9   -3.90    1.80
 -10  -1  -9   -0.80    1.40
  10  -1   9    0.10    2.00
  10  -1   9   -2.50    2.10
  10  -1   9   -1.30    1.70
  10   1   9    0.50    1.70
 -10   1  -9    0.00    1.40
 -10   1  -9    1.00    1.60
  10   1   9    1.70    2.40
  10   1   9   -0.80    1.50
  10   1   9    0.90    1.80
  11  -1   9   26.60    3.80
  11  -1   9   34.00    5.40
  11  -1   9   31.60    3.40
  11  -1   9   25.40    3.30
 -11  -1  -9   22.90    3.20
  11   1   9   25.60    3.40
  11   1   9   24.20    3.40
 -11   1  -9   21.30    3.30
 -11   1  -9   22.10    3.20
  11   1   9   24.00    2.80
  11   1   9   28.20    4.20
  12  -1   9   74.79    7.60
  12  -1   9   84.09    5.80
  12  -1   9   77.69    4.90
 -12  -1  -9   70.29    5.10
  12  -1   9   74.99    5.20
 -12   1  -9   90.79    5.50
  12   1   9   71.79    5.20
  12   1   9   78.29    7.20
  12   1   9   74.19    3.90
 -12   1  -9   76.49    5.20
  12   1   9   72.09    5.10
  13  -1   9    7.20    2.40
  13  -1   9    1.70    4.30
 -13  -1  -9    5.30    2.40
  13  -1   9    4.50    2.60
  13  -1   9    3.70    2.80
 -13   1  -9    4.60    2.20
 -13   1  -9    6.00    2.80
  13   1   9    5.60    2.40
  13   1   9    1.30    3.80
  13   1   9    1.90    2.60
  14  -1   9   17.40    3.10
  14  -1   9    3.90    2.50
 -14  -1  -9    8.20    2.50
  14  -1   9   11.70    3.30
  14  -1   9   19.10    5.60
 -14   1  -9    7.80    2.50
 -14   1  -9   10.50    3.20
  14   1   9   12.00    3.00
  14   1   9    9.40    3.10
  14   1   9   12.00    4.70
 -15  -1  -9    1.60    2.70
  15  -1   9    1.30    3.00
  15  -1   9    3.00    2.40
  15  -1   9   -0.10    4.90
  15  -1   9   -1.40    4.10
  15   1   9    1.80    3.00
 -15   1  -9    0.20    2.10
  15   1   9    5.40    3.00
  15   1   9   -4.30    6.60
 -15   1  -9    6.40    3.90
  15  -2  -9   -1.30    2.50
 -15  -2   9    3.10    2.30
  15  -2  -9    8.60    3.60
  15  -2  -9    0.10    2.50
 -15   2   9   -4.90    5.80
  15   2  -9    6.40    3.00
  15   2  -9    2.30    2.90
  14  -2  -9    2.10    3.60
  14  -2  -9    1.90    2.30
  14  -2  -9    4.40    2.90
 -14  -2   9    3.50    2.40
  14   2  -9    1.30    2.60
 -14   2   9    8.70    4.30
  14   2  -9    1.20    2.60
 -13  -2   9    7.50    2.40
  13  -2  -9    5.40    2.40
  13  -2  -9    7.90    3.10
  13  -2  -9    7.50    2.30
 -13   2   9   -1.70    3.50
  13   2  -9    4.20    2.80
  13   2  -9    8.00    2.90
  12  -2  -9   25.50    3.60
  12  -2  -9   29.10    3.80
  12  -2  -9   25.00    3.80
 -12  -2   9   22.50    3.10
  12   2  -9   24.90    3.70
 -12   2   9   34.40    5.20
  12   2  -9   25.80    4.10
  11  -2  -9  151.78    7.00
  11  -2  -9  126.29    7.20
 -11  -2   9  153.98    5.70
  11  -2  -9  151.38    7.40
 -11   2   9  149.39    8.70
  11   2  -9  159.38    8.10
  11   2  -9  158.88    7.50
 -10  -2   9  207.78    7.30
  10  -2  -9  214.08    9.10
  10  -2  -9  192.18    8.80
  10  -2  -9  200.38    8.20
  10   2  -9  204.28    9.40
  10   2  -9  203.18    8.90
 -10   2   9  217.28   10.30
   9  -2  -9  158.18    7.50
   9  -2  -9  171.88    7.90
  -9  -2   9  166.98    6.40
   9  -2  -9  163.18    6.90
   9   2  -9  170.18    7.80
   9   2  -9  174.08    8.00
  -9   2   9  176.38    8.80
   8  -2  -9   23.40    3.10
   8  -2  -9   22.60    2.50
  -8  -2   9   22.70    2.40
   8  -2  -9   20.70    2.80
   8   2  -9   20.90    3.20
   8   2  -9   23.50    2.90
  -8   2   9   18.20    2.90
   7  -2  -9   25.00    3.30
   7  -2  -9   27.00    2.40
  -7  -2   9   20.70    2.40
   7  -2  -9   25.80    2.70
  -7   2   9   27.10    3.50
   7   2  -9   21.90    2.90
   7   2  -9   21.50    2.90
   6  -2  -9    2.20    1.40
   6  -2  -9    0.20    1.10
  -6  -2   9    0.80    1.10
   6  -2  -9    0.80    1.10
  -6   2   9    0.20    1.00
  -6   2   9    1.00    1.60
   6   2  -9   -0.10    1.40
   6   2  -9    0.00    1.60
  -5  -2   9  144.29    5.90
   5  -2  -9  140.49    6.50
   5  -2  -9  138.19    6.10
   5  -2  -9  145.39    5.30
  -5  -2   9  148.99    5.90
  -5   2   9  148.89    5.10
  -5   2   9  146.59    7.00
   5   2  -9  142.69    6.30
   5   2  -9  137.09    6.30
   4  -2  -9   68.89    2.90
  -4  -2   9   61.99    3.60
   4  -2  -9   62.99    3.70
  -4  -2   9   67.69    3.40
   4  -2  -9   63.39    4.10
   4   2  -9   66.39    4.00
   4   2  -9   68.79    4.00
  -4   2   9   64.69    4.30
  -4   2   9   68.39    3.10
   3  -2  -9  575.34   16.10
  -3  -2   9  535.25   17.40
   3  -2  -9  537.05   17.40
  -3  -2   9  553.54   16.70
   3  -2  -9  528.25   17.90
  -3   2   9  535.05   18.40
   3   2  -9  533.75   17.60
  -3   2   9  532.45   18.20
   3   2  -9  538.75   17.00
   3   2  -9  532.35   17.60
  -3   2   9  560.54   16.60
   2  -2  -9  207.48    8.40
   2  -2  -9  229.08    6.60
   2  -2  -9  209.08    8.00
  -2  -2   9  215.28    8.10
  -2  -2   9  211.88    7.30
   2   2  -9  221.68    7.50
  -2   2   9  212.98    8.80
  -2   2   9  212.98    8.70
   2   2  -9  222.18    8.30
  -2   2   9  223.58    7.60
  -1  -2   9  222.58    8.40
   1  -2  -9  216.08    8.50
  -1  -2   9  219.78    7.50
  -1  -2   9  226.88    7.40
   1  -2  -9  221.58    8.10
   1   2  -9  223.88    8.30
  -1   2   9  220.38    7.80
  -1   2   9  222.58    8.80
   1   2  -9  221.18    7.50
   1   2  -9  236.68    7.40
  -1   2   9  226.68    8.90
   0  -2   9    0.70    1.10
   0  -2   9    1.80    1.00
   0  -2  -9    1.60    1.10
   0  -2   9    1.70    0.80
   0  -2  -9    0.20    1.20
   0  -2  -9    1.60    1.30
   0   2   9    2.00    1.20
   0   2  -9    1.40    1.10
   0   2   9    2.00    1.20
   0   2   9    1.70    1.30
   0   2  -9    1.70    0.90
   0   2  -9    1.80    0.60
  -1  -2  -9  172.98    6.70
  -1  -2  -9  171.58    7.00
   1  -2   9  171.08    7.10
  -1  -2  -9  169.88    6.80
   1  -2   9  176.98    6.40
   1  -2   9  180.48    5.70
  -1   2  -9  174.98    5.70
   1   2   9  177.28    6.80
  -1   2  -9  160.88    6.70
   1   2   9  176.28    7.20
   1   2   9  172.58    7.30
  -1   2  -9  179.28    6.10
  -2  -2  -9   35.10    2.70
   2  -2   9   33.20    2.70
   2  -2   9   35.70    3.20
  -2  -2  -9   33.20    2.80
   2  -2   9   32.60    2.50
   2  -2   9   33.60    1.70
  -2  -2  -9   31.60    2.50
   2   2   9   32.80    1.80
   2   2   9   31.00    3.00
  -2   2  -9   33.70    1.60
   2   2   9   35.80    3.30
  -2   2  -9   34.30    2.20
   2   2   9   30.10    2.70
  -2   2  -9   35.10    2.60
   3  -2   9  198.08    8.20
   3  -2   9  204.08    7.90
  -3  -2  -9  206.38    7.90
  -3  -2  -9  202.18    7.70
  -3  -2  -9  217.78    7.80
   3  -2   9  212.08    6.30
   3  -2   9  214.18    7.80
  -3   2  -9  206.88    7.70
   3   2   9  201.08    7.90
   3   2   9  205.68    6.80
  -3   2  -9  204.78    6.40
   3   2   9  202.88    8.20
   3   2   9  201.78    8.20
   4  -2   9   76.79    2.80
   4  -2   9   73.39    4.20
   4  -2   9   70.19    4.10
  -4  -2  -9   81.49    4.30
   4  -2   9   72.59    4.50
  -4  -2  -9   86.29    4.20
   4   2   9   79.29    4.60
   4   2   9   79.19    4.40
   4   2   9   81.99    3.30
  -4   2  -9   71.19    4.00
   4   2   9   74.49    4.40
  -4   2  -9   78.09    3.70
  -4   2  -9   73.49    2.90
  -5  -2  -9   19.10    2.40
   5  -2   9   22.00    2.90
   5  -2   9   19.20    1.60
   5  -2   9   18.20    2.40
   5  -2   9   19.40    2.80
  -5  -2  -9   20.60    2.50
   5   2   9   21.80    2.70
  -5   2  -9   18.80    2.10
   5   2   9   17.80    2.00
  -5   2  -9   18.90    1.50
   5   2   9   18.70    2.80
   5   2   9   21.40    2.70
   6  -2   9   19.30    2.60
  -6  -2  -9   21.90    2.60
   6  -2   9   24.30    1.80
   6  -2   9   18.70    2.70
   6  -2   9   18.90    2.60
  -6  -2  -9   20.20    2.50
   6   2   9   27.60    2.40
   6   2   9   19.40    2.90
  -6   2  -9   23.10    2.40
   6   2   9   26.20    3.30
  -6   2  -9   22.20    1.90
   6   2   9   21.90    2.90
  -7  -2  -9    0.00    1.50
   7  -2   9   -0.20    1.50
   7  -2   9    0.30    1.70
   7  -2   9    3.10    1.80
   7  -2   9   -1.90    1.20
  -7  -2  -9   -0.50    1.30
   7   2   9    1.30    1.70
   7   2   9    0.70    1.60
  -7   2  -9    0.20    1.10
   7   2   9   -0.30    1.60
   7   2   9    1.40    1.80
   8  -2   9   -0.40    1.40
   8  -2   9   -3.20    1.50
   8  -2   9   -1.50    1.90
   8  -2   9    0.90    1.80
  -8  -2  -9    2.00    1.50
  -8  -2  -9    0.70    1.40
  -8   2  -9    1.20    1.30
   8   2   9    2.90    1.30
   8   2   9    2.00    1.70
   8   2   9    2.60    2.00
   8   2   9    0.20    1.80
  -8   2  -9    0.00    1.40
   8   2   9   -1.70    1.90
  -9  -2  -9   48.90    3.80
   9  -2   9   51.39    4.10
   9  -2   9   51.69    3.10
   9  -2   9   54.99    4.80
   9  -2   9   54.69    5.40
  -9  -2  -9   51.69    3.90
  -9   2  -9   49.10    3.50
   9   2   9   50.09    4.20
   9   2   9   53.39    3.10
   9   2   9   53.49    4.80
   9   2   9   49.40    3.80
   9   2   9   54.09    4.60
  -9   2  -9   54.09    4.00
  10  -2   9   -0.40    2.40
  10  -2   9   -1.40    2.90
  10  -2   9    1.30    1.70
 -10  -2  -9    3.50    1.70
  10  -2   9    1.70    1.70
  10  -2   9    0.00    1.80
 -10  -2  -9    2.10    1.90
 -10   2  -9   -0.10    1.60
 -10   2  -9    3.40    1.70
  10   2   9    0.90    1.20
  10   2   9    4.10    2.30
  10   2   9    3.20    2.50
  10   2   9    3.30    2.40
  10   2   9    1.70    2.20
 -11  -2  -9    4.10    1.90
  11  -2   9    1.80    2.10
  11  -2   9    2.10    3.70
  11  -2   9   -0.40    2.00
 -11  -2  -9    0.20    2.10
  11  -2   9    4.70    3.10
  11  -2   9    4.10    2.20
  11   2   9    1.20    2.60
  11   2   9    5.80    2.70
  11   2   9    3.50    2.30
 -11   2  -9    0.40    1.70
  11   2   9   -0.20    3.00
 -11   2  -9    4.30    2.20
  12  -2   9    1.70    2.00
  12  -2   9   -2.40    2.10
 -12  -2  -9   -2.00    2.30
  12  -2   9    0.30    3.00
  12  -2   9    5.70    4.20
 -12  -2  -9    0.40    2.10
  12  -2   9    5.50    2.20
  12   2   9    0.20    3.60
  12   2   9   -1.50    2.40
 -12   2  -9   -2.70    2.40
 -12   2  -9   -0.20    1.90
  12   2   9    2.70    2.80
  12   2   9   -0.60    2.20
 -13  -2  -9    4.90    2.40
  13  -2   9   -0.70    2.30
  13  -2   9    5.70    5.50
  13  -2   9    4.30    2.30
  13  -2   9    7.10    3.60
  13  -2   9    2.30    2.40
 -13  -2  -9    1.70    2.40
 -13   2  -9   -0.50    2.80
  13   2   9    6.60    4.30
 -13   2  -9    3.10    2.00
  13   2   9    5.40    2.40
  13   2   9    2.10    2.90
  14  -2   9    4.10    3.00
  14  -2   9    8.60    2.60
  14  -2   9   11.20    6.00
  14  -2   9    2.30    3.60
  14  -2   9    5.00    2.60
 -14  -2  -9    4.10    2.40
 -14  -2  -9    3.50    2.50
 -14   2  -9    4.40    2.30
  14   2   9    1.70    2.40
 -14   2  -9    4.70    3.50
  14   2   9   -1.90    2.80
  14   2   9    7.70    5.30
  14  -3  -9   -4.40    4.10
  14  -3  -9    3.30    2.60
  14  -3  -9   -0.70    2.40
 -14  -3   9    3.00    2.80
  14   3  -9   -4.20    2.90
  14   3  -9    3.50    3.30
 -14   3   9   -7.00    4.90
  13  -3  -9    6.30    3.90
 -13  -3   9    9.70    2.50
  13  -3  -9    8.10    3.10
  13  -3  -9    3.00    2.50
  13   3  -9    7.00    3.50
  13   3  -9    4.80    3.00
 -13   3   9   12.00    5.10
  12  -3  -9    8.60    2.60
  12  -3  -9    9.40    2.60
  12  -3  -9    8.80    3.60
 -12  -3   9    9.30    2.40
 -12   3   9    8.30    3.90
  12   3  -9    9.90    3.50
  12   3  -9   13.20    3.10
  11  -3  -9   40.60    4.10
 -11  -3   9   44.80    3.60
 -11  -3   9   46.60    3.60
  11  -3  -9   43.90    6.20
  11  -3  -9   46.50    3.90
  11   3  -9   45.90    5.00
  11   3  -9   53.29    4.90
 -11   3   9   42.90    6.90
  10  -3  -9    2.80    2.80
 -10  -3   9    0.70    1.70
  10  -3  -9   -0.20    1.80
 -10  -3   9    1.80    1.50
  10  -3  -9    1.30    2.10
  10   3  -9    1.20    2.30
  10   3  -9    2.20    2.50
 -10   3   9    7.10    3.40
   9  -3  -9   36.50    4.70
   9  -3  -9   33.90    3.20
  -9  -3   9   34.40    2.80
  -9  -3   9   39.60    3.50
   9  -3  -9   33.30    3.60
   9   3  -9   43.80    4.30
   9   3  -9   33.40    4.30
  -9   3   9   36.40    5.00
   8  -3  -9  442.56   16.30
   8  -3  -9  420.96   15.60
   8  -3  -9  432.16   14.50
  -8  -3   9  450.75   13.90
  -8  -3   9  432.86   14.60
   8   3  -9  443.16   16.20
  -8   3   9  452.85   17.10
   8   3  -9  441.36   16.40
   7  -3  -9   26.80    2.60
   7  -3  -9   26.80    3.10
  -7  -3   9   27.20    3.20
   7  -3  -9   31.80    3.90
  -7  -3   9   34.90    2.50
  -7  -3   9   27.50    2.80
   7   3  -9   26.00    3.60
   7   3  -9   32.40    3.60
   7   3  -9   33.60    3.60
  -7   3   9   29.50    4.80
  -6  -3   9   43.50    2.40
  -6  -3   9   38.40    3.50
   6  -3  -9   47.40    4.40
   6  -3  -9   46.50    2.80
   6  -3  -9   42.60    3.70
  -6  -3   9   39.90    2.60
  -6   3   9   41.70    2.70
  -6   3   9   40.50    4.90
   6   3  -9   34.70    3.70
   6   3  -9   34.20    4.00
   6   3  -9   47.30    3.60
  -5  -3   9    4.70    1.00
  -5  -3   9    5.50    1.90
   5  -3  -9    5.90    2.00
   5  -3  -9    2.40    1.80
   5  -3  -9    5.90    1.50
   5   3  -9    2.30    1.90
  -5   3   9    6.40    2.30
  -5   3   9    5.90    1.60
   5   3  -9    6.20    1.70
   5   3  -9    5.30    2.10
   4  -3  -9  163.08    7.10
   4  -3  -9  167.08    7.80
  -4  -3   9  163.28    7.10
   4  -3  -9  168.38    5.80
   4   3  -9  164.48    6.90
  -4   3   9  156.78    8.10
   4   3  -9  152.58    7.30
   4   3  -9  151.48    7.30
  -4   3   9  165.38    8.10
  -4   3   9  164.08    6.20
   3  -3  -9    1.90    1.50
  -3  -3   9    1.60    1.30
   3  -3  -9    1.00    1.00
   3  -3  -9    1.60    1.30
  -3  -3   9    0.50    1.60
  -3   3   9   -0.20    1.30
  -3   3   9    0.10    1.60
   3   3  -9    1.10    1.10
  -3   3   9    3.30    1.90
   3   3  -9    1.50    1.60
  -2  -3   9   47.60    3.90
   2  -3  -9   41.80    3.90
   2  -3  -9   39.10    3.20
  -2  -3   9   47.10    3.00
   2  -3  -9   46.30    2.30
   2   3  -9   42.70    3.00
  -2   3   9   47.10    4.10
   2   3  -9   41.80    3.50
  -2   3   9   51.89    4.00
  -2   3   9   42.40    3.30
  -1  -3   9   21.10    2.30
  -1  -3   9   23.20    3.30
   1  -3  -9   30.40    3.40
  -1  -3   9   24.00    1.50
   1  -3  -9   24.60    1.70
   1  -3  -9   22.10    2.70
  -1   3   9   20.20    3.00
   1   3  -9   24.00    2.70
  -1   3   9   27.20    2.70
   1   3  -9   23.50    2.20
  -1   3   9   19.90    3.10
   0  -3  -9   33.70    3.40
   0  -3  -9   28.00    2.90
   0  -3   9   31.40    3.40
   0  -3   9   27.00    1.90
   0  -3   9   26.60    2.40
   0  -3  -9   28.40    1.80
   0   3  -9   28.50    1.90
   0   3  -9   31.30    2.50
   0   3  -9   23.90    2.90
   0   3   9   32.20    2.90
   0   3   9   25.50    3.10
   0   3   9   33.90    3.80
   1  -3   9  310.37   11.70
  -1  -3  -9  310.17   11.50
  -1  -3  -9  297.57   11.30
   1  -3   9  322.57   10.20
   1  -3   9  314.27   10.10
  -1  -3  -9  309.87   11.10
  -1   3  -9  314.07   10.40
  -1   3  -9  314.67    9.90
   1   3   9  311.67   12.10
   1   3   9  309.57   11.30
  -1   3  -9  301.27   11.30
   1   3   9  308.17   11.50
   2  -3   9   75.39    3.70
   2  -3   9   74.19    5.00
   2  -3   9   70.89    3.40
  -2  -3  -9   67.19    4.20
  -2  -3  -9   68.49    4.00
  -2  -3  -9   78.19    4.60
   2  -3   9   67.19    4.20
  -2   3  -9   68.39    3.20
  -2   3  -9   72.29    4.20
   2   3   9   69.79    4.40
   2   3   9   71.19    4.50
   2   3   9   78.79    5.20
  -2   3  -9   69.99    3.50
  -3  -3  -9  147.89    6.70
   3  -3   9  154.28    6.30
   3  -3   9  152.48    6.90
  -3  -3  -9  139.39    6.60
   3  -3   9  159.48    7.50
   3  -3   9  158.88    5.60
  -3  -3  -9  142.79    6.50
   3   3   9  148.29    6.80
   3   3   9  153.58    5.70
  -3   3  -9  162.18    5.80
  -3   3  -9  152.88    5.80
   3   3   9  152.38    7.00
  -3   3  -9  150.68    6.60
   3   3   9  155.78    7.60
  -4  -3  -9   36.40    3.40
   4  -3   9   36.60    2.50
  -4  -3  -9   30.40    2.90
   4  -3   9   34.80    3.20
   4  -3   9   30.10    3.30
  -4  -3  -9   30.20    3.10
   4  -3   9   34.60    3.80
  -4   3  -9   35.00    2.50
  -4   3  -9   32.70    2.90
   4   3   9   32.70    2.70
   4   3   9   28.80    3.30
   4   3   9   31.50    3.50
  -4   3  -9   33.50    2.60
   4   3   9   29.60    3.80
  -5  -3  -9   95.59    5.30
  -5  -3  -9  101.99    5.10
   5  -3   9   98.79    4.10
   5  -3   9  101.99    5.40
   5  -3   9   90.59    5.30
  -5  -3  -9   98.79    5.20
   5  -3   9   80.39    6.00
   5   3   9  108.49    6.10
  -5   3  -9   98.19    4.40
  -5   3  -9   98.89    4.60
   5   3   9   99.29    5.80
  -5   3  -9   97.39    5.00
   5   3   9  102.39    5.60
   5   3   9  101.99    4.60
   6  -3   9   14.60    1.90
   6  -3   9   13.70    2.50
  -6  -3  -9   13.50    2.50
  -6  -3  -9   10.90    2.50
   6  -3   9   13.90    2.70
   6  -3   9    9.90    2.40
   6   3   9   13.00    2.40
   6   3   9   15.40    2.30
  -6   3  -9   12.50    1.80
   6   3   9    9.70    2.30
  -6   3  -9   15.00    2.30
   6   3   9    7.70    2.60
  -7  -3  -9   24.20    3.00
  -7  -3  -9   23.80    3.40
   7  -3   9   21.60    2.50
   7  -3   9   21.40    3.10
   7  -3   9   23.20    3.30
   7  -3   9   22.50    3.30
   7   3   9   24.20    3.50
   7   3   9   24.60    3.00
  -7   3  -9   21.30    2.60
   7   3   9   25.10    3.70
  -7   3  -9   21.90    2.70
   7   3   9   17.10    3.00
  -8  -3  -9    8.40    2.20
  -8  -3  -9   10.70    2.60
   8  -3   9    7.10    2.60
   8  -3   9    8.20    2.70
   8  -3   9    8.90    2.90
   8  -3   9    7.40    1.80
   8   3   9   10.10    2.40
   8   3   9    2.10    2.60
  -8   3  -9   11.50    2.20
   8   3   9    4.70    2.20
  -8   3  -9   10.80    2.00
   8   3   9    5.70    2.70
  -9  -3  -9    2.70    2.10
   9  -3   9    6.00    2.00
  -9  -3  -9    4.40    2.20
   9  -3   9    5.90    3.10
   9  -3   9    5.80    2.30
   9  -3   9    8.80    3.20
   9   3   9    7.60    2.80
  -9   3  -9    7.80    2.20
   9   3   9    6.80    2.60
   9   3   9    6.40    2.70
  -9   3  -9    5.70    1.70
   9   3   9    7.50    2.60
  10  -3   9   52.39    4.50
  10  -3   9   54.79    3.90
 -10  -3  -9   55.39    4.40
  10  -3   9   49.00    6.10
 -10  -3  -9   53.49    4.50
  10  -3   9   59.99    7.00
  10   3   9   60.49    6.10
  10   3   9   46.40    4.60
 -10   3  -9   47.90    4.10
  10   3   9   63.79    3.80
 -10   3  -9   58.39    4.60
  10   3   9   59.19    4.60
  10   3   9   55.89    6.10
  11  -3   9    7.70    4.60
 -11  -3  -9    5.00    2.30
 -11  -3  -9   10.40    2.80
  11  -3   9    9.90    3.90
  11  -3   9   13.40    2.60
  11  -3   9    8.60    2.50
  11  -3   9    4.70    2.30
 -11   3  -9    4.80    2.20
  11   3   9    7.00    3.80
  11   3   9   10.00    3.00
  11   3   9    6.20    3.60
  11   3   9    5.60    2.40
 -11   3  -9   13.20    3.20
  12  -3   9   18.60    4.40
 -12  -3  -9   15.00    2.90
  12  -3   9   32.10    4.00
 -12  -3  -9   17.20    3.30
  12  -3   9   16.80    3.00
  12  -3   9   20.30    5.80
  12  -3   9   23.60    3.10
 -12   3  -9   29.90    4.10
 -12   3  -9   19.20    3.40
  12   3   9   21.00    3.90
  12   3   9   25.50    4.80
  12   3   9   15.90    3.00
  12   3   9   20.60    4.40
  13  -3   9    3.60    2.80
 -13  -3  -9   -1.70    2.60
  13  -3   9    7.00    4.50
  13  -3   9  -10.70    5.60
  13  -3   9   -1.80    1.90
 -13  -3  -9   -1.90    2.30
  13  -3   9   -6.30    2.60
  13   3   9   -9.10    4.30
  13   3   9    2.10    2.60
  13   3   9    1.80    4.20
 -13   3  -9   -7.00    3.80
  13   3   9    3.20    2.80
 -13   3  -9    2.90    2.20
  12  -4  -9   13.50    4.80
 -12  -4   9   16.30    5.10
  12  -4  -9   15.70    3.50
  12  -4  -9   15.00    3.00
  12   4  -9   16.40    3.80
  12   4  -9   11.10    3.50
 -12   4   9   14.70    8.30
  11  -4  -9    1.10    2.40
  11  -4  -9    3.10    4.30
 -11  -4   9    0.20    2.70
 -11  -4   9    6.60    5.50
  11  -4  -9    1.30    2.30
  11   4  -9    0.90    2.90
  11   4  -9    0.00    2.80
 -11   4   9   -4.50    5.10
  10  -4  -9   56.89    7.40
  10  -4  -9   66.69    4.50
 -10  -4   9   66.79    4.80
 -10  -4   9   60.19    5.10
  10  -4  -9   52.39    5.00
 -10   4   9   66.39    9.00
  10   4  -9   58.79    5.70
  10   4  -9   55.29    5.50
   9  -4  -9  155.38    8.20
  -9  -4   9  176.88    8.10
   9  -4  -9  173.68   10.00
   9  -4  -9  179.08    7.50
   9   4  -9  188.58    9.40
   9   4  -9  165.08    8.90
   9   4  -9  172.48    9.40
  -9   4   9  179.38   10.80
   8  -4  -9    1.60    3.00
  -8  -4   9    4.70    2.40
  -8  -4   9    2.10    2.40
   8  -4  -9    0.90    1.90
   8  -4  -9   -0.20    1.90
   8   4  -9    1.10    2.30
  -8   4   9    0.10    3.30
   8   4  -9    1.00    2.40
   8   4  -9    2.20    2.50
   7  -4  -9   46.10    4.30
   7  -4  -9   41.00    3.30
   7  -4  -9   41.40    5.30
  -7  -4   9   41.90    4.10
  -7  -4   9   46.00    4.80
  -7   4   9   65.19    6.90
   7   4  -9   48.50    4.70
   7   4  -9   52.09    4.90
   7   4  -9   53.19    5.20
  -6  -4   9    3.90    2.00
   6  -4  -9    3.20    2.20
  -6  -4   9    1.60    2.20
   6  -4  -9   -2.90    2.70
   6  -4  -9    3.50    1.70
  -6   4   9    4.40    3.00
  -6   4   9    0.20    3.10
   6   4  -9    3.30    2.50
   6   4  -9    0.90    2.20
   6   4  -9    1.00    2.20
  -6   4   9    2.20    1.90
   5  -4  -9  166.68    6.40
   5  -4  -9  170.88    9.10
   5  -4  -9  154.68    7.90
  -5  -4   9  170.78    8.00
  -5  -4   9  167.48    7.50
  -5   4   9  169.38    9.00
   5   4  -9  168.58    7.90
  -5   4   9  173.18    9.50
   5   4  -9  152.28    8.20
  -5   4   9  175.58    6.70
  -4  -4   9   56.29    5.00
  -4  -4   9   56.59    3.90
   4  -4  -9   50.19    5.40
   4  -4  -9   50.69    4.30
   4  -4  -9   48.40    3.10
  -4   4   9   50.89    5.50
   4   4  -9   47.90    4.60
  -4   4   9   57.09    5.50
  -4   4   9   55.79    3.80
   4   4  -9   53.29    4.30
   3  -4  -9   21.40    2.30
  -3  -4   9   19.30    2.90
   3  -4  -9   14.30    2.90
   3  -4  -9   19.40    3.30
  -3  -4   9   25.40    3.50
  -3   4   9   18.80    3.20
  -3   4   9   14.50    3.10
  -3   4   9   22.40    3.20
   3   4  -9   26.90    3.60
   3   4  -9   21.60    3.20
  -2  -4   9  427.36   14.80
   2  -4  -9  433.66   15.90
  -2  -4   9  437.56   16.00
   2  -4  -9  451.55   13.90
   2  -4  -9  446.36   16.40
   2   4  -9  434.26   15.10
  -2   4   9  445.66   16.10
  -2   4   9  436.06   14.90
  -2   4   9  443.46   17.10
   2   4  -9  434.96   15.90
   1  -4  -9    1.70    2.20
   1  -4  -9    0.00    1.40
  -1  -4   9   -0.20    2.20
   1  -4  -9    5.80    2.40
  -1  -4   9    2.30    1.80
  -1   4   9    0.60    1.80
   1   4  -9    2.10    1.90
  -1   4   9    5.90    2.70
   1   4  -9    0.90    1.60
  -1   4   9    2.80    2.20
   0  -4  -9  325.47   12.70
   0  -4  -9  296.37   12.00
   0  -4   9  306.97   10.90
   0  -4   9  317.47   12.70
   0  -4  -9  319.57   10.20
   0   4  -9  303.37   11.10
   0   4  -9  293.77   11.90
   0   4   9  314.17   13.10
   0   4   9  299.57   11.50
   0   4   9  310.97   12.00
  -1  -4  -9    9.10    2.40
  -1  -4  -9   11.10    2.60
  -1  -4  -9   13.50    2.00
   1  -4   9   11.80    2.90
   1  -4   9   10.00    2.30
  -1   4  -9    7.50    1.80
  -1   4  -9   11.40    2.60
   1   4   9    9.30    2.80
   1   4   9    9.50    2.40
   1   4   9    9.90    2.60
  -1   4  -9   13.30    1.30
   2  -4   9   -1.50    1.70
   2  -4   9    2.60    2.20
   2  -4   9    0.90    2.10
  -2  -4  -9    2.80    2.00
   2  -4   9    0.20    1.40
  -2  -4  -9    1.40    2.00
   2   4   9    1.50    2.50
   2   4   9   -0.60    2.10
  -2   4  -9    0.30    1.40
   2   4   9    0.10    2.20
  -2   4  -9    3.40    1.30
  -2   4  -9    1.70    1.80
  -3  -4  -9    0.30    1.80
   3  -4   9   -0.40    2.40
   3  -4   9    0.90    1.50
  -3  -4  -9   -0.50    2.40
  -3  -4  -9    1.60    1.60
   3  -4   9    0.70    1.80
   3  -4   9   -1.10    2.10
  -3   4  -9   -0.60    1.60
   3   4   9   -4.60    2.50
  -3   4  -9   -2.80    1.30
  -3   4  -9   -0.40    1.40
   3   4   9    3.10    2.20
   3   4   9   -1.30    2.00
  -4  -4  -9    8.90    2.40
  -4  -4  -9    9.80    2.30
   4  -4   9   10.40    2.00
   4  -4   9   11.40    2.70
   4  -4   9   13.10    2.90
  -4  -4  -9   14.40    2.80
   4  -4   9   11.90    2.30
  -4   4  -9   10.80    2.40
  -4   4  -9   15.30    1.90
   4   4   9    9.00    3.00
   4   4   9   14.00    2.70
  -4   4  -9   15.20    2.20
   4   4   9   12.00    2.50
   5  -4   9   14.70    2.70
  -5  -4  -9   16.10    2.60
  -5  -4  -9   16.90    3.30
   5  -4   9   15.90    2.40
   5  -4   9   11.50    2.60
   5  -4   9   17.40    3.70
  -5  -4  -9   12.50    2.50
  -5   4  -9   11.50    1.90
   5   4   9    9.30    2.60
  -5   4  -9   12.50    2.60
   5   4   9   14.40    3.00
  -5   4  -9   17.60    2.40
   5   4   9   16.50    3.00
   5   4   9   15.80    2.60
  -6  -4  -9    8.00    2.40
   6  -4   9    6.60    2.50
   6  -4   9    6.20    3.30
  -6  -4  -9   10.10    2.40
  -6  -4  -9   11.10    2.60
   6  -4   9   10.70    2.10
   6  -4   9    8.40    2.70
  -6   4  -9    8.50    1.80
  -6   4  -9   11.00    2.40
   6   4   9   11.30    2.90
   6   4   9   10.50    2.50
  -6   4  -9   10.10    2.40
   6   4   9    8.40    2.60
   6   4   9   11.20    3.50
  -7  -4  -9    6.00    2.20
   7  -4   9    4.20    2.30
   7  -4   9   10.20    3.40
   7  -4   9    7.50    2.20
   7  -4   9    8.10    3.10
  -7  -4  -9    6.20    2.40
  -7   4  -9    4.80    1.80
   7   4   9    2.00    2.50
   7   4   9    5.00    2.30
   7   4   9   13.50    3.80
   7   4   9    6.70    2.70
  -7   4  -9    8.80    2.30
   8  -4   9   -2.60    3.50
  -8  -4  -9    6.50    2.30
  -8  -4  -9    6.80    2.40
   8  -4   9    5.80    2.50
   8  -4   9    9.50    2.60
   8  -4   9   10.10    3.80
   8   4   9   15.90    3.00
  -8   4  -9    5.50    2.20
   8   4   9    9.60    3.90
   8   4   9    3.90    2.80
  -8   4  -9    6.20    1.80
   8   4   9   12.20    3.30
   9  -4   9   27.80    3.60
   9  -4   9   21.00    3.70
  -9  -4  -9   23.20    3.60
   9  -4   9   12.80    4.60
  -9  -4  -9   23.30    3.60
   9  -4   9   17.70    4.40
   9   4   9   23.40    4.60
   9   4   9   13.00    3.20
   9   4   9   23.10    3.60
   9   4   9   22.20    3.80
  -9   4  -9   18.30    3.20
  -9   4  -9   17.90    3.00
  10  -4   9   30.40    5.40
  10  -4   9   25.60    3.90
  10  -4   9   28.70    3.80
  10  -4   9   32.70    5.50
 -10  -4  -9   33.10    4.50
 -10  -4  -9   34.90    4.40
  10   4   9   18.70    3.70
 -10   4  -9   38.00    4.80
  10   4   9   41.10    6.40
  10   4   9   28.30    5.40
  10   4   9   32.20    4.00
 -10   4  -9   28.30    3.80
  11  -4   9   14.20    3.10
  11  -4   9   20.00    6.00
  11  -4   9   11.10    5.40
  11  -4   9   15.00    3.20
 -11  -4  -9   21.70    3.80
 -11  -4  -9   18.90    3.80
  11   4   9    7.00    4.30
  11   4   9   19.80    3.70
  11   4   9   20.30    5.10
  11   4   9   20.80    4.40
 -11   4  -9   17.30    3.70
 -11   4  -9   18.70    3.30
   9  -5  -9   -2.10    2.20
   9  -5  -9   -1.10    6.00
  -9  -5   9    6.10    3.00
  -9  -5   9    8.10    3.90
   9  -5  -9    1.10    2.30
   9   5  -9    4.20    2.70
  -9   5   9   -6.80    6.60
   9   5  -9    1.70    4.10
   9   5  -9   -2.00    2.80
   8  -5  -9   -0.30    2.40
  -8  -5   9   10.90    4.10
  -8  -5   9    5.30    2.70
   8  -5  -9    8.50    4.90
   8  -5  -9    6.70    2.90
   8   5  -9   10.10    2.90
  -8   5   9   16.30    5.50
   8   5  -9    6.30    4.30
  -8   5   9   10.70    4.70
  -7  -5   9    5.30    2.50
  -7  -5   9   -0.20    4.00
   7  -5  -9    0.30    2.20
   7  -5  -9   -0.40    2.20
   7  -5  -9    1.40    4.20
  -7   5   9    5.20    4.60
  -7   5   9    5.00    4.60
   7   5  -9    5.00    3.50
   7   5  -9    1.00    2.50
   6  -5  -9   44.00    4.60
   6  -5  -9   45.70    6.20
  -6  -5   9   42.30    4.60
   6  -5  -9   40.70    3.80
  -6  -5   9   46.00    5.40
  -6   5   9   53.19    7.50
   6   5  -9   47.00    5.30
  -6   5   9   35.20    4.20
  -6   5   9   66.29    7.80
   6   5  -9   44.80    5.90
  -5  -5   9   -1.60    3.60
   5  -5  -9   -8.40    3.70
   5  -5  -9   -0.40    2.30
  -5  -5   9    3.90    2.80
   5  -5  -9    2.30    2.00
   5   5  -9    1.00    2.70
  -5   5   9    9.70    3.70
  -5   5   9   -0.90    2.60
  -5   5   9    0.80    3.60
   5   5  -9    2.60    2.80
  -4  -5   9  140.39    8.70
  -4  -5   9  126.09    6.90
   4  -5  -9  133.49    9.30
   4  -5  -9  131.19    5.90
   4  -5  -9  138.59    7.60
  -4   5   9  128.89    9.60
  -4   5   9  137.09    8.40
  -4   5   9  130.39    6.70
   4   5  -9  127.59    7.50
   4   5  -9  120.39    7.40
   3  -5  -9  130.39    5.80
   3  -5  -9  127.29    9.20
  -3  -5   9  117.49    8.30
   3  -5  -9  120.89    7.20
  -3  -5   9  130.09    6.90
  -3   5   9  141.79    8.20
  -3   5   9  124.89    6.60
   3   5  -9  118.59    7.30
  -3   5   9  146.49    9.60
   3   5  -9  133.99    7.30
  -2  -5   9   19.40    4.30
   2  -5  -9   10.60    2.30
   2  -5  -9   12.30    2.90
   2  -5  -9   14.30    4.10
  -2  -5   9   16.70    3.00
  -2   5   9   14.30    4.20
   2   5  -9   13.00    3.10
   2   5  -9   11.90    3.00
  -2   5   9   13.30    3.20
  -2   5   9   12.20    3.10
  -1  -5   9   -2.20    2.10
  -1  -5   9   -1.70    3.20
   1  -5  -9   -2.70    3.40
   1  -5  -9    3.70    1.90
   1  -5  -9   -1.80    2.20
   1   5  -9    0.20    2.30
   1   5  -9    0.60    2.20
  -1   5   9   -8.30    3.60
  -1   5   9   -2.00    2.70
  -1   5   9    2.10    2.60
   0  -5  -9   19.40    2.60
   0  -5   9   17.60    2.90
   0  -5  -9   20.60    4.20
   0  -5  -9   11.70    2.80
   0  -5   9   22.00    4.30
   0   5   9   30.90    4.80
   0   5   9   16.10    4.60
   0   5  -9   18.70    3.10
   0   5   9   11.80    3.00
   0   5  -9   14.20    2.90
   1  -5   9   18.40    4.20
   1  -5   9   16.30    3.10
  -1  -5  -9   16.10    3.60
   1  -5   9   14.40    3.00
  -1  -5  -9   17.50    3.60
  -1  -5  -9   21.50    2.90
   1   5   9   19.50    3.30
   1   5   9   27.10    5.00
  -1   5  -9   20.00    3.00
  -1   5  -9   14.80    3.10
   1   5   9   21.70    3.40
   2  -5   9   29.00    4.50
   2  -5   9   36.40    3.70
  -2  -5  -9   33.10    4.10
   2  -5   9   35.60    5.10
  -2  -5  -9   35.30    3.40
  -2  -5  -9   45.80    6.70
   2   5   9   38.20    5.70
   2   5   9   39.70    4.80
  -2   5  -9   37.00    4.40
  -2   5  -9   35.00    4.20
   2   5   9   43.30    4.90
   3  -5   9    0.80    2.00
  -3  -5  -9   -2.40    3.20
   3  -5   9   -4.60    3.60
  -3  -5  -9    0.50    1.90
   3  -5   9    1.10    2.60
   3   5   9   -3.10    3.50
   3   5   9    3.60    2.80
   3   5   9    1.90    2.50
  -3   5  -9    0.10    2.30
  -3   5  -9    0.60    2.10
   4  -5   9    1.00    4.10
   4  -5   9    3.10    2.40
   4  -5   9    2.80    2.30
  -4  -5  -9   -3.30    3.20
  -4  -5  -9    2.60    2.20
  -4   5  -9   -1.40    1.80
  -4   5  -9    3.70    2.30
   4   5   9    5.30    2.60
   4   5   9    1.70    2.60
   4   5   9    4.30    4.20
  -4   5  -9    1.70    2.30
   5  -5   9    0.20    2.60
   5  -5   9    0.40    2.30
   5  -5   9    4.40    2.80
  -5  -5  -9    7.60    3.90
   5  -5   9    5.10    4.40
  -5  -5  -9    1.80    2.30
  -5   5  -9    0.10    2.20
   5   5   9    4.80    4.00
  -5   5  -9   -2.50    2.60
   5   5   9    2.00    2.80
  -5   5  -9    0.60    1.80
   5   5   9    2.00    2.60
   6  -5   9   -0.50    2.50
  -6  -5  -9    6.10    4.20
   6  -5   9    4.80    3.30
   6  -5   9    5.80    4.90
  -6  -5  -9   -1.30    2.30
   6  -5   9   -2.40    2.50
  -6  -5  -9    0.80    2.60
   6   5   9    2.40    2.80
   6   5   9   -3.10    3.90
   6   5   9    0.80    2.70
  -6   5  -9   -1.20    3.20
  -6   5  -9    3.60    2.60
  -6   5  -9    1.10    2.00
   7  -5   9   16.90    4.10
   7  -5   9   13.40    5.10
   7  -5   9   14.80    3.60
   7  -5   9   12.80    2.80
  -7  -5  -9    9.00    3.90
  -7  -5  -9   14.40    3.10
  -7  -5  -9   10.70    3.00
  -7   5  -9   20.20    3.80
  -7   5  -9    7.60    2.90
  -7   5  -9   16.00    2.60
   7   5   9   15.60    3.70
   7   5   9    3.90    5.00
   7   5   9   15.00    3.80
  -8  -5  -9   43.00    5.10
   8  -5   9   39.20    6.10
   8  -5   9   48.80    5.60
  -8  -5  -9   51.79    5.20
   8  -5   9   40.50    7.80
   8  -5   9   49.70    4.70
   8   5   9   53.99    7.70
  -8   5  -9   50.59    4.20
   8   5   9   41.60    6.30
   8   5   9   57.29    6.00
   8   5   9   38.30    5.00
  -8   5  -9   41.10    6.10
   3  -6  -9   30.70    5.00
  -3  -6   9   36.70    4.60
  -3  -6   9   34.80    6.00
   3   6  -9   24.00    4.40
  -3   6   9   37.80    5.30
   2  -6  -9   12.90    3.10
  -2  -6   9   15.50    5.70
   2  -6  -9   11.30    7.70
   2  -6  -9    9.40    3.30
  -2  -6   9    7.50    2.90
   2   6  -9    4.60    3.70
  -2   6   9   21.30    4.50
  -2   6   9   -4.50    4.60
  -2   6   9    9.50    3.60
   2   6  -9    8.20    3.40
   1  -6  -9   -5.10    2.60
   1  -6  -9   -5.90    5.20
  -1  -6   9    4.50    3.00
  -1  -6   9   -8.00    5.00
   1  -6  -9   -2.80    2.70
  -1   6   9    3.90    3.70
   1   6  -9   -0.30    2.80
   1   6  -9    4.70    3.70
  -1   6   9    1.10    5.80
  -1   6   9    6.60    3.60
   0  -6  -9   63.79    6.10
   0  -6   9   62.79    5.60
   0  -6  -9   70.79    5.00
   0  -6  -9   57.39    7.70
   0  -6   9   59.19    7.90
   0  -6   9   72.09    5.80
   0   6   9   75.79    7.20
   0   6  -9   82.19    6.90
   0   6  -9   71.99    6.30
   0   6   9   70.09    6.10
   1  -6   9    2.10    3.10
  -1  -6  -9    4.20    5.30
   1  -6   9   -0.30    6.40
  -1  -6  -9    4.40    3.10
  -1  -6  -9   10.30    2.90
   1  -6   9    5.00    2.80
  -1   6  -9    8.70    3.30
  -1   6  -9    7.50    3.80
   1   6   9   -3.00    4.20
   1   6   9    2.50    3.30
   1   6   9    3.30    3.70
  -2  -6  -9    7.90    2.90
   2  -6   9    1.50    2.60
   2  -6   9    1.90    5.70
  -2  -6  -9    3.40    3.60
  -2  -6  -9    9.10    5.90
   2  -6   9    0.90    2.80
  -2   6  -9    6.50    3.30
  -2   6  -9    1.60    3.70
   2   6   9    2.90    3.70
   2   6   9    8.40    3.80
 -15   0  10   -0.70    2.10
  15   0 -10    4.40    2.90
  15   0 -10   -1.60    3.50
  15   0 -10   -1.10    2.40
 -15   0  10   -2.40    4.80
 -14   0  10   37.90    5.70
  14   0 -10   35.60    4.00
  14   0 -10   32.70    4.00
  14   0 -10   30.10    3.50
 -13   0  10    1.60    3.00
  13   0 -10   -5.30    2.10
  13   0 -10   -3.20    2.10
  13   0 -10   -2.20    2.00
 -12   0  10   18.70    3.80
  12   0 -10   11.80    2.50
  12   0 -10   11.00    2.20
  12   0 -10   11.50    2.80
  11   0 -10   -0.30    1.80
  11   0 -10   -0.60    1.60
  11   0 -10   -1.50    1.80
 -11   0  10    1.80    2.20
  10   0 -10   47.30    3.10
  10   0 -10   35.30    3.60
 -10   0  10   46.60    4.60
  10   0 -10   45.10    3.50
   9   0 -10    0.20    1.50
  -9   0  10    1.00    1.90
   9   0 -10    0.50    1.80
   9   0 -10    0.80    1.40
   8   0 -10   55.39    3.50
  -8   0  10   57.89    4.30
   8   0 -10   61.79    3.20
   8   0 -10   56.29    3.60
   7   0 -10   -1.40    1.20
  -7   0  10    1.40    1.30
   7   0 -10    1.20    1.20
   7   0 -10    2.40    1.30
   6   0 -10  173.48    6.80
   6   0 -10  182.48    6.80
  -6   0  10  174.78    7.40
   6   0 -10  182.18    6.50
   5   0 -10    0.50    1.10
   5   0 -10    0.20    1.00
  -5   0  10    1.40    1.10
   5   0 -10   -2.20    0.80
  -4   0  10   95.99    4.70
   4   0 -10  103.89    4.20
  -4   0  10   96.69    5.10
   4   0 -10  101.79    4.10
   3   0 -10    0.00    0.90
  -3   0  10    0.50    0.80
   3   0 -10    0.10    0.80
  -3   0  10   -1.20    1.10
   3   0 -10    0.90    0.90
   2   0 -10   35.50    2.00
   2   0 -10   34.60    2.00
  -2   0  10   32.30    2.30
  -2   0  10   36.20    2.80
   2   0 -10   33.20    2.20
   1   0 -10    1.00    0.60
  -1   0  10    1.50    0.70
   1   0 -10    0.90    1.00
   0   0  10 1002.30   29.80
   0   0 -10  979.20   30.40
   0   0  10  994.40   30.80
   0   0 -10 1078.79   29.60
  -1   0 -10   -0.20    0.60
   1   0  10    0.40    0.50
   1   0  10   -1.10    1.00
   1   0  10    0.80    0.80
   1   0  10    1.30    0.80
  -1   0 -10   -1.50    0.90
   2   0  10  314.57   10.00
  -2   0 -10  330.57   11.00
  -2   0 -10  341.77    9.90
   2   0  10  316.77   11.30
   2   0  10  338.67   10.30
   2   0  10  310.67   10.80
  -3   0 -10   -0.40    0.70
   3   0  10    0.30    1.10
   3   0  10   -0.10    0.60
   3   0  10    1.00    0.90
   3   0  10    1.20    1.00
  -3   0 -10    2.90    1.10
   4   0  10   80.59    4.00
   4   0  10   91.19    3.80
   4   0  10   85.69    4.60
  -4   0 -10   81.89    3.20
   4   0  10   79.59    3.20
  -4   0 -10   81.19    4.00
  -5   0 -10    0.50    0.90
   5   0  10    0.80    0.70
   5   0  10    0.30    1.20
  -5   0 -10    0.70    1.10
   5   0  10    1.90    1.10
   5   0  10    1.30    1.20
   5   0  10    0.60    0.90
   6   0  10  160.48    7.20
   6   0  10  155.98    6.60
  -6   0 -10  163.18    5.70
   6   0  10  163.28    6.50
  -6   0 -10  158.18    6.70
   6   0  10  161.08    6.30
  -7   0 -10    0.00    1.40
   7   0  10    0.30    1.40
   7   0  10    1.30    1.40
   7   0  10    0.10    1.70
   7   0  10    0.90    1.20
  -8   0 -10   -0.30    1.20
   8   0  10    0.60    1.50
   8   0  10   -1.00    1.40
   8   0  10    0.70    1.30
   8   0  10    3.60    2.00
   9   0  10   -1.00    1.50
   9   0  10   -1.60    2.20
   9   0  10   -0.10    1.70
  -9   0 -10    0.70    1.50
   9   0  10    1.40    1.70
  10   0  10   -1.30    2.40
  10   0  10    0.60    1.60
 -10   0 -10   -0.10    1.70
  10   0  10    1.40    1.60
  10   0  10   -1.30    1.50
  11   0  10    1.50    1.80
 -11   0 -10   -0.70    1.60
  11   0  10    1.10    1.70
  11   0  10    0.50    2.00
  11   0  10   -1.10    3.00
  12   0  10   17.40    3.10
  12   0  10   16.60    3.80
  12   0  10   15.10    2.90
  12   0  10   17.80    2.70
 -12   0 -10   13.00    2.80
 -13   0 -10    3.80    1.90
  13   0  10    6.40    2.70
  13   0  10    3.70    2.70
  13   0  10    4.80    4.30
  13   0  10    0.60    2.00
 -14   0 -10  259.97   12.00
  14   0  10  273.97   11.90
  14   0  10  279.97   10.40
  14   0  10  297.47   15.20
  14   0  10  268.27   11.50
 -15   0 -10    2.60    2.70
  15   0  10   -0.10    2.90
  15   0  10    2.60    2.70
  15   0  10    1.40    4.40
 -15  -1  10   -3.00    4.50
  15  -1 -10    2.90    2.50
  15  -1 -10    2.50    2.40
 -15   1  10   15.90    5.10
  15   1 -10    4.10    2.30
  15   1 -10   -5.00    2.60
  15   1 -10   -2.20    2.30
  14  -1 -10   14.70    3.10
 -14  -1  10    2.90    3.80
  14  -1 -10   11.20    3.10
  14   1 -10   10.90    3.30
  14   1 -10   10.70    2.60
 -14   1  10    8.30    4.50
  14   1 -10   15.80    2.70
  13  -1 -10    1.10    2.10
 -13  -1  10    1.90    1.60
 -13  -1  10    0.50    3.30
  13  -1 -10   -1.60    2.00
 -13   1  10    0.70    2.90
  13   1 -10    1.10    1.80
  13   1 -10    2.70    2.30
  13   1 -10   -1.60    2.00
 -12  -1  10   25.90    2.70
  12  -1 -10   28.60    3.60
  12  -1 -10   24.70    3.50
  12   1 -10   21.00    2.90
 -12   1  10   20.20    4.30
  12   1 -10   25.30    3.40
  12   1 -10   24.20    3.40
  11  -1 -10   24.10    3.50
 -11  -1  10   31.80    2.80
  11  -1 -10   30.10    3.50
  11  -1 -10   30.90    3.50
 -11   1  10   26.80    4.10
  11   1 -10   33.50    3.30
  11   1 -10   31.70    3.40
  11   1 -10   29.90    3.70
  10  -1 -10  596.04   19.80
  10  -1 -10  611.74   20.00
  10  -1 -10  593.84   20.30
 -10  -1  10  618.14   19.00
  10   1 -10  614.34   20.80
  10   1 -10  633.14   19.90
 -10   1  10  628.84   21.70
  10   1 -10  582.84   20.10
   9  -1 -10    3.80    1.80
   9  -1 -10    5.20    1.90
   9  -1 -10    4.10    1.50
  -9  -1  10    6.50    1.30
  -9   1  10    3.00    1.80
   9   1 -10    5.90    2.20
   9   1 -10    3.10    1.60
   9   1 -10    5.10    1.80
   8  -1 -10   12.00    2.00
   8  -1 -10   16.10    2.40
   8  -1 -10   13.60    2.20
  -8  -1  10   12.30    1.80
   8   1 -10    8.80    2.10
   8   1 -10   16.00    2.40
   8   1 -10   16.30    2.30
  -8   1  10   13.70    2.50
   7  -1 -10  345.27   12.50
   7  -1 -10  379.46   12.10
  -7  -1  10  365.76   12.00
   7  -1 -10  353.86   12.60
  -7   1  10  363.86   13.50
   7   1 -10  364.36   12.40
   7   1 -10  356.86   12.70
   7   1 -10  362.16   12.30
   6  -1 -10   48.10    2.80
   6  -1 -10   49.60    3.50
   6  -1 -10   49.10    3.20
  -6  -1  10   46.20    2.90
   6   1 -10   47.60    2.90
  -6   1  10   47.90    3.70
   6   1 -10   43.00    3.20
   6   1 -10   46.40    3.10
  -5  -1  10   36.90    2.60
   5  -1 -10   41.30    2.40
   5  -1 -10   39.30    2.70
   5  -1 -10   37.10    3.00
   5   1 -10   37.80    2.50
  -5   1  10   36.20    3.10
   5   1 -10   40.10    2.90
   5   1 -10   35.20    2.80
  -4  -1  10  192.68    7.70
  -4  -1  10  189.78    7.20
   4  -1 -10  196.18    7.60
   4  -1 -10  204.08    7.30
   4  -1 -10  204.58    6.60
   4   1 -10  200.58    6.90
  -4   1  10  191.68    7.90
  -4   1  10  188.18    8.30
   4   1 -10  196.58    7.50
   4   1 -10  199.18    7.40
  -3  -1  10  230.68    8.40
   3  -1 -10  241.48    7.50
  -3  -1  10  238.78    8.70
   3  -1 -10  244.88    8.40
   3  -1 -10  227.48    8.60
  -3   1  10  228.58    9.30
   3   1 -10  247.28    8.50
   3   1 -10  242.78    7.80
  -3   1  10  226.88    8.90
   3   1 -10  240.18    8.50
  -2  -1  10   19.60    2.20
   2  -1 -10   21.40    1.30
   2  -1 -10   23.80    2.00
  -2  -1  10   19.10    2.10
   2   1 -10   23.10    2.10
   2   1 -10   19.30    2.00
  -2   1  10   22.50    2.30
   2   1 -10   20.80    1.50
  -2   1  10   20.20    2.70
  -1  -1  10    6.20    1.30
  -1  -1  10    5.30    0.80
   1  -1 -10    4.80    1.10
  -1  -1  10    5.60    1.30
   1  -1 -10    5.50    1.40
   1   1 -10    7.20    0.90
  -1   1  10    7.10    1.70
  -1   1  10    4.40    1.20
   1   1 -10    5.80    1.20
   1   1 -10    4.80    1.30
   0  -1  10   35.80    2.60
   0  -1 -10   39.40    2.70
   0  -1  10   39.20    2.70
   0  -1 -10   43.30    2.40
   0  -1  10   38.90    1.70
   0   1 -10   37.40    2.40
   0   1  10   43.30    2.80
   0   1  10   37.20    3.10
   0   1 -10   41.40    2.60
   1  -1  10  174.48    6.40
   1  -1  10  166.28    6.60
   1  -1  10  167.08    6.70
  -1  -1 -10  179.08    6.20
  -1  -1 -10  171.58    6.70
   1   1  10  176.28    5.20
  -1   1 -10  172.98    6.60
   1   1  10  172.18    6.50
  -1   1 -10  177.88    6.40
   1   1  10  171.98    6.60
   1   1  10  165.28    7.10
   2  -1  10  109.59    4.90
  -2  -1 -10  113.79    4.40
   2  -1  10  111.89    5.00
   2  -1  10  113.19    4.60
  -2  -1 -10  116.19    5.00
   2   1  10  109.69    4.80
   2   1  10  113.29    5.30
   2   1  10  108.59    4.90
   2   1  10  112.59    3.70
  -2   1 -10   94.99    4.40
   3  -1  10   38.70    2.60
   3  -1  10   34.80    2.90
   3  -1  10   36.30    2.80
  -3  -1 -10   32.90    2.70
  -3  -1 -10   40.10    2.40
   3   1  10   36.80    2.60
  -3   1 -10   34.40    2.50
   3   1  10   37.40    3.10
   3   1  10   37.50    2.80
   3   1  10   40.10    2.00
   4  -1  10   24.60    2.70
  -4  -1 -10   30.60    2.30
   4  -1  10   26.70    2.50
   4  -1  10   29.30    2.40
  -4  -1 -10   31.80    2.50
   4   1  10   25.30    2.60
  -4   1 -10   28.90    2.30
   4   1  10   31.30    2.30
   4   1  10   28.70    2.00
   4   1  10   27.90    2.90
   5  -1  10    1.50    1.60
   5  -1  10    1.20    1.10
   5  -1  10    1.10    1.30
  -5  -1 -10    1.00    1.20
  -5  -1 -10    3.10    1.30
  -5   1 -10    1.60    1.20
   5   1  10   -0.30    0.90
   5   1  10    3.90    1.20
   5   1  10    1.10    1.10
   5   1  10    2.20    1.50
   5   1  10    1.00    1.10
  -5   1 -10    1.70    0.50
   6  -1  10   12.70    1.90
   6  -1  10   10.50    2.00
  -6  -1 -10   11.70    1.90
   6  -1  10   10.50    1.90
  -6  -1 -10   14.10    1.90
  -6   1 -10   12.00    1.40
   6   1  10   11.80    1.60
   6   1  10   15.40    2.10
   6   1  10   16.50    2.60
   6   1  10    8.40    1.80
   6   1  10    9.80    1.60
  -6   1 -10    8.50    1.60
   7  -1  10    6.00    2.10
  -7  -1 -10    6.60    1.50
   7  -1  10    4.60    1.60
   7  -1  10    4.90    1.40
  -7  -1 -10    4.30    1.50
   7   1  10    6.40    1.60
   7   1  10    5.30    1.30
   7   1  10    5.30    1.40
   7   1  10    3.70    1.60
   7   1  10    1.40    1.60
  -7   1 -10    2.10    1.30
  -7   1 -10    4.00    1.00
   8  -1  10    7.80    1.90
  -8  -1 -10   10.40    2.00
   8  -1  10    8.20    1.80
   8  -1  10    6.60    1.80
   8  -1  10   11.10    2.70
  -8  -1 -10    9.80    2.30
   8   1  10   10.60    2.60
   8   1  10    6.80    1.50
   8   1  10    9.60    2.00
  -8   1 -10    9.50    1.40
  -8   1 -10    7.60    1.80
   8   1  10    7.60    1.80
   8   1  10   10.40    1.80
   9  -1  10    8.00    2.20
  -9  -1 -10    8.70    2.00
   9  -1  10   10.00    2.70
   9  -1  10   11.90    2.30
   9  -1  10   11.20    2.30
  -9  -1 -10    8.20    1.90
  -9   1 -10   10.90    2.30
   9   1  10   10.30    2.10
  -9   1 -10    8.50    1.70
   9   1  10    6.60    2.40
   9   1  10    6.20    1.50
   9   1  10   10.40    2.40
   9   1  10   10.10    1.90
 -10  -1 -10    2.80    1.70
  10  -1  10    4.90    2.80
  10  -1  10    4.70    2.20
  10  -1  10    0.70    1.80
  10  -1  10    3.40    1.80
  10   1  10   -0.20    1.60
 -10   1 -10    2.40    1.80
  10   1  10    3.30    1.50
 -10   1 -10    2.40    1.60
  10   1  10   -4.30    2.60
  10   1  10    1.40    2.10
  11  -1  10   48.20    4.30
  11  -1  10   59.79    6.30
 -11  -1 -10   43.80    4.00
  11  -1  10   53.89    4.80
  11  -1  10   49.50    4.10
 -11   1 -10   53.69    3.90
  11   1  10   45.00    4.10
  11   1  10   54.69    3.50
 -11   1 -10   50.19    4.30
  11   1  10   47.80    6.20
  11   1  10   51.99    4.50
  12  -1  10   32.40    3.90
  12  -1  10   26.60    3.50
  12  -1  10   27.50    5.20
 -12  -1 -10   26.10    3.50
  12  -1  10   31.10    3.60
 -12   1 -10   34.30    4.00
 -12   1 -10   33.10    3.80
  12   1  10   25.40    3.70
  12   1  10   47.80    6.50
  12   1  10   37.40    3.20
  12   1  10   26.20    3.60
 -13  -1 -10   44.10    4.40
  13  -1  10   54.09    4.70
  13  -1  10   40.20    4.30
  13  -1  10   45.50    6.10
  13  -1  10   45.50    5.10
  13   1  10   41.40    3.80
  13   1  10   55.09    7.80
 -13   1 -10   37.50    4.90
  13   1  10   43.30    4.50
 -13   1 -10   44.10    4.30
  13   1  10   39.10    4.50
  14  -1  10   -4.60    3.10
  14  -1  10   -0.20    2.70
  14  -1  10    2.00    2.80
  14  -1  10   -8.40    5.10
 -14  -1 -10   -1.70    2.10
 -14   1 -10    2.90    3.20
  14   1  10   -2.80    2.30
 -14   1 -10    0.10    2.50
  14   1  10    5.70    4.70
  14   1  10    1.50    2.60
  15  -2 -10    9.60    2.80
 -15  -2  10   13.90    2.90
  15  -2 -10   17.00    3.80
  14  -2 -10    7.40    2.80
  14  -2 -10    5.90    2.50
  14  -2 -10    8.40    3.50
 -14  -2  10   12.90    2.80
 -14   2  10   13.90    4.60
  14   2 -10    6.60    3.20
  14   2 -10    4.80    3.40
  13  -2 -10    2.80    3.30
 -13  -2  10    1.30    2.00
  13  -2 -10    2.80    2.40
  13  -2 -10    5.50    2.40
  13   2 -10    5.20    3.30
 -13   2  10    6.20    4.30
  13   2 -10    7.60    3.20
  12  -2 -10    1.50    2.90
 -12  -2  10   -0.90    1.70
  12  -2 -10    3.80    2.30
  12  -2 -10    1.40    1.90
  12   2 -10    0.00    2.50
 -12   2  10    1.30    3.10
  12   2 -10    0.80    2.00
  11  -2 -10   16.20    2.80
 -11  -2  10   21.20    2.70
  11  -2 -10   20.90    3.30
  11  -2 -10   21.00    2.80
  11   2 -10   17.60    3.00
  11   2 -10   19.10    3.60
 -11   2  10   21.20    4.30
  10  -2 -10   10.10    2.50
  10  -2 -10   14.50    2.50
 -10  -2  10   13.80    2.00
  10  -2 -10   12.20    2.80
  10   2 -10   15.00    2.70
 -10   2  10    9.90    3.30
  10   2 -10   12.60    3.00
   9  -2 -10  660.03   21.00
   9  -2 -10  673.23   21.90
   9  -2 -10  619.54   21.70
  -9  -2  10  670.43   20.50
   9   2 -10  645.14   22.30
  -9   2  10  653.93   23.20
   9   2 -10  688.23   22.00
  -8  -2  10   34.30    2.90
   8  -2 -10   34.20    3.40
   8  -2 -10   38.80    3.90
   8  -2 -10   37.90    2.80
   8   2 -10   35.60    3.60
   8   2 -10   37.50    3.80
  -8   2  10   38.80    4.30
   7  -2 -10   21.60    2.90
   7  -2 -10   22.50    2.20
  -7  -2  10   20.00    2.40
   7  -2 -10   19.30    2.60
   7   2 -10   19.40    3.00
  -7   2  10   16.60    2.90
   7   2 -10   22.00    2.90
  -6  -2  10   15.70    2.10
   6  -2 -10   12.50    1.90
  -6  -2  10   19.00    2.70
   6  -2 -10   16.60    1.90
   6  -2 -10   13.30    2.20
   6   2 -10   13.20    2.40
  -6   2  10   13.70    1.90
  -6   2  10    9.10    2.10
   6   2 -10   13.70    2.20
  -5  -2  10    3.90    1.30
  -5  -2  10    3.90    1.50
   5  -2 -10    2.40    1.30
   5  -2 -10    2.00    1.60
   5  -2 -10    6.70    1.10
  -5   2  10    3.90    1.40
   5   2 -10    3.10    1.60
   5   2 -10    0.40    1.40
  -5   2  10    2.60    1.60
  -4  -2  10    4.40    1.40
   4  -2 -10    5.30    1.40
  -4  -2  10    6.00    1.30
   4  -2 -10    3.30    1.50
   4  -2 -10    8.20    1.10
  -4   2  10    6.40    2.00
  -4   2  10    7.70    1.30
  -4   2  10    4.80    1.80
   4   2 -10    4.00    1.50
   4   2 -10    7.30    1.90
  -3  -2  10    8.80    1.40
   3  -2 -10    8.20    1.80
   3  -2 -10   10.70    1.80
  -3  -2  10    9.30    1.70
   3  -2 -10    8.60    1.10
   3   2 -10    9.40    1.80
   3   2 -10    7.40    1.70
  -3   2  10   10.30    1.60
  -3   2  10    8.90    2.00
  -3   2  10    9.20    2.10
   2  -2 -10  521.55   16.80
   2  -2 -10  504.95   17.10
  -2  -2  10  523.35   16.90
  -2  -2  10  518.45   16.00
  -2   2  10  510.95   17.70
  -2   2  10  519.55   17.50
  -2   2  10  524.85   16.20
   2   2 -10  514.05   17.00
  -1  -2  10  111.89    5.30
  -1  -2  10  108.59    4.60
   1  -2 -10  114.99    5.50
   1  -2 -10  115.99    5.10
   1   2 -10  111.19    5.20
   1   2 -10  113.79    4.30
  -1   2  10  119.89    4.90
   1   2 -10  119.79    4.50
  -1   2  10  114.19    5.70
  -1   2  10  116.59    5.80
   0  -2 -10   25.60    2.50
   0  -2 -10   22.40    2.70
   0  -2  10   29.10    2.70
   0  -2 -10   25.30    2.30
   0  -2  10   28.20    1.80
   0  -2  10   30.10    2.20
   0   2 -10   27.50    1.60
   0   2 -10   27.20    2.10
   0   2  10   25.90    2.80
   0   2 -10   25.50    2.50
   0   2  10   28.30    2.40
   0   2  10   27.60    2.80
   1  -2  10    9.20    1.90
  -1  -2 -10    5.80    1.40
  -1  -2 -10    4.50    1.40
   1  -2  10    6.80    1.00
   1  -2  10    5.30    1.20
  -1  -2 -10    5.20    1.50
   1   2  10    4.00    1.50
  -1   2 -10    7.90    1.40
   1   2  10    4.10    1.40
  -1   2 -10    6.20    1.50
  -1   2 -10    5.70    0.80
   1   2  10    4.40    1.60
   2  -2  10    1.90    1.30
   2  -2  10    3.50    1.60
  -2  -2 -10    1.60    1.10
  -2  -2 -10    2.70    1.30
  -2  -2 -10    1.60    1.10
   2  -2  10    1.50    1.10
  -2   2 -10    2.40    1.10
   2   2  10    0.50    1.50
   2   2  10    3.50    1.00
   2   2  10    2.00    1.30
   2   2  10    1.30    1.40
  -2   2 -10    2.00    1.20
   3  -2  10   67.79    4.40
   3  -2  10   62.39    3.80
   3  -2  10   66.69    3.90
  -3  -2 -10   69.79    3.70
  -3  -2 -10   67.19    3.90
   3   2  10   60.79    4.20
   3   2  10   63.19    3.90
  -3   2 -10   60.89    3.60
   3   2  10   65.39    4.30
   3   2  10   66.09    2.80
  -3   2 -10   61.79    3.20
  -4  -2 -10  135.19    5.70
   4  -2  10  126.39    5.80
  -4  -2 -10  119.69    5.80
   4  -2  10  127.99    5.90
   4  -2  10  131.99    6.30
   4   2  10  129.19    4.80
   4   2  10  136.69    6.20
   4   2  10  133.09    6.00
  -4   2 -10  124.69    5.30
  -4   2 -10  122.69    5.60
   4   2  10  138.69    6.30
   5  -2  10  287.57   10.60
   5  -2  10  302.17   11.10
   5  -2  10  299.77   10.90
   5  -2  10  295.97    8.70
  -5  -2 -10  288.97   10.40
  -5  -2 -10  284.07   10.60
   5   2  10  289.47   10.80
   5   2  10  289.67    9.60
  -5   2 -10  286.77    8.90
   5   2  10  295.67   11.10
  -5   2 -10  289.67   10.10
   5   2  10  276.27   10.70
   6  -2  10   60.19    4.50
  -6  -2 -10   56.89    3.90
   6  -2  10   61.19    3.90
   6  -2  10   63.39    4.60
   6  -2  10   61.79    2.60
  -6  -2 -10   60.49    3.80
   6   2  10   61.29    4.30
  -6   2 -10   61.99    2.70
  -6   2 -10   60.39    3.60
   6   2  10   64.89    3.30
   6   2  10   55.29    4.10
   6   2  10   57.89    4.40
   7  -2  10    4.20    1.40
  -7  -2 -10    1.30    1.50
  -7  -2 -10    3.90    1.50
   7  -2  10    3.40    2.20
   7  -2  10    4.40    1.70
   7  -2  10    4.90    2.00
   7   2  10    4.00    1.80
   7   2  10    1.60    1.60
   7   2  10    2.90    2.00
  -7   2 -10    2.20    1.40
   7   2  10    3.20    1.60
  -7   2 -10    1.50    1.30
   8  -2  10   42.80    2.70
   8  -2  10   36.80    3.50
   8  -2  10   41.10    4.30
   8  -2  10   34.00    4.30
  -8  -2 -10   42.10    3.50
  -8  -2 -10   42.90    3.30
   8   2  10   39.50    3.30
  -8   2 -10   46.20    3.00
   8   2  10   40.40    4.00
   8   2  10   46.10    4.60
  -8   2 -10   45.50    3.60
   8   2  10   49.80    3.20
   8   2  10   53.99    4.30
  -9  -2 -10   25.40    3.30
   9  -2  10   35.90    4.70
   9  -2  10   26.70    3.30
   9  -2  10   29.40    4.40
   9  -2  10   29.80    2.60
  -9  -2 -10   19.10    2.90
   9   2  10   35.10    5.00
   9   2  10   23.20    3.10
   9   2  10   26.20    2.60
   9   2  10   24.10    3.90
  -9   2 -10   33.00    3.00
   9   2  10   29.10    3.60
  -9   2 -10   26.10    3.10
 -10  -2 -10    5.20    2.10
  10  -2  10    3.60    1.90
  10  -2  10   11.40    2.00
  10  -2  10    4.10    3.40
  10  -2  10    3.20    2.40
  10  -2  10    7.20    2.20
 -10  -2 -10    5.00    2.30
  10   2  10   12.40    2.70
 -10   2 -10    6.20    1.90
  10   2  10    3.40    2.00
  10   2  10    6.50    2.90
 -10   2 -10    6.40    1.80
  10   2  10    7.70    1.60
  10   2  10    5.90    2.40
  11  -2  10    7.40    2.20
  11  -2  10    7.50    2.30
  11  -2  10    4.10    3.10
  11  -2  10    4.60    3.50
  11  -2  10    7.10    2.10
 -11  -2 -10    5.70    2.20
 -11  -2 -10    5.50    2.10
  11   2  10    9.20    2.60
 -11   2 -10    5.30    2.10
 -11   2 -10    5.00    1.70
  11   2  10    4.30    2.70
  11   2  10    5.70    1.60
  11   2  10    5.80    2.40
  11   2  10    4.90    3.70
  12  -2  10    7.10    4.60
  12  -2  10   18.60    3.60
 -12  -2 -10   12.30    3.00
  12  -2  10   17.10    2.50
 -12  -2 -10   18.70    3.00
  12  -2  10   18.50    3.40
  12  -2  10   17.90    3.30
  12   2  10   20.60    4.10
 -12   2 -10   18.20    2.90
  12   2  10   12.60    3.10
  12   2  10    9.90    3.20
  12   2  10   18.30    3.60
 -12   2 -10   12.20    2.60
 -13  -2 -10   -1.90    2.20
  13  -2  10   -8.80    3.60
  13  -2  10   -1.90    4.90
  13  -2  10   -2.60    2.40
 -13  -2 -10    0.60    2.40
  13  -2  10    3.60    2.80
  13   2  10   -1.00    2.80
 -13   2 -10   -1.70    1.80
 -13   2 -10    5.40    3.00
  13   2  10    0.00    4.40
  13   2  10    1.90    2.60
  14  -2  10   11.90    8.20
 -14  -2 -10   12.10    3.00
 -14  -2 -10   11.90    3.00
  14  -2  10    5.80    4.40
  14  -2  10   12.20    3.20
  14  -2  10   15.70    3.10
  14   2  10    9.00    5.40
  14   2  10   19.20    3.80
  14   2  10   12.80    3.40
 -14   2 -10   14.40    3.90
 -14   2 -10   12.50    2.90
  13  -3 -10   26.30    4.80
  13  -3 -10   19.90    3.30
  13  -3 -10   17.00    3.70
 -13  -3  10   26.30    3.30
  13   3 -10   19.90    3.90
 -13   3  10   18.80    4.80
  13   3 -10   25.00    4.20
  12  -3 -10   12.60    2.70
  12  -3 -10   13.60    4.00
  12  -3 -10   10.80    2.90
 -12  -3  10   14.30    2.60
 -12   3  10    8.20    4.40
  12   3 -10   13.10    3.60
  12   3 -10   11.70    3.00
 -11  -3  10    0.20    1.90
 -11  -3  10    2.60    1.90
  11  -3 -10    0.90    3.30
  11  -3 -10    1.20    1.90
  11  -3 -10    2.20    2.20
  11   3 -10   -2.40    2.30
  11   3 -10    3.40    2.30
 -11   3  10    1.80    3.50
 -10  -3  10   -2.80    1.50
  10  -3 -10    2.40    2.10
  10  -3 -10   -1.30    2.70
  10  -3 -10   -2.30    1.80
 -10  -3  10   -0.80    2.00
  10   3 -10   -2.20    2.20
 -10   3  10    5.10    3.40
  10   3 -10   -0.50    2.20
   9  -3 -10    7.80    1.80
  -9  -3  10    8.00    2.20
   9  -3 -10    9.70    3.00
   9  -3 -10   12.50    2.90
  -9  -3  10   13.30    2.10
  -9   3  10    7.90    3.10
   9   3 -10   10.30    2.80
   9   3 -10    5.50    2.40
   8  -3 -10    6.80    2.20
  -8  -3  10   13.80    2.50
   8  -3 -10    9.90    2.80
  -8  -3  10   17.20    2.40
   8  -3 -10   13.00    2.30
  -8  -3  10   13.80    2.00
  -8   3  10    8.50    2.70
   8   3 -10   11.90    2.70
   8   3 -10   11.00    2.90
   7  -3 -10    8.20    2.40
   7  -3 -10   10.40    1.90
  -7  -3  10   12.70    2.40
  -7  -3  10   11.90    1.90
   7  -3 -10    8.50    2.40
   7   3 -10    8.10    2.40
   7   3 -10   10.30    2.80
  -7   3  10    7.20    3.00
  -6  -3  10  144.59    5.40
  -6  -3  10  139.99    6.50
   6  -3 -10  137.99    5.50
   6  -3 -10  141.39    7.40
   6  -3 -10  125.09    6.60
   6   3 -10  137.29    7.00
  -6   3  10  140.29    5.10
  -6   3  10  147.29    8.20
   6   3 -10  141.29    6.60
   6   3 -10  131.79    7.00
   5  -3 -10  104.79    5.70
  -5  -3  10  105.69    5.60
  -5  -3  10  104.89    4.20
   5  -3 -10  110.19    4.40
   5  -3 -10  101.89    6.30
   5   3 -10  110.69    5.50
   5   3 -10   98.79    5.80
  -5   3  10  109.89    6.90
  -5   3  10  114.59    4.60
  -5   3  10  112.59    6.70
   5   3 -10  110.29    6.00
   4  -3 -10   45.90    4.50
  -4  -3  10   37.70    2.00
   4  -3 -10   40.10    2.30
   4  -3 -10   34.70    3.20
  -4  -3  10   35.70    3.60
   4   3 -10   31.80    3.30
  -4   3  10   38.30    4.40
   4   3 -10   38.40    3.20
  -4   3  10   38.10    4.60
   4   3 -10   35.90    3.50
  -4   3  10   41.30    2.90
  -3  -3  10    1.90    0.70
  -3  -3  10    1.70    1.50
   3  -3 -10    1.50    1.80
   3  -3 -10    3.30    1.70
   3  -3 -10    1.80    1.10
  -3  -3  10    4.90    1.70
   3   3 -10    2.10    1.30
  -3   3  10   -2.10    1.70
  -3   3  10    1.20    1.70
   3   3 -10    2.00    1.70
  -3   3  10    1.60    1.50
   2  -3 -10   23.30    2.70
  -2  -3  10   22.90    3.10
  -2  -3  10   21.20    1.50
   2  -3 -10   22.50    1.60
  -2  -3  10   21.80    2.30
   2  -3 -10   17.50    2.70
   2   3 -10   20.40    2.80
   2   3 -10   21.90    2.30
  -2   3  10   18.50    2.90
  -2   3  10   20.10    2.70
  -2   3  10   18.70    2.90
  -1  -3  10  110.59    4.60
  -1  -3  10  101.69    5.70
   1  -3 -10  103.59    3.60
  -1  -3  10  104.19    3.90
   1  -3 -10   97.39    5.30
   1  -3 -10  115.79    6.10
   1   3 -10  106.49    4.70
  -1   3  10  102.39    6.10
  -1   3  10  112.89    5.20
   1   3 -10  108.99    5.50
  -1   3  10  106.89    5.90
   0  -3  10    6.30    1.20
   0  -3  10    6.80    1.80
   0  -3 -10    7.50    2.00
   0  -3 -10    5.80    2.00
   0  -3 -10    6.80    1.00
   0  -3  10    6.60    1.50
   0   3 -10    5.80    1.30
   0   3  10    7.10    2.00
   0   3 -10    7.50    2.00
   0   3  10    6.80    2.00
   0   3  10    3.40    1.70
   0   3 -10    7.70    1.20
   1  -3  10    0.00    1.00
  -1  -3 -10    0.80    1.60
   1  -3  10    1.40    1.40
   1  -3  10    0.10    1.70
  -1  -3 -10    0.50    1.50
  -1  -3 -10    1.60    1.00
  -1  -3 -10   -1.20    1.20
   1   3  10   -1.10    1.80
  -1   3 -10    1.20    1.00
   1   3  10   -1.10    1.50
  -1   3 -10    0.80    1.10
   1   3  10    0.20    1.60
  -1   3 -10    0.30    1.40
   2  -3  10  136.89    6.50
   2  -3  10  142.29    7.10
  -2  -3 -10  131.69    6.30
   2  -3  10  142.89    5.10
  -2  -3 -10  135.99    6.60
  -2  -3 -10  131.49    6.10
   2  -3  10  139.79    5.70
  -2   3 -10  145.49    5.30
   2   3  10  140.39    6.70
  -2   3 -10  136.79    5.30
  -2   3 -10  130.69    6.20
   2   3  10  138.79    7.30
   2   3  10  130.99    6.30
   3  -3  10    5.10    1.70
   3  -3  10    5.20    1.70
  -3  -3 -10    4.90    1.70
   3  -3  10    4.80    1.40
  -3  -3 -10    3.30    1.90
  -3  -3 -10    3.10    1.60
   3  -3  10    3.60    2.20
  -3   3 -10    4.80    1.10
   3   3  10    2.30    1.70
   3   3  10    5.00    2.20
   3   3  10    3.60    1.90
  -3   3 -10    5.90    1.30
  -3   3 -10    8.30    1.90
   4  -3  10   46.20    2.60
   4  -3  10   41.00    3.60
  -4  -3 -10   43.30    3.40
  -4  -3 -10   41.90    3.60
   4  -3  10   42.20    4.20
   4  -3  10   37.80    3.40
  -4  -3 -10   46.80    3.80
  -4   3 -10   45.90    2.90
  -4   3 -10   43.30    2.50
  -4   3 -10   42.70    3.30
   4   3  10   43.40    3.80
   4   3  10   42.60    4.40
   4   3  10   42.60    3.90
   4   3  10   44.80    3.00
   5  -3  10  840.12   27.70
  -5  -3 -10  834.72   26.60
   5  -3  10  857.31   24.90
   5  -3  10  847.52   26.80
   5  -3  10  780.12   26.90
  -5  -3 -10  816.92   26.90
   5   3  10  870.81   27.60
   5   3  10  887.61   25.60
  -5   3 -10  821.62   25.90
  -5   3 -10  833.82   26.50
  -5   3 -10  838.52   25.20
   5   3  10  879.01   27.20
   6  -3  10    3.60    2.30
   6  -3  10    3.40    1.50
  -6  -3 -10    2.60    2.00
   6  -3  10    2.40    2.30
   6  -3  10    1.50    1.60
  -6  -3 -10    2.90    2.10
   6   3  10   -0.10    1.90
   6   3  10    5.30    2.20
  -6   3 -10    3.50    1.40
   6   3  10    0.60    1.90
  -6   3 -10    0.20    1.30
   6   3  10    1.80    1.90
  -7  -3 -10    2.40    1.90
   7  -3  10   -2.90    2.30
   7  -3  10   -1.90    1.40
  -7  -3 -10    2.00    1.90
   7  -3  10    0.90    2.40
   7  -3  10   -1.30    1.50
   7   3  10   -3.30    2.20
  -7   3 -10    0.10    1.30
   7   3  10    0.30    2.10
   7   3  10   -1.90    2.00
   7   3  10   -0.50    2.10
  -7   3 -10    1.70    1.30
  -8  -3 -10   17.00    2.70
   8  -3  10   21.30    2.60
   8  -3  10   16.80    3.50
   8  -3  10   19.80    3.50
  -8  -3 -10   18.50    3.00
   8  -3  10   17.40    2.80
  -8   3 -10   16.00    2.20
   8   3  10   14.20    2.90
   8   3  10   19.30    2.70
   8   3  10   20.80    3.10
   8   3  10   16.40    3.30
  -8   3 -10   16.10    2.60
   9  -3  10    2.60    2.10
  -9  -3 -10    0.20    2.20
  -9  -3 -10    1.80    2.10
   9  -3  10    0.20    1.80
   9  -3  10    0.30    3.20
   9  -3  10    1.90    3.20
   9   3  10    2.90    2.80
   9   3  10   -1.00    1.90
  -9   3 -10   -0.90    1.50
  -9   3 -10   -0.30    1.80
   9   3  10    4.50    3.30
   9   3  10    2.10    2.40
  10  -3  10   50.79    7.00
  10  -3  10   35.90    4.10
 -10  -3 -10   40.90    4.10
  10  -3  10   40.20    3.60
  10  -3  10   46.00    7.20
 -10  -3 -10   38.00    4.10
  10   3  10   45.80    3.80
 -10   3 -10   39.10    4.20
  10   3  10   43.40    6.30
  10   3  10   38.30    5.80
 -10   3 -10   39.70    3.70
  10   3  10   36.70    4.10
  10   3  10   36.70    4.30
 -11  -3 -10    4.60    2.50
  11  -3  10    4.40    3.70
 -11  -3 -10    1.70    2.10
  11  -3  10    0.70    2.40
  11  -3  10    4.30    2.20
  11  -3  10    5.00    4.40
  11  -3  10    0.90    2.20
  11   3  10    1.90    3.50
 -11   3 -10    3.10    2.50
  11   3  10    2.50    2.70
  11   3  10    2.10    2.40
  11   3  10    2.40    1.70
 -11   3 -10    1.00    1.80
  11   3  10    2.40    3.50
  12  -3  10    8.80    5.40
  12  -3  10   11.30    4.40
  12  -3  10    8.70    2.50
 -12  -3 -10    5.50    2.50
  12  -3  10    7.10    2.80
 -12  -3 -10    8.20    2.80
  12  -3  10    9.90    3.10
  12   3  10   14.80    4.40
  12   3  10    7.40    2.90
  12   3  10    8.20    4.30
  12   3  10   13.60    2.90
 -12   3 -10    6.20    2.20
 -12   3 -10    9.70    3.60
  13  -3  10    3.90    2.80
 -13  -3 -10   -0.20    2.40
  13  -3  10   -7.20    6.00
  13  -3  10   -6.10    4.90
 -13  -3 -10    0.30    2.80
  13  -3  10   -4.70    2.30
  13  -3  10    3.10    3.10
  13   3  10    3.40    2.80
  13   3  10   -0.90    2.80
  13   3  10   -3.80    4.50
  13   3  10    5.40    5.00
 -13   3 -10   -2.30    4.30
 -13   3 -10   -0.60    2.30
  11  -4 -10   48.90    6.60
 -11  -4  10   51.29    5.50
  11  -4 -10   47.90    5.00
  11  -4 -10   41.40    4.30
 -11  -4  10   44.30    5.20
 -11   4  10   60.29    9.60
  11   4 -10   46.20    5.70
  11   4 -10   45.50    5.20
  10  -4 -10    0.40    3.60
  10  -4 -10    0.10    2.10
 -10  -4  10    3.80    2.20
  10  -4 -10   -0.70    2.10
 -10  -4  10   -0.80    2.90
  10   4 -10    0.20    2.30
  10   4 -10   -2.00    2.80
 -10   4  10   -1.40    4.90
   9  -4 -10   -2.60    2.00
   9  -4 -10    3.30    2.00
   9  -4 -10   -2.10    3.40
  -9  -4  10    7.80    2.70
   9   4 -10    1.60    2.60
   9   4 -10   -0.40    2.40
  -9   4  10    3.30    4.00
  -8  -4  10   91.79    6.10
   8  -4 -10   82.39    5.60
   8  -4 -10   87.49    4.70
   8  -4 -10   89.79    7.50
  -8  -4  10   74.89    5.30
  -8   4  10   74.89    8.30
   8   4 -10   82.59    6.30
   8   4 -10   81.69    6.20
   8   4 -10   83.19    6.00
   7  -4 -10   13.80    2.20
   7  -4 -10    8.90    3.20
   7  -4 -10    8.20    2.30
  -7  -4  10    9.30    2.70
  -7  -4  10    9.00    2.50
   7   4 -10    4.80    2.20
   7   4 -10    8.80    2.70
   7   4 -10    5.20    2.40
  -7   4  10    6.70    3.70
  -7   4  10   10.50    4.00
  -6  -4  10   40.70    3.90
   6  -4 -10   42.80    3.20
  -6  -4  10   41.80    4.90
   6  -4 -10   53.19    6.00
   6  -4 -10   40.70    4.20
  -6   4  10   44.40    6.20
   6   4 -10   42.60    4.60
  -6   4  10   53.09    6.30
   6   4 -10   38.80    4.20
   6   4 -10   35.50    4.50
  -6   4  10   43.10    3.50
   5  -4 -10    4.60    1.70
  -5  -4  10    0.90    2.20
   5  -4 -10    3.30    2.90
   5  -4 -10    1.60    1.60
  -5  -4  10    2.10    1.80
   5   4 -10    2.90    2.30
   5   4 -10    1.00    1.90
  -5   4  10   -0.50    3.10
  -5   4  10    1.00    2.30
  -5   4  10    3.00    3.20
  -4  -4  10    6.40    2.50
   4  -4 -10    8.50    1.90
  -4  -4  10    7.20    2.10
   4  -4 -10    9.20    2.70
   4  -4 -10    5.30    2.00
   4   4 -10    5.80    2.20
   4   4 -10   10.40    2.30
  -4   4  10   12.00    2.40
  -4   4  10   12.80    3.10
  -4   4  10   12.30    3.40
  -3  -4  10   40.30    3.60
   3  -4 -10   41.70    2.70
   3  -4 -10   45.10    4.30
   3  -4 -10   33.20    4.90
  -3  -4  10   44.50    5.10
   3   4 -10   51.39    4.30
   3   4 -10   41.20    3.90
  -3   4  10   46.10    3.90
  -3   4  10   40.20    4.80
  -3   4  10   40.30    5.30
   2  -4 -10    4.70    1.70
   2  -4 -10    8.40    1.70
  -2  -4  10   10.60    2.00
  -2  -4  10    8.50    2.60
   2  -4 -10    6.50    2.40
  -2   4  10    9.80    2.70
  -2   4  10    5.70    2.00
   2   4 -10    8.70    2.10
  -2   4  10    5.40    2.60
   2   4 -10    8.10    2.20
  -1  -4  10    1.00    1.70
   1  -4 -10    2.70    2.50
   1  -4 -10    3.30    2.20
  -1  -4  10    0.90    2.30
   1  -4 -10    0.20    1.50
  -1   4  10   -0.50    2.20
   1   4 -10    0.40    2.10
  -1   4  10    5.60    2.70
   1   4 -10   -0.20    1.50
  -1   4  10    0.60    1.90
   0  -4  10  315.37   12.80
   0  -4 -10  315.77    9.90
   0  -4 -10  298.77   12.10
   0  -4 -10  318.57   12.70
   0  -4  10  305.17   10.80
   0   4  10  306.47   13.10
   0   4  10  309.57   12.20
   0   4 -10  304.97   11.00
   0   4 -10  301.97   12.10
   0   4  10  290.17   11.60
   1  -4  10   22.10    2.00
   1  -4  10   21.00    2.60
  -1  -4 -10   23.10    3.30
   1  -4  10   18.40    3.50
  -1  -4 -10   16.90    2.80
  -1  -4 -10   17.60    2.30
   1   4  10   22.00    4.00
  -1   4 -10   21.50    3.10
   1   4  10   25.70    4.00
  -1   4 -10   18.70    2.50
  -1   4 -10   25.40    2.00
   1   4  10   19.00    3.10
   2  -4  10   60.89    3.70
  -2  -4 -10   57.49    4.50
   2  -4  10   60.49    4.60
   2  -4  10   54.39    5.40
  -2  -4 -10   65.19    5.50
   2  -4  10   59.79    3.50
  -2   4 -10   56.89    4.50
  -2   4 -10   61.09    3.20
   2   4  10   57.49    5.00
   2   4  10   54.59    5.90
   2   4  10   59.39    4.60
  -2   4 -10   66.29    3.90
  -3  -4 -10  119.99    6.60
   3  -4  10  125.49    5.70
  -3  -4 -10  115.49    7.00
   3  -4  10  120.19    7.70
   3  -4  10  131.89    5.50
  -3  -4 -10  118.39    6.10
   3  -4  10  119.79    6.80
   3   4  10  125.39    7.90
  -3   4 -10  125.49    5.00
   3   4  10  120.39    6.80
  -3   4 -10  118.99    5.50
   3   4  10  134.09    6.80
  -3   4 -10  125.89    6.40
   4  -4  10    5.50    2.00
  -4  -4 -10    0.60    1.80
   4  -4  10    0.50    1.80
  -4  -4 -10    2.60    2.00
  -4  -4 -10    4.80    2.70
   4  -4  10   -0.90    2.40
   4  -4  10    4.70    1.80
   4   4  10    2.30    2.10
  -4   4 -10    3.90    1.50
  -4   4 -10    1.90    2.10
  -4   4 -10    3.50    1.70
   4   4  10    0.70    2.00
   4   4  10    1.40    2.80
  -5  -4 -10   46.00    3.90
   5  -4  10   63.79    6.30
   5  -4  10   43.90    4.40
  -5  -4 -10   44.50    4.30
  -5  -4 -10   51.99    5.00
   5  -4  10   56.99    4.70
   5  -4  10   51.39    3.40
   5   4  10   49.80    3.80
  -5   4 -10   47.70    3.20
  -5   4 -10   49.99    3.70
   5   4  10   45.30    4.50
   5   4  10   47.70    5.60
  -5   4 -10   48.70    4.20
   5   4  10   39.10    4.60
  -6  -4 -10   51.19    4.80
   6  -4  10   41.60    6.40
   6  -4  10   49.90    4.40
  -6  -4 -10   47.70    4.20
   6  -4  10   51.39    5.40
  -6  -4 -10   51.49    4.60
   6  -4  10   52.89    3.70
  -6   4 -10   54.69    4.40
   6   4  10   54.59    4.30
  -6   4 -10   56.29    4.20
   6   4  10   59.49    6.20
   6   4  10   53.89    4.90
   6   4  10   51.99    4.90
  -6   4 -10   47.90    3.50
   7  -4  10  179.38    6.80
  -7  -4 -10  166.28    8.40
   7  -4  10  171.58    9.10
  -7  -4 -10  169.28    7.80
   7  -4  10  163.08    8.30
   7  -4  10  187.58   10.40
   7   4  10  192.18   10.20
  -7   4 -10  167.28    7.40
   7   4  10  162.28    7.50
   7   4  10  178.08    8.60
   7   4  10  155.48    8.70
  -7   4 -10  164.58    7.20
  -8  -4 -10   72.69    5.10
   8  -4  10   77.29    7.60
  -8  -4 -10   75.69    5.50
   8  -4  10   88.19    7.60
   8  -4  10   68.09    5.40
   8  -4  10   74.59    4.40
   8   4  10   71.19    5.20
   8   4  10   73.49    6.60
  -8   4 -10   72.89    5.10
   8   4  10   63.89    7.50
   8   4  10   63.59    5.70
  -8   4 -10   69.99    4.60
   9  -4  10    5.10    4.20
  -9  -4 -10   -3.20    2.10
  -9  -4 -10    4.40    2.50
   9  -4  10    5.40    2.30
   9  -4  10    5.10    4.40
   9  -4  10    1.70    2.30
   9   4  10    2.30    2.70
  -9   4 -10    0.60    1.90
   9   4  10   -2.90    3.20
   9   4  10    3.80    3.00
   9   4  10    2.20    4.20
  -9   4 -10    1.10    2.40
  10  -4  10   -2.20    4.50
  10  -4  10   -2.20    2.60
  10  -4  10   -0.20    2.20
 -10  -4 -10    0.20    2.50
  10  -4  10   -0.10    5.10
 -10  -4 -10   -0.30    2.60
  10   4  10   -1.00    2.70
  10   4  10    5.50    3.90
  10   4  10    0.50    3.00
  10   4  10    2.70    4.50
 -10   4 -10    0.80    2.10
 -10   4 -10    1.20    2.90
  11  -4  10    3.70    5.00
 -11  -4 -10    1.30    3.00
  11  -4  10    1.20    2.70
  11  -4  10    7.60    5.80
  11  -4  10    5.70    2.90
 -11  -4 -10   -2.30    2.90
 -11   4 -10   -1.60    3.10
  11   4  10    1.80    2.80
  11   4  10   -3.10    3.00
  11   4  10    7.70    4.50
  11   4  10    7.70    5.00
 -11   4 -10    0.30    2.20
   9  -5 -10   -0.10    2.50
  -9   5  10   -4.50    4.20
   9   5 -10    8.10    4.20
   8  -5 -10    4.10    2.30
  -8  -5  10    3.50    2.40
  -8  -5  10    2.40    4.10
   8  -5 -10   -0.30    5.20
   8  -5 -10    4.70    2.90
  -8   5  10    3.10    5.80
   8   5 -10    5.70    3.90
  -8   5  10    9.50    5.80
   8   5 -10    2.70    2.60
   7  -5 -10    9.50    2.70
   7  -5 -10    2.80    4.50
  -7  -5  10   10.00    4.20
  -7  -5  10   14.20    2.80
   7   5 -10   10.10    3.80
  -7   5  10    8.70    5.00
   7   5 -10   11.40    3.70
  -7   5  10   13.00    5.30
  -6  -5  10   19.70    4.60
   6  -5 -10   26.50    3.20
   6  -5 -10   21.30    5.10
  -6  -5  10   30.00    4.00
   6  -5 -10   21.80    3.80
  -6   5  10   22.60    4.90
  -6   5  10   33.40    5.70
   6   5 -10   23.50    4.00
   6   5 -10   15.00    3.50
  -6   5  10   35.20    4.30
   5  -5 -10   13.10    3.00
  -5  -5  10   15.00    4.00
   5  -5 -10   13.90    4.50
  -5  -5  10   16.40    3.50
   5  -5 -10   13.50    2.50
  -5   5  10    6.90    4.10
  -5   5  10   21.40    3.30
   5   5 -10   11.90    3.30
  -5   5  10   17.10    4.10
   5   5 -10   17.60    3.90
  -4  -5  10  142.79    9.10
   4  -5 -10  148.79    8.20
   4  -5 -10  151.28    6.30
   4  -5 -10  175.38   10.20
  -4  -5  10  145.89    7.40
   4   5 -10  142.99    8.30
  -4   5  10  163.08    9.30
  -4   5  10  152.88    7.40
  -4   5  10  150.48   10.40
   4   5 -10  152.18    8.10
   3  -5 -10    5.40    2.10
  -3  -5  10    4.40    3.50
  -3  -5  10   -2.60    2.20
   3  -5 -10    3.70    2.20
   3  -5 -10   -1.40    3.80
   3   5 -10    5.60    3.00
  -3   5  10    2.90    3.40
  -3   5  10    2.50    2.50
   3   5 -10   -2.80    2.50
  -3   5  10    6.30    4.10
  -2  -5  10   -2.30    2.20
  -2  -5  10    0.90    3.80
   2  -5 -10    2.80    1.90
   2  -5 -10    2.30    2.20
   2  -5 -10    6.60    3.60
  -2   5  10    0.30    4.10
  -2   5  10   -5.70    3.00
  -2   5  10    4.50    2.70
   2   5 -10   -3.40    2.10
   2   5 -10    2.40    2.40
  -1  -5  10    1.80    3.60
   1  -5 -10    7.00    3.50
   1  -5 -10    0.50    2.20
   1  -5 -10   -0.20    1.80
   1   5 -10    2.90    2.60
  -1   5  10    1.80    2.50
   1   5 -10   -1.20    2.40
  -1   5  10   -0.90    3.00
  -1   5  10   -4.80    4.10
   0  -5 -10   -2.70    1.90
   0  -5  10    1.30    3.60
   0  -5  10   -0.40    2.20
   0  -5 -10   -0.20    2.00
   0  -5 -10   -4.40    3.70
   0   5  10    2.30    2.40
   0   5  10    2.80    2.70
   0   5  10   -1.40    3.90
   0   5 -10    2.10    2.30
   0   5 -10   -1.40    2.30
  -1  -5 -10    1.90    2.10
  -1  -5 -10    0.20    1.90
   1  -5  10    2.30    2.20
  -1  -5 -10   -2.20    3.50
   1  -5  10    3.70    3.90
   1  -5  10    0.60    2.20
   1   5  10    6.50    4.00
  -1   5 -10    0.40    2.30
   1   5  10   -3.00    2.30
   1   5  10    2.70    2.80
  -1   5 -10    1.70    2.80
   2  -5  10   50.19    6.80
  -2  -5 -10   47.90    6.70
  -2  -5 -10   23.50    3.30
   2  -5  10   37.40    3.90
  -2  -5 -10   28.50    4.00
   2  -5  10   27.90    3.70
   2   5  10   29.50    5.20
   2   5  10   27.60    4.00
  -2   5 -10   33.00    4.30
  -2   5 -10   31.40    4.20
   3  -5  10   45.90    4.50
   3  -5  10   50.19    4.50
  -3  -5 -10   44.30    4.70
  -3  -5 -10   55.29    6.80
   3  -5  10   51.29    6.40
  -3   5 -10   51.29    4.50
   3   5  10   53.19    7.40
   3   5  10   44.80    4.80
   3   5  10   38.60    4.80
  -3   5 -10   51.39    4.70
  -4  -5 -10    0.40    3.60
  -4  -5 -10    1.70    2.20
   4  -5  10   -1.10    2.40
   4  -5  10    0.30    4.00
   4  -5  10    2.40    2.30
   4  -5  10    3.60    2.50
  -4   5 -10   -1.90    2.20
   4   5  10   -0.40    3.40
   4   5  10   -3.80    2.90
  -4   5 -10    6.60    2.50
  -4   5 -10    5.00    2.10
   4   5  10    5.20    2.80
  -5  -5 -10    6.10    2.70
   5  -5  10    2.00    2.20
   5  -5  10    3.50    4.30
   5  -5  10   -2.90    2.80
   5  -5  10    0.70    2.60
  -5  -5 -10   -3.30    4.20
  -5   5 -10    3.90    2.40
   5   5  10    2.80    3.00
   5   5  10    2.80    4.20
  -5   5 -10   -0.60    2.00
   5   5  10    2.20    2.70
  -5   5 -10    3.80    2.40
   6  -5  10   -8.10    4.80
  -6  -5 -10    1.30    3.70
   6  -5  10   -3.80    2.40
   6  -5  10    1.60    3.90
  -6  -5 -10   -2.80    2.80
  -6  -5 -10   -0.70    2.20
   6   5  10   -2.10    3.00
   6   5  10    0.00    4.00
  -6   5 -10   -1.40    2.00
   6   5  10    3.30    3.10
  -6   5 -10    0.20    2.60
  -6   5 -10    0.90    2.70
   7  -5  10    2.10    5.20
  -7  -5 -10   -0.30    2.40
   7  -5  10    3.40    2.60
  -7  -5 -10    2.00    2.70
  -7  -5 -10    4.20    3.60
   7  -5  10    7.70    4.30
   7  -5  10   -1.00    2.20
   7   5  10    6.70    3.50
  -7   5 -10   -0.10    2.70
  -7   5 -10   -0.60    3.40
  -7   5 -10    3.00    2.10
   7   5  10    4.00    5.20
  -8  -5 -10   34.40    4.40
   8  -5  10    8.10    5.60
   8  -5  10   21.50    3.30
   8  -5  10   31.00    5.60
  -8  -5 -10   39.60    4.70
   8  -5  10   25.50    3.90
   8   5  10   10.20    7.10
   8   5  10   20.40    4.00
   8   5  10   26.70    4.30
  -8   5 -10   25.00    3.40
   8   5  10   27.50    4.10
  -8   5 -10   42.80    6.40
  -1  -6  10   14.10    3.30
  -1  -6  10    7.00    5.70
   1  -6 -10   18.50    7.30
   1   6 -10   19.80    3.70
   0  -6 -10    1.00    3.00
   0  -6 -10   21.80    6.70
   0  -6  10    7.30    3.40
   0  -6  10    3.60    7.00
   0   6 -10    5.70    3.90
 -15   0  11   10.10    5.00
  15   0 -11   13.80    3.60
  15   0 -11   11.90    3.30
 -15   0  11    6.80    2.60
  14   0 -11    0.50    2.00
  14   0 -11   -0.20    2.50
 -14   0  11   -1.10    3.90
  13   0 -11  148.19    6.00
  13   0 -11  131.09    7.20
 -13   0  11  136.19    8.80
  13   0 -11  131.09    7.00
  12   0 -11    1.30    1.90
 -12   0  11   -1.80    2.50
  12   0 -11    3.10    1.90
  12   0 -11   -1.70    2.10
  11   0 -11   23.30    3.30
  11   0 -11   28.20    3.20
  11   0 -11   37.10    2.90
 -11   0  11   27.10    4.20
  10   0 -11    1.80    1.60
  10   0 -11    0.30    1.60
  10   0 -11   -0.50    1.90
 -10   0  11    0.10    2.00
   9   0 -11  101.49    5.20
   9   0 -11  108.99    4.60
   9   0 -11  103.69    5.30
  -9   0  11   85.79    5.80
   8   0 -11   -0.50    1.40
   8   0 -11    3.80    1.40
  -8   0  11    0.00    1.50
   8   0 -11   -0.40    1.20
  -7   0  11 1100.49   34.80
   7   0 -11 1129.49   34.10
   7   0 -11 1138.69   34.00
   6   0 -11   -0.40    1.00
  -6   0  11    1.70    1.30
   6   0 -11    1.90    1.10
   6   0 -11    0.20    1.30
  -5   0  11  185.68    7.60
   5   0 -11  196.38    7.00
   5   0 -11  194.38    7.10
   5   0 -11  189.88    7.10
  -4   0  11   -0.30    0.90
  -4   0  11    1.30    1.40
   4   0 -11    0.50    1.00
   4   0 -11   -0.20    0.90
   4   0 -11    0.80    1.10
  -3   0  11   85.99    4.70
  -3   0  11   87.19    4.20
   3   0 -11   91.79    3.80
   3   0 -11   95.49    3.80
  -2   0  11   -0.20    1.10
  -2   0  11    1.10    0.80
   2   0 -11    1.70    1.00
   2   0 -11    1.60    0.90
   1   0 -11   26.20    2.20
  -1   0  11   24.90    2.00
  -1   0  11   23.20    2.70
   1   0 -11   28.00    1.70
   0   0  11    3.30    0.90
   0   0 -11    0.60    0.80
   0   0  11    1.20    1.20
   0   0 -11    1.40    1.10
  -1   0 -11  798.52   22.50
   1   0  11  761.62   22.80
   1   0  11  750.22   24.00
   1   0  11  741.33   23.60
   1   0  11  796.12   22.80
  -1   0 -11  752.52   23.60
   2   0  11    0.20    1.00
  -2   0 -11   -1.00    1.10
   2   0  11    0.20    0.80
  -2   0 -11   -0.40    0.70
   2   0  11    2.00    1.20
   2   0  11    0.20    0.70
   3   0  11    6.20    1.20
   3   0  11    6.20    1.30
   3   0  11    7.30    1.10
  -3   0 -11    7.70    1.60
   3   0  11    5.60    1.30
  -3   0 -11    9.70    1.10
  -4   0 -11    0.40    0.80
   4   0  11   -0.80    0.90
   4   0  11    1.30    1.10
  -4   0 -11    0.00    1.10
   4   0  11   -0.20    0.60
   4   0  11   -0.10    1.00
   5   0  11  108.59    4.20
   5   0  11  112.39    5.70
  -5   0 -11  115.09    4.20
  -5   0 -11  106.39    5.10
   5   0  11  118.79    4.70
   5   0  11  112.09    5.20
   5   0  11  110.09    5.00
   6   0  11   -0.60    1.20
  -6   0 -11    0.70    1.00
  -6   0 -11   -0.30    1.20
   6   0  11   -0.60    1.10
   6   0  11    1.20    1.50
   6   0  11    1.20    1.40
   7   0  11  404.76   13.60
  -7   0 -11  416.26   12.90
   7   0  11  426.36   13.80
  -7   0 -11  390.76   14.10
   7   0  11  405.16   14.90
   7   0  11  400.26   14.10
   8   0  11    0.90    1.80
   8   0  11    0.50    1.30
   8   0  11   -0.10    1.40
  -8   0 -11   -1.10    1.30
   8   0  11    1.70    1.60
   9   0  11   78.19    4.50
   9   0  11   78.29    4.70
   9   0  11   84.79    6.20
  -9   0 -11   75.49    4.70
   9   0  11   80.09    4.80
  10   0  11    1.60    1.90
  10   0  11    0.40    1.80
 -10   0 -11    0.50    1.90
  10   0  11    1.60    2.10
  10   0  11   -2.40    2.40
 -11   0 -11  116.49    6.60
  11   0  11  132.39    8.30
  11   0  11  131.19    6.10
  11   0  11  111.59    6.20
  11   0  11  121.49    6.40
  12   0  11    1.20    2.30
  12   0  11   -2.30    2.40
  12   0  11   -0.90    1.90
  12   0  11   -0.30    3.60
 -12   0 -11   -0.90    1.50
  13   0  11    4.50    4.30
 -13   0 -11   11.30    2.90
  13   0  11    8.30    2.60
  13   0  11   14.40    3.00
  13   0  11    5.80    2.70
  14   0  11  -10.50    4.80
  14   0  11   -3.70    2.80
  14   0  11    4.50    3.00
 -14   0 -11    0.60    2.20
  14   0  11    4.30    2.60
  15  -1 -11    5.70    2.70
  15  -1 -11    3.50    2.90
 -15  -1  11    2.40    5.90
  15   1 -11    4.30    3.40
  15   1 -11    5.70    2.70
  15   1 -11   12.70    3.20
 -15   1  11    3.90    7.00
 -14  -1  11   -0.10    1.70
 -14  -1  11   -1.90    3.70
  14  -1 -11   -2.20    2.50
  14  -1 -11   -1.00    2.30
  14   1 -11    1.30    2.40
  14   1 -11    0.30    2.50
  14   1 -11   -0.80    2.70
 -14   1  11    2.20    4.20
 -13  -1  11    5.80    3.60
 -13  -1  11    5.20    1.80
  13  -1 -11    2.80    2.60
  13  -1 -11    5.00    2.50
  13   1 -11    5.00    2.20
  13   1 -11    3.60    2.60
 -13   1  11    7.10    3.20
  13   1 -11    1.80    2.30
 -12  -1  11   16.10    3.50
  12  -1 -11   13.40    2.40
 -12  -1  11   18.80    2.40
  12  -1 -11   19.00    3.10
 -12   1  11   13.30    3.40
  12   1 -11   16.00    3.10
  12   1 -11   16.60    3.00
  12   1 -11   16.50    2.80
  11  -1 -11    6.90    2.40
  11  -1 -11    3.20    1.80
 -11  -1  11    5.30    1.70
 -11   1  11    2.40    2.70
  11   1 -11   10.90    3.00
  11   1 -11    5.00    2.10
  11   1 -11    6.90    2.10
  10  -1 -11  160.68    7.40
 -10  -1  11  162.98    6.40
  10  -1 -11  149.29    7.00
  10   1 -11  171.08    7.10
 -10   1  11  156.48    8.40
  10   1 -11  160.48    7.70
  10   1 -11  157.08    7.20
   9  -1 -11   63.09    4.30
   9  -1 -11   62.89    4.00
   9  -1 -11   58.89    4.20
  -9  -1  11   62.89    3.50
   9   1 -11   64.59    4.00
   9   1 -11   60.19    4.00
   9   1 -11   61.29    4.40
  -9   1  11   60.49    5.00
  -8  -1  11  163.28    6.50
   8  -1 -11  156.38    6.50
   8  -1 -11  163.28    7.00
   8  -1 -11  162.58    7.00
   8   1 -11  158.28    6.70
   8   1 -11  160.98    6.70
  -8   1  11  155.28    7.90
   8   1 -11  156.18    7.20
   7  -1 -11   71.59    4.10
   7  -1 -11   78.99    3.80
  -7  -1  11   66.79    3.70
   7  -1 -11   67.69    4.20
   7   1 -11   66.09    4.00
   7   1 -11   70.79    3.80
  -7   1  11   70.49    4.80
   7   1 -11   67.49    4.20
   6  -1 -11   56.39    3.20
  -6  -1  11   55.19    3.30
   6  -1 -11   56.09    3.50
   6  -1 -11   56.29    3.80
   6   1 -11   58.09    3.50
  -6   1  11   61.19    4.30
   6   1 -11   54.89    3.60
   6   1 -11   59.49    3.30
  -5  -1  11   27.40    2.50
   5  -1 -11   33.70    3.00
   5  -1 -11   28.50    2.20
   5  -1 -11   33.30    2.50
  -5  -1  11   29.20    3.00
  -5   1  11   33.50    3.20
   5   1 -11   27.20    2.70
   5   1 -11   30.60    2.60
   5   1 -11   30.60    2.30
   4  -1 -11    2.70    1.20
  -4  -1  11    1.70    1.00
  -4  -1  11    0.40    1.20
   4  -1 -11    3.20    1.30
   4  -1 -11    1.50    1.10
   4   1 -11    3.40    1.30
   4   1 -11    3.40    1.10
   4   1 -11    1.70    1.30
  -4   1  11    1.90    1.70
  -4   1  11    0.40    1.20
  -3  -1  11   31.40    2.80
   3  -1 -11   36.90    2.00
  -3  -1  11   33.10    2.50
   3  -1 -11   35.80    2.50
  -3   1  11   31.60    3.20
   3   1 -11   32.00    2.10
   3   1 -11   36.20    2.60
   3   1 -11   32.50    2.50
  -3   1  11   35.20    3.00
  -2  -1  11   23.00    1.80
   2  -1 -11   24.30    2.10
  -2  -1  11   21.50    2.50
  -2  -1  11   20.60    2.30
  -2   1  11   23.40    2.70
   2   1 -11   23.50    1.60
   2   1 -11   22.50    2.20
  -2   1  11   23.20    2.40
   1  -1 -11 1411.76   42.10
   1  -1 -11 1416.56   41.40
  -1  -1  11 1384.66   41.80
  -1  -1  11 1393.36   41.90
  -1  -1  11 1385.46   40.90
   1   1 -11 1422.96   41.50
  -1   1  11 1377.86   41.90
   1   1 -11 1428.06   40.60
  -1   1  11 1419.96   42.70
   1   1 -11 1406.06   41.80
   0  -1 -11    2.90    1.10
   0  -1 -11    2.00    1.40
   0  -1  11    3.30    0.60
   0  -1  11    2.40    1.10
   0  -1  11    1.90    1.10
   0   1 -11    4.00    1.10
   0   1 -11    2.60    1.20
   0   1  11    2.10    1.20
   0   1  11    3.00    1.10
   0   1  11    2.70    1.40
   1  -1  11   11.90    1.70
   1  -1  11   12.00    1.80
   1  -1  11   13.60    2.00
  -1  -1 -11   16.90    1.80
  -1  -1 -11   11.70    1.80
   1   1  11   12.00    1.00
  -1   1 -11   13.80    1.80
   1   1  11   13.50    2.00
   1   1  11   13.80    1.90
  -1   1 -11   17.10    2.10
   1   1  11   13.70    2.00
   2  -1  11    5.70    1.30
   2  -1  11    7.40    1.50
  -2  -1 -11    7.20    1.70
   2  -1  11    7.40    1.40
  -2  -1 -11   10.50    1.50
   2   1  11    8.80    1.00
   2   1  11    9.00    1.80
   2   1  11    8.30    1.70
   2   1  11    8.30    1.60
  -2   1 -11   10.00    1.70
  -3  -1 -11  184.08    7.30
   3  -1  11  177.38    7.30
  -3  -1 -11  187.68    6.60
   3  -1  11  179.28    6.90
   3  -1  11  174.48    7.20
   3   1  11  183.68    7.20
   3   1  11  183.88    7.70
   3   1  11  183.78    6.90
  -3   1 -11  184.98    6.90
   3   1  11  185.48    6.00
   4  -1  11  128.39    6.00
  -4  -1 -11  126.59    5.00
   4  -1  11  128.29    5.80
  -4  -1 -11  127.59    5.70
   4  -1  11  129.59    5.40
   4   1  11  126.09    6.20
  -4   1 -11  126.09    5.50
   4   1  11  130.09    4.70
   4   1  11  124.29    5.70
   4   1  11  128.99    5.30
   5  -1  11   -0.30    1.10
   5  -1  11   -0.90    1.30
  -5  -1 -11    0.20    1.10
  -5  -1 -11    0.50    1.20
   5  -1  11    0.10    1.30
   5   1  11    0.30    1.40
  -5   1 -11    0.90    1.20
   5   1  11   -0.60    1.10
   5   1  11   -0.90    1.10
   5   1  11   -1.20    1.30
   5   1  11    0.70    1.20
  -6  -1 -11  290.97   11.00
  -6  -1 -11  309.27   10.30
   6  -1  11  294.57   10.70
   6  -1  11  307.87   11.60
   6  -1  11  296.17   10.90
  -6   1 -11  309.77    9.10
   6   1  11  308.07   11.60
  -6   1 -11  296.77   10.80
   6   1  11  310.47   10.50
   6   1  11  310.67   10.20
  -6   1 -11  303.57    9.30
   6   1  11  288.57   11.00
   6   1  11  286.27   10.40
   7  -1  11    1.70    1.90
  -7  -1 -11    1.80    1.20
   7  -1  11    1.90    1.50
  -7  -1 -11   -0.30    1.30
   7  -1  11    1.50    1.70
  -7   1 -11    0.80    0.90
   7   1  11    0.60    1.40
  -7   1 -11   -0.20    1.20
   7   1  11    2.10    1.90
   7   1  11    0.90    1.40
   7   1  11    3.10    1.60
   7   1  11    1.90    1.20
  -8  -1 -11   33.50    2.70
   8  -1  11   26.90    3.10
   8  -1  11   30.20    3.50
   8  -1  11   32.60    3.10
  -8  -1 -11   24.90    2.90
   8  -1  11   32.70    4.20
  -8   1 -11   33.10    3.00
   8   1  11   27.60    2.90
  -8   1 -11   27.20    2.40
   8   1  11   27.60    3.60
   8   1  11   28.00    2.70
   8   1  11   27.20    3.20
   8   1  11   29.50    3.00
   9  -1  11    2.50    2.00
  -9  -1 -11    3.10    1.50
   9  -1  11    6.40    1.90
   9  -1  11    2.90    2.70
   9  -1  11    2.50    1.80
  -9  -1 -11    0.80    1.50
   9   1  11    2.20    1.60
   9   1  11    0.80    2.10
   9   1  11   -0.30    2.10
   9   1  11   -0.40    1.70
  -9   1 -11    0.40    1.40
   9   1  11    1.30    1.30
  -9   1 -11    1.90    1.70
 -10  -1 -11    1.40    1.70
  10  -1  11   -0.60    2.60
  10  -1  11    2.00    2.00
 -10  -1 -11    1.30    1.80
  10  -1  11    0.60    2.10
  10  -1  11    2.50    1.90
  10   1  11    2.00    2.10
  10   1  11    7.30    3.00
 -10   1 -11    0.00    1.50
  10   1  11    4.90    1.60
 -10   1 -11    3.30    1.60
  10   1  11   -0.90    1.70
  11  -1  11    7.80    2.70
 -11  -1 -11   10.00    2.40
  11  -1  11   11.50    2.50
  11  -1  11    7.90    2.60
 -11  -1 -11   10.70    2.80
  11  -1  11   20.90    4.50
 -11   1 -11   10.00    2.60
  11   1  11    9.90    2.00
  11   1  11    9.80    2.80
 -11   1 -11   14.60    2.30
  11   1  11    1.80    3.30
  11   1  11    9.60    2.70
 -12  -1 -11   14.20    2.70
  12  -1  11   17.70    3.10
  12  -1  11   13.50    2.70
  12  -1  11   16.20    3.00
 -12  -1 -11   15.10    2.60
  12  -1  11   23.90    4.90
 -12   1 -11   14.30    2.60
 -12   1 -11   10.50    2.60
  12   1  11   18.00    2.50
  12   1  11   14.80    3.20
  12   1  11   16.90    3.10
  12   1  11   17.90    4.00
  13  -1  11    1.40    2.40
  13  -1  11    4.70    3.40
  13  -1  11   -5.80    5.20
 -13  -1 -11    0.40    2.60
 -13  -1 -11    4.10    2.20
  13  -1  11    0.90    2.60
 -13   1 -11   -0.10    2.10
  13   1  11    1.40    2.40
  13   1  11    5.90    2.60
 -13   1 -11    0.50    2.60
  13   1  11   -2.90    4.10
  14  -1  11   16.70    3.20
  14  -1  11   25.30    4.00
  14  -1  11   20.70    6.60
  14  -1  11   32.00    4.30
 -14  -1 -11   28.30    4.00
 -14  -1 -11   15.20    3.20
  14   1  11   15.20    5.50
 -14   1 -11   22.00    3.80
  14   1  11   18.80    3.70
  14   1  11   19.80    3.80
 -14   1 -11   16.90    3.50
  14  -2 -11   13.60    3.00
  14  -2 -11   12.00    3.60
 -14  -2  11    4.50    2.30
  14  -2 -11    9.20    3.30
  14   2 -11    9.00    3.30
 -14   2  11   14.10    5.20
  14   2 -11    6.00    3.00
  13  -2 -11    5.70    2.40
  13  -2 -11    1.40    2.30
  13  -2 -11    9.40    3.10
  13   2 -11   11.70    3.10
  13   2 -11    8.10    3.10
 -13   2  11    5.70    4.00
  12  -2 -11    4.80    2.80
 -12  -2  11    3.40    1.80
  12  -2 -11    0.70    2.30
  12  -2 -11    2.30    2.20
  12   2 -11    0.80    2.30
  12   2 -11    2.70    2.60
 -12   2  11    3.00    3.20
  11  -2 -11    8.10    2.30
  11  -2 -11   12.50    2.50
 -11  -2  11   15.70    2.30
  11  -2 -11   13.00    3.30
  11   2 -11   12.10    3.10
 -11   2  11    6.80    3.80
  11   2 -11   13.40    3.00
  10  -2 -11    7.80    2.20
 -10  -2  11    9.90    1.90
  10  -2 -11    6.60    2.00
  10  -2 -11    6.20    2.70
  10   2 -11    8.80    2.60
 -10   2  11    3.50    3.20
  10   2 -11    3.60    2.10
   9  -2 -11    1.20    2.10
   9  -2 -11    9.60    2.40
  -9  -2  11    2.10    1.50
   9  -2 -11    3.60    1.80
  -9   2  11    4.10    2.40
   9   2 -11    3.40    2.00
   9   2 -11    0.60    2.10
   8  -2 -11   73.99    5.20
   8  -2 -11   78.19    4.10
  -8  -2  11   78.39    4.20
   8  -2 -11   66.49    4.40
  -8   2  11   85.29    5.80
   8   2 -11   74.69    5.00
   8   2 -11   73.89    4.80
   7  -2 -11  859.11   27.20
   7  -2 -11  874.41   25.80
   7  -2 -11  800.22   26.80
  -7  -2  11  832.82   26.10
  -7   2  11  871.31   24.70
   7   2 -11  853.61   27.00
   7   2 -11  825.52   27.20
  -6  -2  11   -0.10    1.10
  -6  -2  11    0.90    1.50
   6  -2 -11   -1.20    1.20
   6  -2 -11   -1.60    1.60
   6  -2 -11   -0.10    1.20
   6   2 -11   -2.20    1.50
  -6   2  11   -0.30    1.20
  -6   2  11    1.20    1.60
   6   2 -11   -0.60    1.40
   5  -2 -11   21.00    2.80
   5  -2 -11   16.10    1.90
   5  -2 -11   19.60    2.40
  -5  -2  11   17.80    2.30
  -5  -2  11   17.00    2.50
  -5   2  11   18.80    3.20
  -5   2  11   19.50    2.00
   5   2 -11   19.20    2.80
  -5   2  11   13.00    2.40
   5   2 -11   18.30    2.40
   4  -2 -11   11.20    1.50
  -4  -2  11   13.00    2.00
   4  -2 -11   10.70    2.20
   4  -2 -11   13.30    1.90
  -4  -2  11   12.90    1.90
  -4   2  11   16.10    2.90
   4   2 -11   13.40    2.20
  -4   2  11   14.20    2.60
   4   2 -11   12.60    2.20
  -4   2  11   13.40    1.70
   3  -2 -11  116.99    5.50
   3  -2 -11  118.49    3.90
   3  -2 -11  120.49    6.10
  -3  -2  11  121.19    5.50
  -3  -2  11  117.49    5.00
  -3   2  11  114.19    6.20
   3   2 -11  122.19    5.70
  -3   2  11  119.99    4.80
   3   2 -11  120.09    5.70
  -3   2  11  122.39    6.50
  -2  -2  11  237.18    8.40
  -2  -2  11  234.68    9.10
   2  -2 -11  250.37    9.50
   2  -2 -11  243.98    8.90
  -2   2  11  241.88    8.40
  -2   2  11  239.38    9.60
  -2   2  11  237.98    9.80
   2   2 -11  235.28    9.10
   1  -2 -11   14.20    2.20
  -1  -2  11   16.60    2.30
  -1  -2  11   12.20    1.90
   1  -2 -11   10.90    1.70
  -1   2  11   13.80    1.90
   1   2 -11   11.00    2.00
  -1   2  11    8.80    2.00
  -1   2  11   14.30    2.50
   1   2 -11   15.40    1.80
   0  -2 -11   94.59    4.90
   0  -2  11   97.19    4.40
   0  -2 -11   99.29    5.10
   0  -2 -11  104.19    4.70
   0  -2  11  101.29    3.70
   0  -2  11  103.29    5.10
   0   2 -11  104.29    4.20
   0   2  11   99.89    5.40
   0   2  11   93.69    4.60
   0   2 -11  101.39    4.90
   0   2  11  100.59    5.30
  -1  -2 -11   13.50    2.20
   1  -2  11   10.90    1.90
   1  -2  11   12.80    2.00
  -1  -2 -11   13.00    2.10
  -1  -2 -11   12.60    2.00
   1  -2  11   10.70    1.30
  -1   2 -11    9.90    1.50
   1   2  11    8.50    1.90
   1   2  11   10.30    2.00
   1   2  11   11.00    1.80
  -1   2 -11    9.50    1.80
  -2  -2 -11   88.09    4.70
   2  -2  11   90.79    4.50
   2  -2  11   88.69    4.90
   2  -2  11   90.89    4.60
  -2  -2 -11   94.79    4.50
   2   2  11   87.49    4.60
   2   2  11   93.39    5.20
  -2   2 -11   94.29    4.10
  -2   2 -11   89.09    4.60
   2   2  11   87.69    5.10
  -3  -2 -11  119.39    5.30
  -3  -2 -11  118.69    5.60
   3  -2  11  116.59    5.50
   3  -2  11  120.79    6.00
   3  -2  11  118.19    5.50
  -3   2 -11  119.59    5.00
   3   2  11  117.89    5.60
  -3   2 -11  110.59    5.40
   3   2  11  121.69    5.90
   3   2  11  122.19    6.00
   3   2  11  120.59    4.20
   4  -2  11  164.58    7.00
  -4  -2 -11  160.48    7.00
   4  -2  11  165.48    7.40
  -4  -2 -11  166.18    6.70
   4  -2  11  168.98    7.10
   4   2  11  169.08    7.30
  -4   2 -11  169.78    6.50
   4   2  11  152.88    7.10
   4   2  11  162.68    5.80
   4   2  11  168.28    7.50
   5  -2  11  100.79    5.10
   5  -2  11  102.89    5.50
  -5  -2 -11   94.99    5.20
  -5  -2 -11   99.19    4.80
   5  -2  11  103.39    5.60
   5   2  11   92.49    5.20
   5   2  11   89.09    5.40
   5   2  11   94.49    4.10
  -5   2 -11  100.89    4.60
   5   2  11   89.79    5.20
  -6  -2 -11   15.40    2.40
   6  -2  11   13.50    2.40
   6  -2  11   18.30    2.80
  -6  -2 -11    8.60    2.00
   6  -2  11   15.70    2.60
   6   2  11   10.60    2.50
   6   2  11   13.80    2.30
   6   2  11   14.30    2.60
  -6   2 -11   10.40    1.70
   6   2  11   17.60    2.30
   7  -2  11    3.40    1.70
   7  -2  11    5.90    2.10
   7  -2  11    2.10    2.10
  -7  -2 -11    4.70    2.10
  -7  -2 -11    4.80    1.80
   7   2  11    4.20    1.80
  -7   2 -11    3.80    0.90
   7   2  11    3.50    2.10
   7   2  11    2.20    1.90
   7   2  11    2.30    2.00
  -7   2 -11    2.30    1.40
   8  -2  11    7.10    2.70
   8  -2  11    2.00    1.90
   8  -2  11    0.70    2.10
  -8  -2 -11    0.80    1.80
  -8  -2 -11    4.90    1.90
  -8   2 -11    1.50    1.60
   8   2  11    5.80    2.40
   8   2  11    3.20    1.80
   8   2  11    1.10    1.60
  -8   2 -11    6.00    1.50
   8   2  11    2.90    2.30
   8   2  11    2.50    2.00
  -9  -2 -11   45.10    3.80
   9  -2  11   52.69    4.30
  -9  -2 -11   47.10    4.00
   9  -2  11   61.59    5.20
   9  -2  11   57.89    5.70
  -9   2 -11   57.19    3.50
   9   2  11   43.30    4.50
   9   2  11   51.69    3.70
   9   2  11   54.39    3.50
   9   2  11   50.09    4.70
   9   2  11   48.70    5.80
  -9   2 -11   54.79    4.10
  10  -2  11    1.00    2.10
  10  -2  11    2.10    2.00
 -10  -2 -11    0.20    1.80
  10  -2  11    0.60    3.20
 -10  -2 -11    0.30    2.10
  10  -2  11   -1.30    2.60
 -10   2 -11    3.10    1.70
  10   2  11    2.40    2.10
  10   2  11    3.10    1.60
  10   2  11    0.10    2.20
 -10   2 -11    0.70    1.70
  10   2  11    1.90    3.00
  10   2  11    3.90    2.50
 -11  -2 -11    5.20    2.20
  11  -2  11    4.90    3.20
  11  -2  11    8.00    2.50
  11  -2  11    2.70    2.30
  11  -2  11   10.50    4.00
 -11  -2 -11   10.40    2.40
  11   2  11   15.60    4.20
 -11   2 -11    8.70    2.30
  11   2  11   12.50    1.90
  11   2  11   12.10    2.70
 -11   2 -11    8.20    2.30
  11   2  11    2.10    2.40
  11   2  11    8.20    3.20
  12  -2  11   -3.80    2.00
  12  -2  11    1.80    2.50
  12  -2  11    2.80    3.90
 -12  -2 -11    1.40    2.10
 -12  -2 -11   -0.40    2.20
  12  -2  11    1.20    4.30
  12   2  11    4.00    4.40
 -12   2 -11   -0.90    2.30
  12   2  11   -1.00    1.80
  12   2  11    3.30    2.60
  12   2  11    3.70    2.60
  12   2  11    4.00    3.20
 -12   2 -11    1.10    1.90
  13  -2  11    1.70    3.70
  13  -2  11    5.00    2.70
 -13  -2 -11    2.40    2.50
  13  -2  11    8.80    5.30
  13  -2  11    1.30    2.50
 -13  -2 -11    2.20    2.40
 -13   2 -11    4.40    2.20
  13   2  11    0.30    2.80
  13   2  11   -1.70    2.40
 -13   2 -11    6.60    3.00
  13   2  11   -1.30    4.50
 -13  -3  11    1.70    2.30
  13  -3 -11    1.90    2.40
  13  -3 -11   -2.00    2.40
  13   3 -11   -3.50    2.80
  13   3 -11    1.80    3.60
 -13   3  11   -1.60    5.80
  12  -3 -11   27.50    4.70
 -12  -3  11   28.90    3.00
  12  -3 -11   24.20    4.00
  12  -3 -11   23.90    3.20
 -12  -3  11   24.30    3.30
  12   3 -11   20.50    4.50
  12   3 -11   25.50    4.10
 -12   3  11   27.50    6.30
 -11  -3  11   -0.60    2.10
  11  -3 -11   -0.60    3.10
  11  -3 -11    5.90    2.10
  11  -3 -11    2.20    1.80
 -11  -3  11   -1.60    2.10
  11   3 -11   -1.40    2.90
 -11   3  11   -1.20    4.00
  11   3 -11    1.90    2.50
  10  -3 -11   81.89    6.90
 -10  -3  11   74.99    4.80
 -10  -3  11   77.49    4.50
  10  -3 -11   70.39    5.10
  10  -3 -11   72.79    4.70
  10   3 -11   77.39    5.60
  10   3 -11   77.99    5.90
 -10   3  11   77.99    7.90
   9  -3 -11    3.90    2.70
  -9  -3  11    1.40    2.10
   9  -3 -11   -0.20    1.90
  -9  -3  11    2.60    1.90
   9  -3 -11    2.30    1.90
  -9  -3  11    0.00    2.30
   9   3 -11    5.40    2.80
  -9   3  11    2.00    3.20
   9   3 -11    0.20    2.10
  -8  -3  11   30.30    3.70
  -8  -3  11   32.30    3.80
   8  -3 -11   32.40    4.70
   8  -3 -11   33.00    3.50
   8  -3 -11   33.30    2.90
   8   3 -11   32.40    4.10
   8   3 -11   33.30    3.80
  -8   3  11   28.10    4.20
  -7  -3  11   20.90    2.70
   7  -3 -11   21.80    3.60
   7  -3 -11   25.30    2.50
   7  -3 -11   21.10    3.10
  -7  -3  11   20.80    2.80
   7   3 -11   17.60    3.00
  -7   3  11   20.50    3.70
   7   3 -11   21.40    3.70
  -6  -3  11   21.90    2.80
  -6  -3  11   18.60    2.40
   6  -3 -11   17.20    2.00
   6  -3 -11   16.20    2.70
   6  -3 -11   15.20    2.90
  -6   3  11   19.40    3.70
   6   3 -11   15.20    2.90
  -6   3  11   17.40    2.40
  -6   3  11   17.20    3.30
   6   3 -11   21.50    3.40
   5  -3 -11   41.90    3.70
   5  -3 -11   46.10    2.70
   5  -3 -11   43.40    4.70
  -5  -3  11   43.00    4.00
  -5  -3  11   40.90    2.60
   5   3 -11   43.00    3.50
   5   3 -11   45.90    4.00
  -5   3  11   47.60    3.10
  -5   3  11   36.00    4.90
  -5   3  11   44.30    4.90
   5   3 -11   41.30    3.90
   4  -3 -11  168.68    7.70
  -4  -3  11  171.88    6.10
  -4  -3  11  174.48    7.80
   4  -3 -11  184.18    8.60
   4  -3 -11  187.78    6.10
  -4   3  11  188.08    8.90
   4   3 -11  176.78    8.00
   4   3 -11  177.18    7.30
  -4   3  11  180.48    6.90
  -4   3  11  175.28    8.80
  -3  -3  11  187.28    8.10
   3  -3 -11  190.98    6.00
   3  -3 -11  175.38    7.80
  -3  -3  11  176.28    6.10
   3  -3 -11  172.68    8.40
  -3  -3  11  174.08    7.00
   3   3 -11  178.08    8.00
  -3   3  11  191.78    9.00
   3   3 -11  184.78    7.20
  -3   3  11  189.38    8.80
  -3   3  11  189.68    7.20
   2  -3 -11   94.49    3.20
  -2  -3  11   90.99    3.60
  -2  -3  11   86.79    5.40
   2  -3 -11   93.99    5.80
  -2  -3  11   93.99    4.30
   2  -3 -11   94.29    5.20
   2   3 -11   91.49    5.30
  -2   3  11  102.79    6.10
  -2   3  11   91.69    5.90
   2   3 -11   92.29    4.40
  -2   3  11   96.09    4.70
  -1  -3  11  422.16   15.00
   1  -3 -11  431.16   15.10
   1  -3 -11  415.16   14.60
  -1  -3  11  412.46   13.00
  -1  -3  11  420.86   13.40
   1   3 -11  401.56   14.70
  -1   3  11  409.96   14.10
  -1   3  11  428.66   15.40
  -1   3  11  425.36   15.70
   1   3 -11  422.26   13.60
   0  -3  11    0.30    1.00
   0  -3  11    1.10    1.40
   0  -3  11   -2.80    1.50
   0  -3 -11   -0.90    1.80
   0  -3 -11   -1.00    1.40
   0   3 -11    0.50    1.00
   0   3  11    2.20    1.80
   0   3  11   -2.00    1.30
   0   3 -11   -1.10    1.50
   0   3  11    1.40    1.90
   0   3 -11    0.30    1.10
   1  -3  11   66.89    4.80
  -1  -3 -11   60.89    4.20
   1  -3  11   63.39    3.50
  -1  -3 -11   58.99    4.20
  -1  -3 -11   74.09    5.00
   1  -3  11   63.09    3.20
  -1   3 -11   67.99    3.30
   1   3  11   61.89    4.20
   1   3  11   62.19    5.20
   1   3  11   71.49    4.80
  -1   3 -11   64.19    3.20
  -1   3 -11   61.29    4.10
   2  -3  11  174.68    6.80
  -2  -3 -11  173.28    7.70
   2  -3  11  173.98    6.00
  -2  -3 -11  167.38    7.40
   2  -3  11  170.58    7.60
  -2  -3 -11  160.88    7.30
   2  -3  11  180.28    8.30
   2   3  11  165.98    8.20
  -2   3 -11  179.88    6.10
  -2   3 -11  178.18    6.40
   2   3  11  161.08    7.40
   2   3  11  178.28    7.90
  -2   3 -11  167.18    7.40
  -3  -3 -11   14.20    2.60
  -3  -3 -11   14.80    2.60
   3  -3  11   13.50    1.90
   3  -3  11   16.50    2.30
   3  -3  11   16.00    2.70
  -3  -3 -11   13.00    2.30
   3  -3  11   18.20    3.20
  -3   3 -11   13.50    2.40
  -3   3 -11   11.70    1.80
   3   3  11   12.20    2.90
   3   3  11   13.80    2.80
   3   3  11   11.30    2.40
  -3   3 -11   17.70    2.10
   4  -3  11   21.10    3.10
  -4  -3 -11   16.00    2.40
   4  -3  11   26.50    3.10
   4  -3  11   19.40    1.90
  -4  -3 -11   17.40    2.60
   4  -3  11   27.30    3.70
  -4  -3 -11   21.50    3.00
   4   3  11   20.30    2.50
   4   3  11   15.50    3.00
  -4   3 -11   19.00    2.40
  -4   3 -11   20.70    1.80
   4   3  11   13.60    2.70
   4   3  11   22.40    3.20
  -4   3 -11   22.00    2.90
   5  -3  11  317.77   12.00
   5  -3  11  336.27   13.00
  -5  -3 -11  332.67   12.20
   5  -3  11  336.37   10.00
   5  -3  11  319.67   12.20
  -5  -3 -11  329.47   12.10
  -5   3 -11  322.37   11.80
   5   3  11  322.47   12.50
   5   3  11  339.37   12.60
   5   3  11  336.67   10.80
   5   3  11  270.47   12.20
  -5   3 -11  326.17   10.20
  -5   3 -11  315.97   11.20
   6  -3  11   33.40    3.30
  -6  -3 -11   30.30    3.60
   6  -3  11   28.80    3.90
  -6  -3 -11   35.90    3.60
   6  -3  11   31.60    4.30
   6  -3  11   34.50    2.40
   6   3  11   25.70    3.70
   6   3  11   35.30    3.20
  -6   3 -11   27.90    2.80
  -6   3 -11   33.30    2.40
   6   3  11   28.80    4.20
   7  -3  11    1.00    2.60
  -7  -3 -11    0.50    1.80
  -7  -3 -11    2.70    2.10
   7  -3  11   -0.30    1.60
   7  -3  11    2.20    1.90
   7  -3  11    3.90    2.70
  -7   3 -11    2.20    1.40
   7   3  11    0.70    2.70
   7   3  11    1.20    2.30
   7   3  11   -1.60    1.70
  -7   3 -11    3.20    1.40
   7   3  11    1.90    2.10
  -8  -3 -11  138.59    6.90
   8  -3  11  114.79    6.60
   8  -3  11  133.79    7.80
   8  -3  11  129.69    5.10
  -8  -3 -11  142.29    7.00
   8  -3  11  131.99    7.80
   8   3  11  125.69    6.00
   8   3  11  131.09    7.30
   8   3  11  129.79    7.80
  -8   3 -11  126.99    6.30
   8   3  11  128.39    7.50
  -8   3 -11  132.29    5.40
  -9  -3 -11    0.20    2.10
   9  -3  11    6.50    3.00
  -9  -3 -11    0.40    2.20
   9  -3  11   -4.30    1.90
   9  -3  11    0.90    3.30
   9  -3  11   -0.50    2.00
  -9   3 -11    1.70    1.70
   9   3  11    1.30    2.10
   9   3  11    2.20    2.80
  -9   3 -11    1.00    1.70
   9   3  11   -1.40    2.50
   9   3  11    5.70    3.40
 -10  -3 -11    1.10    2.40
  10  -3  11    0.70    2.00
  10  -3  11    1.70    3.80
  10  -3  11    1.60    2.20
 -10  -3 -11    4.00    2.30
  10  -3  11   -1.80    3.90
 -10   3 -11   -0.50    2.10
  10   3  11    0.70    2.70
  10   3  11   -4.80    3.30
  10   3  11   -2.70    2.30
  10   3  11    0.90    2.10
  10   3  11   -2.80    3.30
 -10   3 -11    1.30    2.10
 -11  -3 -11    2.20    2.20
  11  -3  11    6.20    2.40
  11  -3  11    3.60    2.80
  11  -3  11    0.70    3.80
 -11  -3 -11    2.90    2.60
  11  -3  11    2.10    4.80
  11  -3  11    6.70    2.60
  11   3  11    6.80    3.00
  11   3  11    3.10    1.90
  11   3  11   -1.10    2.80
  11   3  11    4.40    3.70
 -11   3 -11    3.30    2.10
 -11   3 -11    7.20    2.70
  11   3  11    6.00    4.00
  12  -3  11    6.00    4.80
  12  -3  11    6.40    2.70
 -12  -3 -11    5.60    2.90
 -12  -3 -11    8.30    3.10
  12  -3  11    7.70    5.60
  12  -3  11    7.70    2.80
  12  -3  11    5.90    2.90
  12   3  11    3.90    2.70
  12   3  11    7.60    4.20
  12   3  11    1.30    4.80
 -12   3 -11    8.30    3.30
  12   3  11    5.20    2.90
 -12   3 -11    5.50    2.30
 -11  -4  11   14.80    3.10
  11  -4 -11    5.10    5.00
 -11  -4  11    3.80    3.40
  11  -4 -11    8.40    2.80
  11  -4 -11    6.60    2.50
  11   4 -11    0.00    2.90
 -11   4  11    8.30    7.00
  11   4 -11    8.90    3.20
  10  -4 -11    0.90    4.30
  10  -4 -11    2.20    2.10
  10  -4 -11    2.90    2.40
 -10  -4  11    7.50    3.00
  10   4 -11    2.20    2.60
 -10   4  11   -0.20    5.00
  10   4 -11    1.50    2.90
   9  -4 -11   -6.20    3.90
   9  -4 -11    1.20    2.10
   9  -4 -11   -1.40    2.20
  -9  -4  11   -0.40    2.90
  -9   4  11   -0.10    4.20
   9   4 -11    2.60    2.80
   9   4 -11    1.40    2.80
   8  -4 -11   30.70    3.20
  -8  -4  11   39.10    4.90
   8  -4 -11   34.70    4.10
   8  -4 -11   33.50    5.30
   8   4 -11   29.70    4.60
  -8   4  11   30.50    5.80
   8   4 -11   43.30    4.50
   7  -4 -11   69.09    5.10
  -7  -4  11   67.99    4.80
   7  -4 -11   64.99    6.60
  -7  -4  11   67.29    5.80
   7  -4 -11   77.89    4.10
  -7   4  11   86.29    7.90
  -7   4  11   74.79    7.90
   7   4 -11   76.69    5.80
   7   4 -11   65.99    5.40
   7   4 -11   78.29    5.80
   6  -4 -11   87.29    5.90
  -6  -4  11   82.79    6.20
  -6  -4  11   95.19    5.50
   6  -4 -11   99.29    7.50
   6  -4 -11   89.29    4.40
  -6   4  11  105.79    8.30
  -6   4  11   99.99    8.10
   6   4 -11   86.39    6.10
  -6   4  11   92.69    4.70
   6   4 -11   98.79    6.10
  -5  -4  11  215.78    9.30
  -5  -4  11  240.88   10.40
   5  -4 -11  247.38   11.30
   5  -4 -11  242.38    8.20
   5  -4 -11  219.48   10.10
  -5   4  11  248.58   11.50
   5   4 -11  247.28   10.00
   5   4 -11  208.48   10.30
  -5   4  11  234.58    8.60
  -5   4  11  239.68   11.90
  -4  -4  11   30.80    3.30
   4  -4 -11   42.40    5.90
   4  -4 -11   36.30    2.60
  -4  -4  11   31.80    4.80
   4  -4 -11   36.40    4.00
  -4   4  11   44.20    5.80
  -4   4  11   31.10    3.70
  -4   4  11   34.40    4.70
   4   4 -11   38.90    3.90
   4   4 -11   31.50    3.70
  -3  -4  11    8.30    2.70
   3  -4 -11    8.00    1.50
  -3  -4  11    7.20    2.10
   3  -4 -11    7.70    2.20
   3  -4 -11    6.70    3.30
  -3   4  11    8.60    2.20
   3   4 -11    6.60    2.40
   3   4 -11    6.80    2.20
  -3   4  11    3.30    2.50
  -3   4  11   10.80    2.70
   2  -4 -11   22.30    2.10
  -2  -4  11   23.80    3.60
  -2  -4  11   23.80    3.10
   2  -4 -11   36.30    3.80
   2  -4 -11   21.70    3.60
   2   4 -11   25.00    3.40
  -2   4  11   24.70    3.30
   2   4 -11   28.00    3.20
  -2   4  11   20.00    3.00
  -2   4  11   21.70    3.40
   1  -4 -11   41.20    5.30
   1  -4 -11   31.30    2.30
  -1  -4  11   35.90    3.30
  -1  -4  11   32.70    4.90
   1  -4 -11   31.30    3.70
   1   4 -11   28.50    3.60
  -1   4  11   28.80    3.50
  -1   4  11   41.20    5.50
   1   4 -11   28.40    3.30
  -1   4  11   34.10    4.50
   0  -4 -11  113.49    4.30
   0  -4  11  129.99    7.70
   0  -4 -11  119.29    7.40
   0  -4  11  110.39    5.30
   0  -4 -11  120.09    6.50
   0   4 -11  117.89    6.50
   0   4 -11  121.19    5.50
   0   4  11  121.49    7.00
   0   4  11  110.69    6.20
   0   4  11  111.29    7.50
  -1  -4 -11   16.50    1.80
   1  -4  11   17.00    2.60
   1  -4  11    8.60    2.60
  -1  -4 -11   16.80    3.20
   1  -4  11   14.90    1.80
  -1  -4 -11   10.90    2.70
   1  -4  11   13.80    3.60
   1   4  11    9.30    2.40
  -1   4 -11   15.90    2.10
   1   4  11   17.30    3.80
   1   4  11   16.00    3.00
  -1   4 -11   15.30    3.10
  -1   4 -11   15.50    2.20
  -2  -4 -11   10.50    1.70
   2  -4  11    7.30    2.50
  -2  -4 -11    6.10    2.60
   2  -4  11    8.10    2.00
  -2  -4 -11    7.90    2.70
   2  -4  11    7.90    2.00
   2  -4  11   13.20    3.30
  -2   4 -11    6.30    2.30
  -2   4 -11    9.00    1.90
   2   4  11    8.90    2.40
   2   4  11    6.10    3.00
  -2   4 -11   11.40    1.70
   2   4  11    8.40    2.70
   3  -4  11    2.90    2.30
  -3  -4 -11    2.00    1.80
  -3  -4 -11   -2.20    2.00
   3  -4  11    1.00    1.90
  -3  -4 -11   -1.20    2.70
   3  -4  11    1.70    2.80
   3  -4  11    4.60    2.00
   3   4  11   -0.40    2.00
  -3   4 -11    0.20    1.40
  -3   4 -11    0.20    1.50
   3   4  11    0.20    2.30
   3   4  11   -3.40    3.00
  -3   4 -11   -1.50    1.90
  -4  -4 -11   36.60    4.60
  -4  -4 -11   35.60    3.70
   4  -4  11   34.10    3.30
   4  -4  11   39.00    4.30
   4  -4  11   37.90    3.90
   4  -4  11   48.20    5.80
  -4  -4 -11   35.00    3.90
   4   4  11   34.70    4.70
  -4   4 -11   38.20    2.90
   4   4  11   35.20    5.60
  -4   4 -11   35.50    3.70
   4   4  11   40.10    4.10
  -4   4 -11   34.10    3.10
  -5  -4 -11   27.20    3.60
   5  -4  11   28.50    4.70
   5  -4  11   26.50    3.60
   5  -4  11   27.90    4.00
  -5  -4 -11   23.30    3.40
  -5  -4 -11   28.90    3.70
   5  -4  11   29.00    3.00
  -5   4 -11   32.90    2.90
  -5   4 -11   25.90    3.60
   5   4  11   30.00    4.70
   5   4  11   25.30    3.70
   5   4  11   20.10    3.40
   6  -4  11   -1.60    3.10
   6  -4  11    4.00    3.20
   6  -4  11    4.00    2.70
   6  -4  11    1.80    2.00
  -6  -4 -11    4.00    2.20
  -6  -4 -11    4.70    2.70
  -6   4 -11    5.00    1.90
   6   4  11    4.50    2.40
   6   4  11    4.10    2.50
   6   4  11    6.80    2.80
   6   4  11    2.50    2.70
  -6   4 -11    9.00    1.90
  -6   4 -11    5.00    2.30
  -7  -4 -11   83.19    5.50
  -7  -4 -11   75.89    5.70
   7  -4  11   72.89    5.60
   7  -4  11   89.19    7.10
   7  -4  11   87.89    8.30
   7  -4  11   80.79    4.30
  -7   4 -11   88.29    4.80
   7   4  11   97.29    6.70
   7   4  11   73.99    5.90
   7   4  11   86.79    5.30
  -7   4 -11   84.89    4.80
   7   4  11   89.49    8.00
   8  -4  11   27.10    3.50
   8  -4  11   19.50    4.00
  -8  -4 -11   28.90    4.20
   8  -4  11   21.90    4.90
  -8  -4 -11   21.50    3.40
   8  -4  11   23.00    4.60
   8   4  11   25.30    3.50
   8   4  11   12.60    3.10
   8   4  11   18.90    3.90
  -8   4 -11   27.20    3.20
  -8   4 -11   18.90    2.90
   8   4  11   27.70    5.10
   9  -4  11    8.30    4.60
  -9  -4 -11   13.20    3.20
   9  -4  11    7.50    2.80
   9  -4  11    9.40    4.50
  -9  -4 -11   12.80    3.10
   9  -4  11   12.20    2.70
   9   4  11    1.70    3.90
  -9   4 -11    9.60    2.80
   9   4  11    4.80    4.60
   9   4  11   14.00    3.30
   9   4  11   11.50    3.50
  -9   4 -11    9.80    2.60
  10  -4  11   11.40    6.00
 -10  -4 -11   10.70    3.20
 -10  -4 -11   16.40    3.60
  10  -4  11   11.80    5.40
  10  -4  11   15.80    3.70
  10   4  11    7.70    3.60
  10   4  11   12.90    4.40
  10   4  11   19.50    5.20
 -10   4 -11   13.00    2.90
  10   4  11   11.70    3.60
 -10   4 -11   19.60    3.30
  -8  -5  11    1.20    4.30
   8  -5 -11    2.50    2.50
   8  -5 -11    4.40    6.00
  -8  -5  11    0.30    2.30
   8  -5 -11   -0.40    2.40
   8   5 -11    5.20    3.60
   8   5 -11   -3.50    2.60
  -8   5  11  -11.60    6.30
  -7  -5  11    6.90    2.80
   7  -5 -11   11.30    5.00
   7  -5 -11    8.80    2.50
  -7  -5  11    3.50    4.10
   7  -5 -11   10.10    3.30
  -7   5  11   -0.50    5.20
  -7   5  11    8.20    4.70
   7   5 -11    5.10    2.90
   7   5 -11    9.50    3.70
  -6  -5  11    3.50    4.00
   6  -5 -11    8.60    4.40
   6  -5 -11    5.30    2.20
   6  -5 -11    3.20    2.20
  -6  -5  11    2.10    2.80
  -6   5  11    6.70    4.70
   6   5 -11   -1.10    2.40
   6   5 -11    4.60    3.10
  -6   5  11    5.60    4.30
  -6   5  11    0.00    2.90
  -5  -5  11    2.40    2.80
   5  -5 -11   -3.80    2.00
  -5  -5  11   -4.90    3.70
   5  -5 -11    0.50    4.20
   5  -5 -11    0.00    2.50
  -5   5  11    3.00    4.20
   5   5 -11    4.00    2.70
  -5   5  11   11.10    4.30
   5   5 -11    2.70    2.80
  -5   5  11    0.80    3.00
   4  -5 -11  268.37   13.10
  -4  -5  11  244.98   10.30
   4  -5 -11  251.97    9.00
  -4  -5  11  257.17   12.50
   4  -5 -11  229.28   11.20
  -4   5  11  249.68   13.50
   4   5 -11  259.87   11.00
  -4   5  11  256.57   10.10
   4   5 -11  239.48   11.30
  -4   5  11  266.57   12.30
   3  -5 -11   37.40    4.50
   3  -5 -11   38.30    5.50
   3  -5 -11   38.00    3.20
  -3  -5  11   47.80    5.60
  -3  -5  11   39.30    4.60
  -3   5  11   48.90    6.70
   3   5 -11   50.39    5.00
  -3   5  11   39.30    4.50
   3   5 -11   47.40    4.70
  -3   5  11   50.09    8.00
   2  -5 -11    1.40    2.00
  -2  -5  11    3.00    3.80
  -2  -5  11    3.50    2.50
   2  -5 -11    5.60    3.00
   2  -5 -11   -0.40    4.10
   2   5 -11    0.00    2.50
   2   5 -11    1.60    2.60
  -2   5  11    8.80    4.80
  -2   5  11    1.40    3.20
  -2   5  11    3.50    2.80
   1  -5 -11   12.90    4.10
  -1  -5  11   11.80    4.10
   1  -5 -11   10.20    2.60
   1  -5 -11   11.90    2.30
  -1  -5  11    7.80    2.50
  -1   5  11   10.40    3.10
  -1   5  11    5.80    4.90
   1   5 -11   10.60    2.40
   1   5 -11    6.00    2.70
  -1   5  11    5.30    3.30
   0  -5 -11    0.00    1.90
   0  -5  11    1.00    2.30
   0  -5 -11    0.10    4.00
   0  -5  11   -2.80    3.60
   0  -5 -11   -0.40    2.00
   0   5 -11    2.20    2.50
   0   5  11    7.30    3.90
   0   5  11    5.60    3.10
   0   5  11    1.00    2.70
   0   5 -11    6.40    2.40
   1  -5  11    4.20    4.00
  -1  -5 -11    1.10    2.00
  -1  -5 -11   -4.60    3.90
   1  -5  11    0.90    2.40
   1  -5  11   -1.50    2.40
  -1  -5 -11    0.90    2.50
  -1   5 -11    1.10    2.20
   1   5  11    5.60    3.00
   1   5  11    1.10    2.70
   1   5  11    0.90    4.40
  -1   5 -11    3.10    2.30
   2  -5  11   -0.80    2.60
   2  -5  11    3.60    4.10
   2  -5  11    1.40    2.20
  -2  -5 -11    5.80    2.20
  -2  -5 -11    4.20    3.60
  -2  -5 -11    1.00    2.60
   2   5  11    5.70    2.80
  -2   5 -11    3.30    2.50
   2   5  11    9.20    4.90
   2   5  11    6.80    3.40
  -2   5 -11    1.10    2.30
  -3  -5 -11    1.40    2.30
   3  -5  11   -0.30    2.50
   3  -5  11    0.00    4.00
   3  -5  11    1.60    2.40
  -3  -5 -11    4.50    4.20
  -3   5 -11    3.80    2.30
   3   5  11    4.90    3.00
   3   5  11    1.60    4.00
  -3   5 -11    3.00    2.50
   3   5  11    0.80    2.70
   4  -5  11    5.50    4.30
  -4  -5 -11   12.30    4.60
  -4  -5 -11    6.30    2.50
   4  -5  11    7.20    2.60
   4  -5  11    8.90    2.90
   4  -5  11   17.50    2.90
   4   5  11    9.20    3.30
   4   5  11   12.00    3.40
  -4   5 -11   11.60    2.40
   4   5  11    9.70    4.40
  -4   5 -11    9.20    2.80
  -4   5 -11   12.80    2.60
   5  -5  11   37.90    5.60
  -5  -5 -11   34.60    4.80
  -5  -5 -11   30.40    4.00
   5  -5  11   36.50    6.00
   5  -5  11   29.00    3.90
   5   5  11   30.80    4.20
  -5   5 -11   31.30    4.20
  -5   5 -11   33.20    3.40
  -5   5 -11   32.20    4.40
   5   5  11   38.80    6.20
   5   5  11   24.10    4.00
   6  -5  11    1.70    2.60
  -6  -5 -11    2.70    3.90
  -6  -5 -11    1.20    2.90
   6  -5  11   -1.10    3.70
   6  -5  11   -1.80    2.70
  -6  -5 -11   -0.40    2.60
   6  -5  11   -0.30    5.00
   6   5  11    1.70    3.30
   6   5  11    1.30    5.00
  -6   5 -11   -2.60    2.10
  -6   5 -11    1.60    2.60
   6   5  11    2.40    3.00
  -6   5 -11    2.10    2.60
   7  -5  11    8.20    7.20
  -7  -5 -11   16.00    3.60
   7  -5  11   15.80    3.40
   7  -5  11   17.80    4.70
  -7  -5 -11   17.60    3.30
   7  -5  11   17.50    3.80
   7   5  11   22.30    4.30
  -7   5 -11   26.10    3.60
   7   5  11   18.90    3.90
   7   5  11   18.40    6.30
  -7   5 -11   19.00    3.00
 -15   0  12    1.30    2.60
 -15   0  12   -2.30    6.80
  15   0 -12   -1.60    1.80
  15   0 -12    6.30    3.40
 -14   0  12   11.20    4.30
  14   0 -12    7.90    2.60
  14   0 -12   13.50    2.70
  14   0 -12   12.00    3.20
  13   0 -12    4.80    2.40
  13   0 -12    1.40    2.30
 -13   0  12    5.10    3.80
  13   0 -12   -0.10    2.10
  12   0 -12   88.19    5.60
  12   0 -12   90.79    4.60
 -12   0  12   92.29    7.40
  12   0 -12   87.79    5.50
 -11   0  12   -1.50    2.70
  11   0 -12    0.10    2.00
  11   0 -12   -2.40    1.70
  11   0 -12    0.90    1.90
  10   0 -12  108.09    5.70
 -10   0  12   99.19    6.70
  10   0 -12  100.79    5.50
  10   0 -12  108.39    4.90
  -9   0  12    2.50    1.90
   9   0 -12    0.10    1.50
   9   0 -12   -1.00    1.50
   9   0 -12    1.20    1.50
   8   0 -12   26.50    2.80
   8   0 -12   27.00    2.90
  -8   0  12   26.50    3.60
   8   0 -12   27.20    2.50
   7   0 -12   -0.80    1.40
   7   0 -12   -0.70    1.10
  -7   0  12    0.70    1.40
   7   0 -12    0.50    1.20
   6   0 -12 1473.55   42.90
   6   0 -12 1420.56   42.90
  -6   0  12 1422.56   43.70
   6   0 -12 1440.66   42.50
  -5   0  12   -1.60    1.40
  -5   0  12    0.70    1.10
   5   0 -12   -0.50    1.10
   5   0 -12    1.10    1.20
   5   0 -12   -0.80    1.10
   4   0 -12  117.09    4.90
   4   0 -12  119.69    4.80
  -4   0  12  116.49    5.40
   4   0 -12  121.09    4.90
  -4   0  12  104.69    5.80
  -3   0  12    0.10    1.20
  -3   0  12    0.70    1.00
   3   0 -12    0.50    0.90
   3   0 -12   -0.70    1.10
   3   0 -12    1.70    1.20
   2   0 -12  638.64   18.80
  -2   0  12  605.44   19.30
  -2   0  12  615.14   20.30
  -1   0  12   -0.70    0.80
   1   0 -12   -0.50    0.80
  -1   0  12   -2.00    1.10
   1   0 -12   -0.70    0.90
   0   0  12    6.00    1.30
   0   0 -12    6.50    1.10
   0   0 -12    5.80    1.50
   0   0  12    5.70    1.10
   0   0  12    5.80    1.90
   1   0  12    1.40    1.00
  -1   0 -12    0.40    0.80
   1   0  12    0.60    1.30
   1   0  12    2.30    1.00
   1   0  12    0.80    0.70
  -1   0 -12    2.10    1.20
  -2   0 -12  284.87   10.30
   2   0  12  289.27   10.80
   2   0  12  288.27   10.30
   2   0  12  278.07    9.20
   2   0  12  305.07    9.50
  -2   0 -12  315.17    9.10
   3   0  12    0.40    0.60
  -3   0 -12   -1.30    0.90
  -3   0 -12    1.80    1.20
   3   0  12   -1.60    1.10
   3   0  12   -0.40    0.90
   3   0  12    0.90    1.10
   4   0  12  110.29    4.10
   4   0  12  113.59    5.80
   4   0  12  112.49    5.20
   4   0  12  120.89    4.80
  -4   0 -12  114.69    4.10
  -4   0 -12  109.69    5.30
   5   0  12   -0.70    1.30
   5   0  12   -0.60    1.10
   5   0  12   -0.50    1.40
   5   0  12    1.20    1.30
  -5   0 -12    0.20    1.00
   5   0  12    0.40    0.80
  -5   0 -12   -0.40    1.00
  -6   0 -12   14.70    1.60
   6   0  12    7.30    2.30
  -6   0 -12    8.10    1.80
   6   0  12    9.20    1.80
   6   0  12    9.70    1.80
   6   0  12    9.00    1.60
   7   0  12    3.10    1.80
  -7   0 -12    0.90    1.30
  -7   0 -12    2.00    1.20
   7   0  12   -0.90    1.90
   7   0  12    1.20    1.50
   7   0  12    0.70    1.40
   8   0  12   52.59    3.80
   8   0  12   56.29    5.60
   8   0  12   49.90    3.60
  -8   0 -12   53.29    4.10
  -8   0 -12   59.59    3.10
   8   0  12   50.59    4.00
   9   0  12   -1.30    1.50
   9   0  12   -1.50    2.30
   9   0  12   -2.20    1.70
   9   0  12   -0.70    1.70
  -9   0 -12    0.50    1.70
  -9   0 -12   -2.40    1.50
  10   0  12   71.99    4.70
 -10   0 -12   64.89    4.80
  10   0  12   70.59    4.60
  10   0  12   69.29    4.70
  10   0  12   73.39    6.60
  11   0  12    2.30    2.10
 -11   0 -12   -2.10    1.50
  11   0  12   -0.30    3.40
  11   0  12   -2.40    2.00
  11   0  12    2.60    2.10
  12   0  12    8.20    2.60
  12   0  12    6.10    4.30
  12   0  12    6.10    2.50
  12   0  12    6.70    2.80
 -12   0 -12    4.50    2.00
  13   0  12    1.60    2.60
 -13   0 -12   -1.70    2.10
  13   0  12    2.90    4.30
  13   0  12    0.40    2.70
  13   0  12    0.50    2.70
  14   0  12  100.99   12.30
  14   0  12  106.09    7.10
  14   0  12  113.69    7.10
 -14   0 -12  123.49    7.60
 -14   0 -12  101.79    7.00
  14   0  12  111.99    7.70
  15  -1 -12    9.30    2.80
  15  -1 -12    9.00    3.40
  15   1 -12   12.10    3.90
  15   1 -12   15.80    3.50
  15   1 -12   10.90    3.10
 -15   1  12    8.00    3.70
  14  -1 -12   -6.20    2.30
 -14  -1  12    5.20    2.20
 -14  -1  12   -3.80    4.00
  14  -1 -12    2.60    2.70
  14   1 -12    0.80    2.50
 -14   1  12   -0.60    4.00
  14   1 -12    2.20    2.20
  14   1 -12    0.90    2.90
 -13  -1  12   17.10    2.50
  13  -1 -12   13.40    2.90
 -13  -1  12   11.70    3.70
  13  -1 -12   12.80    2.90
  13   1 -12   19.20    3.00
  13   1 -12   12.40    3.20
 -13   1  12   22.80    4.80
  13   1 -12   11.90    2.70
  12  -1 -12   12.20    3.00
 -12  -1  12   15.40    2.40
 -12  -1  12   14.70    3.90
  12  -1 -12   12.70    2.60
  12   1 -12   18.10    3.20
  12   1 -12   10.80    2.60
 -12   1  12   12.40    3.90
  12   1 -12   18.00    3.00
  11  -1 -12    9.80    2.40
 -11  -1  12   13.10    2.00
 -11  -1  12   12.10    3.00
  11  -1 -12    6.10    2.10
  11   1 -12   10.00    2.40
  11   1 -12   10.70    2.50
 -11   1  12    6.60    2.60
  11   1 -12   13.10    2.30
 -10  -1  12   39.60    3.20
  10  -1 -12   44.10    3.90
 -10  -1  12   40.60    4.80
  10  -1 -12   41.90    3.50
 -10   1  12   47.30    5.30
  10   1 -12   35.60    3.90
  10   1 -12   39.50    3.50
  10   1 -12   41.60    3.60
  -9  -1  12   63.19    3.70
   9  -1 -12   57.69    3.90
   9  -1 -12   58.09    4.20
   9   1 -12   65.09    4.70
  -9   1  12   59.19    5.30
   9   1 -12   62.79    4.20
   9   1 -12   52.49    3.90
   8  -1 -12  186.08    7.90
   8  -1 -12  193.78    7.50
  -8  -1  12  187.88    7.40
   8   1 -12  193.08    7.70
  -8   1  12  176.58    8.60
   8   1 -12  180.68    7.50
   8   1 -12  186.18    8.00
   7  -1 -12    2.80    1.40
   7  -1 -12    4.30    1.70
  -7  -1  12    5.50    1.50
   7   1 -12    3.90    1.80
  -7   1  12    3.90    1.90
   7   1 -12    4.70    1.50
   7   1 -12    5.90    1.80
   6  -1 -12    3.40    1.30
  -6  -1  12    3.40    1.40
  -6  -1  12    5.00    1.80
   6  -1 -12    6.30    1.60
   6   1 -12    3.60    1.60
   6   1 -12    3.10    1.70
   6   1 -12    5.50    1.40
  -6   1  12    4.70    1.90
  -5  -1  12   44.30    3.20
   5  -1 -12   39.80    2.90
  -5  -1  12   35.90    3.50
   5  -1 -12   42.20    2.50
  -5  -1  12   37.20    2.90
   5   1 -12   34.00    2.80
   5   1 -12   42.20    2.70
  -5   1  12   38.50    3.60
  -5   1  12   37.40    4.10
   5   1 -12   38.70    3.10
   4  -1 -12   13.40    1.90
  -4  -1  12   10.10    1.60
  -4  -1  12   13.10    2.00
  -4  -1  12   10.30    1.60
   4  -1 -12   14.20    1.80
   4   1 -12   14.60    2.20
   4   1 -12   12.70    1.70
  -4   1  12    8.60    2.00
  -4   1  12    9.50    1.90
   4   1 -12   13.30    2.00
   3  -1 -12   46.70    2.90
   3  -1 -12   48.10    2.30
  -3  -1  12   46.50    3.10
  -3  -1  12   45.40    3.30
  -3  -1  12   38.70    2.70
  -3   1  12   39.90    3.80
  -3   1  12   46.10    3.40
   3   1 -12   43.70    2.90
   3   1 -12   44.90    2.50
   3   1 -12   46.90    3.00
   2  -1 -12   13.20    1.80
  -2  -1  12   14.20    2.20
  -2  -1  12   12.90    2.00
  -2  -1  12   13.30    1.60
  -2   1  12   13.50    2.10
   2   1 -12   14.50    1.40
   2   1 -12   14.80    2.10
  -2   1  12   10.70    1.90
  -1  -1  12  312.97   11.00
   1  -1 -12  302.57   11.10
  -1  -1  12  316.17   10.00
  -1  -1  12  319.17   11.00
  -1   1  12  309.47   11.70
   1   1 -12  311.67   10.60
   1   1 -12  307.17   10.80
  -1   1  12  302.67   11.00
   1   1 -12  324.17    9.60
   0  -1 -12    1.80    1.30
   0  -1 -12    0.00    1.00
   0  -1  12    1.30    1.30
   0  -1  12   -1.00    0.80
   0  -1  12    0.50    0.50
   0   1  12   -0.80    1.00
   0   1  12    0.20    1.00
   0   1 -12   -0.30    1.00
   0   1  12   -0.90    1.30
   0   1 -12    0.20    1.10
  -1  -1 -12    3.30    1.30
   1  -1  12    3.20    1.20
  -1  -1 -12    4.90    1.50
   1  -1  12    2.50    1.20
   1  -1  12    4.30    1.40
   1   1  12    4.00    0.70
  -1   1 -12    4.00    1.40
  -1   1 -12    5.30    1.40
   1   1  12    3.50    1.60
   1   1  12    2.70    1.20
   1   1  12    3.10    1.20
   2  -1  12   38.90    3.10
  -2  -1 -12   43.70    3.20
   2  -1  12   40.50    2.80
   2  -1  12   43.10    3.20
  -2  -1 -12   38.20    2.60
   2   1  12   42.30    3.60
  -2   1 -12   42.50    2.90
   2   1  12   41.30    1.90
   2   1  12   43.50    3.20
   2   1  12   39.80    3.00
   3  -1  12    8.10    1.80
   3  -1  12    9.60    1.70
   3  -1  12   10.00    1.90
  -3  -1 -12    8.40    1.80
  -3  -1 -12    8.10    1.50
   3   1  12    8.50    2.00
   3   1  12    9.30    1.20
   3   1  12    9.20    2.00
   3   1  12    8.60    1.60
  -3   1 -12    9.30    1.50
  -4  -1 -12   13.00    1.70
   4  -1  12    7.30    1.60
   4  -1  12    9.00    1.80
  -4  -1 -12    9.30    1.80
   4  -1  12    6.50    1.80
   4   1  12   10.80    2.10
   4   1  12    9.40    1.60
   4   1  12   11.10    2.10
  -4   1 -12    9.10    1.80
   4   1  12   11.60    1.60
  -5  -1 -12   -0.40    1.40
   5  -1  12    0.60    1.20
  -5  -1 -12   -1.00    1.20
   5  -1  12    1.20    1.50
   5  -1  12   -0.40    1.60
   5   1  12   -0.90    1.10
   5   1  12   -1.90    1.10
   5   1  12   -0.90    1.10
   5   1  12   -0.70    1.70
   5   1  12    1.70    1.70
  -5   1 -12   -2.90    1.10
   6  -1  12    0.60    1.50
   6  -1  12    3.80    1.70
   6  -1  12   -1.00    1.90
  -6  -1 -12    2.90    1.50
  -6  -1 -12    2.20    1.50
   6   1  12    0.70    1.30
   6   1  12   -0.30    1.30
  -6   1 -12    1.60    1.40
   6   1  12   -0.20    1.20
   6   1  12   -1.40    1.70
   6   1  12    1.90    1.30
  -7  -1 -12    8.70    2.00
   7  -1  12   11.00    2.10
   7  -1  12   11.50    2.00
   7  -1  12    9.70    2.30
  -7  -1 -12   13.70    2.00
   7   1  12    7.80    2.30
   7   1  12   10.90    2.00
  -7   1 -12   12.50    2.20
   7   1  12   10.40    2.20
   7   1  12   10.10    1.70
  -7   1 -12   12.30    1.30
  -7   1 -12    9.50    1.50
   7   1  12    8.60    1.70
   8  -1  12   60.99    4.20
  -8  -1 -12   58.69    3.60
   8  -1  12   56.89    4.40
   8  -1  12   57.19    5.30
   8  -1  12   58.19    4.00
  -8  -1 -12   52.99    4.00
  -8   1 -12   55.19    4.00
   8   1  12   59.39    3.70
   8   1  12   55.29    4.20
  -8   1 -12   61.39    3.10
   8   1  12   61.79    3.90
   8   1  12   71.89    5.30
   8   1  12   64.99    3.90
   9  -1  12   66.79    6.00
   9  -1  12   73.89    5.00
  -9  -1 -12   65.69    3.90
   9  -1  12   63.39    4.40
   9  -1  12   68.39    4.40
  -9  -1 -12   59.59    4.30
  -9   1 -12   60.59    4.30
   9   1  12   69.89    4.10
   9   1  12   63.39    6.30
   9   1  12   67.19    4.20
   9   1  12   58.29    4.50
  -9   1 -12   61.19    3.50
   9   1  12   59.49    4.20
  10  -1  12   66.89    5.10
  10  -1  12   63.69    4.60
 -10  -1 -12   59.59    4.00
  10  -1  12   57.09    6.20
 -10  -1 -12   59.39    4.50
  10  -1  12   63.79    4.60
 -10   1 -12   65.19    4.00
  10   1  12   60.09    4.60
 -10   1 -12   57.29    4.50
  10   1  12   62.59    4.10
  10   1  12   56.99    4.10
  10   1  12   64.39    6.00
 -11  -1 -12    4.80    1.70
  11  -1  12    4.90    3.90
  11  -1  12    8.00    2.80
  11  -1  12    5.00    2.70
  11  -1  12    7.50    2.50
 -11  -1 -12    4.70    2.10
 -11   1 -12    8.00    2.30
  11   1  12    7.50    2.40
  11   1  12    4.10    3.40
 -11   1 -12    4.90    2.00
  11   1  12   10.60    2.60
  11   1  12    2.70    2.20
  12  -1  12   78.89    6.10
 -12  -1 -12   72.99    5.60
  12  -1  12   98.29    8.70
  12  -1  12   77.29    5.60
  12  -1  12   79.89    5.50
 -12  -1 -12   80.99    5.00
  12   1  12   80.39    5.50
  12   1  12   78.49    5.80
 -12   1 -12   82.99    5.80
 -12   1 -12   90.39    5.40
  12   1  12   87.29    4.90
  12   1  12   77.09    8.30
  13  -1  12   -4.90    4.80
 -13  -1 -12   -1.40    2.20
  13  -1  12   -2.50    3.20
 -13  -1 -12    2.90    2.40
  13  -1  12    3.30    2.60
  13  -1  12    1.00    2.50
  13   1  12    4.00    4.80
  13   1  12   -3.50    2.60
 -13   1 -12   -3.50    2.70
  13   1  12    2.70    2.60
  13   1  12    0.50    2.70
 -13   1 -12    1.50    2.10
 -14  -1 -12   14.00    3.40
  14  -1  12   13.20    3.40
 -14  -1 -12   21.50    3.30
  14  -1  12   10.50    6.10
  14  -1  12   15.30    4.10
  14  -1  12   13.20    3.40
  14   1  12   11.70    3.40
  14   1  12   12.50    3.30
 -14   1 -12   15.90    3.60
  14   1  12    2.80    6.50
 -14   1 -12   13.40    3.60
  14  -2 -12    1.10    2.70
  14  -2 -12    3.50    2.30
  14  -2 -12   -6.30    3.40
 -14  -2  12    1.20    2.30
 -14   2  12    6.80    7.00
  14   2 -12    0.80    2.80
  14   2 -12    2.10    2.80
  13  -2 -12   -2.70    3.00
  13  -2 -12   -2.50    2.00
  13  -2 -12    0.60    2.30
 -13  -2  12   -0.60    2.00
  13   2 -12    1.20    2.80
  13   2 -12   -0.30    2.60
 -13   2  12   -4.80    4.20
 -12  -2  12    2.10    2.20
  12  -2 -12   -2.10    2.00
  12  -2 -12   -0.40    2.00
  12  -2 -12    3.10    2.80
  12   2 -12    1.00    2.50
 -12   2  12   -0.70    3.40
  12   2 -12    3.80    2.50
 -11  -2  12   13.20    2.30
  11  -2 -12    9.70    2.50
  11  -2 -12   12.00    3.00
  11  -2 -12   11.20    2.60
 -11   2  12    8.20    4.20
  11   2 -12   12.90    2.90
  11   2 -12    8.20    2.70
  10  -2 -12   71.59    5.50
 -10  -2  12   72.99    4.40
  10  -2 -12   67.59    4.40
  10  -2 -12   69.79    4.70
  10   2 -12   66.49    4.80
  10   2 -12   68.39    5.30
 -10   2  12   70.59    6.70
   9  -2 -12   38.10    3.80
  -9  -2  12   46.50    3.60
   9  -2 -12   42.90    5.20
   9  -2 -12   48.00    3.50
  -9   2  12   49.10    5.20
   9   2 -12   44.40    3.90
   9   2 -12   44.20    4.30
  -8  -2  12   26.50    2.80
   8  -2 -12   26.20    2.50
   8  -2 -12   23.30    3.00
   8  -2 -12   29.50    4.20
   8   2 -12   21.80    3.10
   8   2 -12   24.80    3.70
  -8   2  12   18.80    3.20
   7  -2 -12  114.79    6.40
   7  -2 -12  111.69    4.80
  -7  -2  12  106.19    5.70
  -7  -2  12  103.99    5.30
   7  -2 -12  107.89    5.70
   7   2 -12   96.19    5.60
  -7   2  12  116.49    7.10
  -7   2  12  109.79    4.20
   7   2 -12   94.69    5.80
  -6  -2  12    4.40    1.70
   6  -2 -12    5.60    1.60
   6  -2 -12    4.90    1.70
  -6  -2  12    2.30    1.50
   6  -2 -12    3.20    2.10
  -6   2  12    5.70    1.50
  -6   2  12    3.10    2.00
   6   2 -12    4.70    1.80
   6   2 -12    3.60    1.90
   5  -2 -12    1.60    1.30
  -5  -2  12    2.30    1.50
   5  -2 -12    2.30    2.00
  -5  -2  12    2.20    1.50
  -5   2  12    2.40    1.90
   5   2 -12    0.80    1.60
   5   2 -12    1.90    1.80
  -5   2  12    3.90    1.30
  -5   2  12    0.50    2.00
  -4  -2  12   17.60    2.50
   4  -2 -12   21.20    3.00
   4  -2 -12   21.30    1.70
   4  -2 -12   18.60    2.40
  -4  -2  12   20.30    2.60
   4   2 -12   18.00    2.60
  -4   2  12   17.30    3.00
  -4   2  12   23.70    2.10
   4   2 -12   20.20    2.60
  -4   2  12   21.20    3.00
   3  -2 -12   33.10    2.90
   3  -2 -12   36.80    3.50
  -3  -2  12   35.40    3.00
  -3  -2  12   33.80    2.90
   3   2 -12   32.90    3.10
  -3   2  12   41.60    2.70
  -3   2  12   34.30    3.70
  -3   2  12   38.60    4.00
  -2  -2  12   16.30    2.20
   2  -2 -12   16.10    2.30
   2  -2 -12   13.60    2.00
  -2  -2  12   20.00    2.60
   2   2 -12   16.60    2.20
  -2   2  12   11.50    2.20
  -2   2  12   13.70    2.40
  -2   2  12   14.80    2.00
   1  -2 -12   97.89    4.80
   1  -2 -12   97.49    5.20
  -1  -2  12  100.09    4.60
  -1  -2  12   98.09    5.10
   1   2 -12  103.39    4.30
  -1   2  12   93.39    4.50
  -1   2  12   91.49    5.30
   1   2 -12   99.99    5.00
  -1   2  12   96.69    5.70
   0  -2  12   67.99    4.20
   0  -2  12   65.79    3.70
   0  -2 -12   67.59    3.80
   0  -2 -12   66.09    4.10
   0  -2  12   68.79    2.80
   0  -2 -12   65.09    4.20
   0   2 -12   68.89    3.40
   0   2  12   64.09    4.40
   0   2  12   64.29    4.30
   0   2  12   60.39    3.80
   0   2 -12   68.39    4.00
   1  -2  12  181.78    7.00
  -1  -2 -12  177.68    7.10
  -1  -2 -12  174.78    7.40
   1  -2  12  176.88    7.60
   1   2  12  181.38    7.90
  -1   2 -12  176.68    7.20
   1   2  12  173.48    7.10
  -1   2 -12  168.98    6.60
   1   2  12  176.08    7.70
   2  -2  12   27.70    2.80
  -2  -2 -12   22.10    2.40
  -2  -2 -12   24.80    2.70
   2  -2  12   23.40    3.10
   2  -2  12   24.00    2.70
   2   2  12   24.50    2.70
   2   2  12   21.80    2.90
  -2   2 -12   23.50    2.60
   2   2  12   24.10    3.30
  -2   2 -12   24.80    2.30
   3  -2  12  154.98    6.70
  -3  -2 -12  158.18    6.50
   3  -2  12  160.58    7.20
   3  -2  12  157.58    6.80
  -3  -2 -12  160.18    7.00
   3   2  12  158.98    7.10
   3   2  12  158.08    7.30
  -3   2 -12  162.88    6.80
   3   2  12  156.28    5.20
   3   2  12  151.98    6.90
  -3   2 -12  164.08    6.30
  -4  -2 -12    3.30    1.50
   4  -2  12    5.00    2.10
  -4  -2 -12    4.40    1.80
   4  -2  12    1.70    1.80
   4  -2  12    3.20    1.80
   4   2  12    2.50    1.50
   4   2  12    5.60    1.40
  -4   2 -12    3.40    1.40
   4   2  12    3.10    1.80
   4   2  12    3.20    1.70
   5  -2  12  103.89    5.90
   5  -2  12  102.19    5.40
  -5  -2 -12  106.29    5.60
  -5  -2 -12  101.59    5.10
   5  -2  12  111.19    5.90
   5   2  12  112.89    6.20
   5   2  12  112.49    5.60
   5   2  12  106.29    5.60
  -5   2 -12   98.49    4.90
   5   2  12  108.79    4.40
   6  -2  12  454.85   16.50
  -6  -2 -12  480.45   16.90
  -6  -2 -12  484.05   16.30
   6  -2  12  512.35   17.40
   6  -2  12  503.65   17.30
   6   2  12  513.35   17.60
  -6   2 -12  473.35   16.30
   6   2  12  471.45   16.90
   6   2  12  501.45   16.80
   6   2  12  507.75   15.50
   7  -2  12   40.00    3.70
   7  -2  12   47.10    4.80
  -7  -2 -12   36.50    3.70
  -7  -2 -12   36.60    3.30
   7  -2  12   41.10    4.20
   7   2  12   47.30    4.70
   7   2  12   37.00    4.10
  -7   2 -12   38.10    3.10
   7   2  12   42.30    3.10
   7   2  12   36.30    3.90
  -8  -2 -12    5.50    2.10
   8  -2  12    3.40    2.60
   8  -2  12    5.30    2.40
  -8  -2 -12    8.40    2.20
   8  -2  12    4.40    1.90
   8   2  12    6.70    2.50
   8   2  12    6.60    1.70
   8   2  12    8.10    2.30
   8   2  12    7.40    2.10
  -8   2 -12    7.70    1.80
  -8   2 -12    4.50    1.20
   8   2  12    7.50    2.20
  -9  -2 -12   19.30    2.90
   9  -2  12   16.60    3.80
  -9  -2 -12   14.30    3.00
   9  -2  12   17.70    3.00
   9  -2  12   18.80    3.40
   9   2  12   17.10    2.80
  -9   2 -12   16.30    2.80
   9   2  12   17.80    2.70
   9   2  12   12.50    2.80
   9   2  12   18.70    3.60
   9   2  12   20.20    2.90
  -9   2 -12   16.50    2.70
 -10  -2 -12    9.70    2.30
 -10  -2 -12    5.10    2.20
  10  -2  12    7.20    3.20
  10  -2  12    4.70    3.10
  10  -2  12    7.80    2.50
  10  -2  12    4.50    2.40
 -10   2 -12    8.20    1.90
  10   2  12    8.30    2.30
  10   2  12    8.10    2.90
  10   2  12    7.70    2.70
  10   2  12    8.60    2.00
 -10   2 -12    6.70    2.30
  10   2  12    4.50    2.60
  11  -2  12   -0.80    3.00
 -11  -2 -12   -0.90    2.10
  11  -2  12    2.30    2.10
  11  -2  12   -1.60    2.20
  11  -2  12    2.10    4.10
 -11  -2 -12    0.30    2.00
 -11   2 -12    0.80    2.00
  11   2  12    3.00    3.40
  11   2  12    0.10    2.20
  11   2  12   -1.00    2.90
  11   2  12    1.50    1.90
 -11   2 -12   -0.80    2.10
  11   2  12    6.20    2.70
  12  -2  12   -5.20    4.50
  12  -2  12   -2.10    2.90
 -12  -2 -12    2.20    2.30
  12  -2  12    2.90    2.30
 -12  -2 -12    0.30    2.40
  12  -2  12   -2.00    3.90
  12   2  12    0.50    2.50
 -12   2 -12    3.50    2.70
 -12   2 -12   -1.80    2.00
  12   2  12    3.00    2.70
  12   2  12    2.10    3.10
  12   2  12   -3.70    4.10
  12   2  12    4.70    2.50
  13  -2  12   19.70    3.80
 -13  -2 -12   14.40    3.30
  13  -2  12   21.20    6.30
  13  -2  12   21.80    3.60
  13  -2  12   17.90    4.40
 -13  -2 -12   20.10    3.40
  13   2  12   16.20    3.70
 -13   2 -12   20.50    3.80
 -13   2 -12   10.90    3.10
  13   2  12   18.90    5.00
  13   2  12   12.40    3.10
  13  -3 -12   51.99    5.10
  13  -3 -12   54.99    4.90
  13  -3 -12   77.89    9.20
 -13  -3  12   56.39    4.60
  13   3 -12   58.69    6.10
  13   3 -12   62.19    5.80
 -12  -3  12   12.90    2.90
  12  -3 -12   20.90    4.50
  12  -3 -12   17.40    3.20
  12  -3 -12   19.00    4.00
 -12  -3  12   15.80    2.90
  12   3 -12   16.50    3.80
  12   3 -12   16.20    3.80
 -12   3  12   11.90    4.90
 -11  -3  12   11.60    2.50
  11  -3 -12    8.80    2.70
  11  -3 -12   13.70    3.00
 -11  -3  12   12.70    2.70
  11  -3 -12   17.10    4.00
  11   3 -12   19.20    3.80
 -11   3  12   14.60    4.70
  11   3 -12   11.00    2.90
  10  -3 -12    1.40    2.30
  10  -3 -12    4.10    3.40
 -10  -3  12   -1.00    2.00
  10  -3 -12    0.40    2.10
 -10  -3  12    1.20    2.40
 -10  -3  12    2.20    3.00
  10   3 -12    2.70    2.60
 -10   3  12    0.30    3.70
  10   3 -12   -2.70    2.20
   9  -3 -12   24.50    3.00
   9  -3 -12   25.90    3.80
  -9  -3  12   29.00    4.10
  -9  -3  12   32.80    4.50
   9  -3 -12   22.50    3.70
  -9   3  12   32.90    5.30
   9   3 -12   33.80    4.20
   9   3 -12   23.50    3.70
   8  -3 -12   47.00    4.10
   8  -3 -12   50.79    3.40
  -8  -3  12   50.39    4.20
   8  -3 -12   46.00    5.40
  -8  -3  12   46.90    4.40
  -8   3  12   50.69    6.30
   8   3 -12   46.20    4.70
   8   3 -12   55.29    4.40
   7  -3 -12  453.35   14.40
  -7  -3  12  451.25   15.50
  -7  -3  12  449.36   14.70
   7  -3 -12  472.05   16.90
   7  -3 -12  415.76   15.90
  -7   3  12  436.06   13.60
  -7   3  12  442.56   17.80
   7   3 -12  428.76   16.50
  -7   3  12  464.45   17.70
   7   3 -12  459.25   16.60
  -6  -3  12   15.30    2.00
   6  -3 -12   12.50    1.80
   6  -3 -12    7.00    2.50
   6  -3 -12    8.90    2.00
  -6  -3  12    9.60    2.50
  -6   3  12   10.20    2.90
  -6   3  12   13.40    2.00
   6   3 -12    9.00    2.30
   6   3 -12    7.40    2.60
  -6   3  12    9.20    3.30
   5  -3 -12   94.09    6.20
  -5  -3  12   83.69    5.40
   5  -3 -12   94.39    3.80
  -5  -3  12   86.69    4.00
   5  -3 -12   82.19    5.20
   5   3 -12   88.99    5.40
  -5   3  12   87.19    4.40
  -5   3  12   82.29    6.30
  -5   3  12   86.19    6.70
   5   3 -12   84.69    5.40
   4  -3 -12   22.70    3.40
   4  -3 -12   18.70    2.80
  -4  -3  12   22.00    3.40
   4  -3 -12   21.40    1.80
  -4  -3  12   21.10    2.20
  -4   3  12   19.10    3.60
   4   3 -12   20.80    3.00
  -4   3  12   21.10    2.80
  -4   3  12   12.50    2.80
   3  -3 -12    4.70    2.30
  -3  -3  12    3.80    1.90
  -3  -3  12    5.90    1.20
  -3  -3  12    4.50    1.50
   3  -3 -12    6.50    1.80
   3   3 -12    6.20    1.50
   3   3 -12    9.90    2.60
  -3   3  12    6.80    2.30
  -3   3  12    4.00    2.40
  -3   3  12    5.00    1.80
  -2  -3  12   37.20    2.50
  -2  -3  12   37.60    4.10
   2  -3 -12   44.30    4.40
  -2  -3  12   40.50    2.90
   2  -3 -12   44.20    3.50
  -2   3  12   48.40    4.50
   2   3 -12   39.80    2.80
   2   3 -12   41.80    3.70
  -2   3  12   41.30    4.50
  -2   3  12   42.00    3.50
  -1  -3  12   27.60    2.70
  -1  -3  12   32.30    2.40
   1  -3 -12   32.40    3.30
   1  -3 -12   42.00    4.30
  -1  -3  12   31.80    3.90
  -1   3  12   37.40    4.10
  -1   3  12   25.40    3.30
   1   3 -12   29.50    3.30
  -1   3  12   42.50    4.30
   1   3 -12   29.60    2.50
   0  -3 -12   66.29    4.40
   0  -3 -12   61.79    5.30
   0  -3  12   67.59    3.80
   0  -3  12   74.79    3.50
   0  -3  12   72.59    5.10
   0   3  12   71.69    4.40
   0   3 -12   71.89    3.40
   0   3  12   71.19    5.30
   0   3 -12   70.79    3.40
   0   3  12   71.29    5.20
   0   3 -12   75.09    4.60
  -1  -3 -12  142.29    6.70
   1  -3  12  127.19    7.00
  -1  -3 -12  145.79    7.20
   1  -3  12  148.69    5.90
  -1  -3 -12  135.79    6.80
   1  -3  12  153.58    5.40
  -1   3 -12  148.29    5.60
   1   3  12  159.08    7.50
  -1   3 -12  144.29    6.70
   1   3  12  139.59    7.70
  -1   3 -12  147.99    5.30
   1   3  12  143.39    6.70
  -2  -3 -12   11.10    2.30
   2  -3  12   10.40    1.60
  -2  -3 -12    8.70    2.20
   2  -3  12    8.80    2.30
   2  -3  12    9.40    1.80
   2  -3  12   13.10    2.70
  -2  -3 -12    8.50    2.00
  -2   3 -12   12.90    2.50
   2   3  12   13.30    2.90
   2   3  12   11.40    2.60
  -2   3 -12   11.00    1.80
  -2   3 -12    9.30    1.20
   2   3  12   10.80    2.50
   3  -3  12  138.39    6.80
  -3  -3 -12  141.69    6.80
   3  -3  12  151.58    7.80
   3  -3  12  151.88    6.50
  -3  -3 -12  151.38    6.90
   3  -3  12  139.99    4.90
  -3  -3 -12  136.59    6.70
   3   3  12  153.58    8.00
  -3   3 -12  134.29    6.50
   3   3  12  147.19    7.10
   3   3  12  147.29    7.30
  -3   3 -12  145.49    4.90
  -3   3 -12  137.29    5.80
   4  -3  12   90.59    5.40
   4  -3  12   91.69    6.20
  -4  -3 -12   94.79    5.50
  -4  -3 -12   92.59    5.30
   4  -3  12   98.09    5.40
   4   3  12  101.49    6.00
   4   3  12   97.79    5.70
   4   3  12  102.59    6.20
  -4   3 -12   93.09    5.30
   4   3  12   98.89    4.20
  -4   3 -12   93.29    4.60
  -5  -3 -12   26.10    3.30
  -5  -3 -12   29.40    3.30
   5  -3  12   32.50    3.60
   5  -3  12   22.80    3.60
   5  -3  12   23.50    3.80
  -5   3 -12   25.50    3.10
   5   3  12   25.90    3.70
   5   3  12   27.80    4.10
  -5   3 -12   25.00    2.80
   5   3  12   29.70    4.10
   5   3  12   30.30    2.90
  -6  -3 -12  169.28    8.00
   6  -3  12  169.38    8.00
  -6  -3 -12  170.18    8.00
   6  -3  12  189.48    8.40
   6  -3  12  185.58    9.10
  -6   3 -12  175.08    7.30
   6   3  12  169.08    8.30
   6   3  12  187.08    8.80
   6   3  12  185.98    8.90
   6   3  12  172.88    6.90
  -7  -3 -12   10.30    2.60
  -7  -3 -12   18.00    3.00
   7  -3  12   16.70    1.70
   7  -3  12    9.50    3.00
   7  -3  12    9.90    3.00
   7  -3  12   11.80    2.50
   7   3  12   10.30    2.60
   7   3  12   16.90    3.40
  -7   3 -12   13.70    2.10
   7   3  12    8.40    2.60
  -7   3 -12   18.40    2.00
   7   3  12   15.90    2.90
  -8  -3 -12   77.49    5.40
  -8  -3 -12   60.69    4.70
   8  -3  12   61.09    6.20
   8  -3  12   79.69    6.70
   8  -3  12   64.69    5.00
   8  -3  12   72.39    3.40
   8   3  12   66.59    6.20
   8   3  12   61.99    5.40
  -8   3 -12   70.99    3.50
  -8   3 -12   66.59    4.50
   8   3  12   64.99    4.50
   8   3  12   66.49    6.40
   9  -3  12    1.20    2.30
   9  -3  12    2.80    1.90
  -9  -3 -12    6.80    2.60
  -9  -3 -12    7.90    2.60
   9  -3  12    4.30    3.20
   9  -3  12    2.40    3.40
  -9   3 -12    2.60    1.50
   9   3  12    5.40    2.30
   9   3  12    0.20    2.60
   9   3  12    7.70    2.50
   9   3  12    0.60    2.20
  -9   3 -12    2.30    1.90
   9   3  12    2.90    3.40
  10  -3  12   10.70    2.40
 -10  -3 -12    9.30    2.90
  10  -3  12   11.90    4.60
  10  -3  12    5.20    3.80
 -10  -3 -12   10.70    2.90
  10  -3  12   16.80    3.50
  10   3  12    6.20    3.30
 -10   3 -12    7.60    2.30
  10   3  12    3.70    3.60
 -10   3 -12   13.50    2.10
  10   3  12   16.40    2.80
  10   3  12    5.40    2.80
  10   3  12   11.70    3.80
  11  -3  12   -0.60    2.60
 -11  -3 -12    0.40    2.40
 -11  -3 -12   -2.80    2.10
  11  -3  12    4.80    2.70
  11  -3  12    8.10    5.20
  11  -3  12   -2.20    4.60
  11  -3  12    3.20    3.20
  11   3  12   -1.80    2.50
  11   3  12    0.00    4.30
 -11   3 -12    2.90    2.20
  11   3  12    5.60    3.10
 -11   3 -12    0.00    2.40
  11   3  12    0.60    2.30
  11   3  12   -1.60    3.70
  12  -3  12   -1.40    2.80
  12  -3  12   -0.90    2.60
 -12  -3 -12    5.50    2.60
  12  -3  12    3.60    5.00
  12  -3  12    0.70    6.10
 -12  -3 -12    4.60    2.90
  12   3  12    4.00    3.00
 -12   3 -12   -2.90    3.20
  12   3  12    1.30    2.50
  12   3  12    3.40    4.90
 -12   3 -12   -1.70    2.10
  12   3  12   -8.20    4.40
  11  -4 -12   -0.20    2.70
  11  -4 -12    2.70    2.50
 -11  -4  12    4.20    3.40
 -11  -4  12    4.60    4.40
  11  -4 -12    1.00    5.10
  11   4 -12   -4.40    2.90
  11   4 -12    3.80    3.10
 -11   4  12    7.10    5.00
  10  -4 -12    4.40    2.70
 -10  -4  12    8.80    2.50
 -10  -4  12    3.40    3.20
  10  -4 -12    2.00    4.90
  10  -4 -12    2.30    2.60
  10   4 -12    3.30    3.30
 -10   4  12    2.90    5.40
  10   4 -12    2.30    2.60
   9  -4 -12   11.30    4.30
   9  -4 -12    9.30    2.70
  -9  -4  12   18.70    3.70
   9  -4 -12   19.50    2.80
   9   4 -12   17.60    3.30
  -9   4  12   18.10    5.10
   9   4 -12   12.40    3.20
   8  -4 -12    2.80    2.30
   8  -4 -12    8.60    3.70
   8  -4 -12    5.40    2.30
  -8  -4  12    0.00    2.90
  -8   4  12    2.80    4.30
   8   4 -12    2.60    2.50
  -8   4  12    3.10    4.40
   8   4 -12    7.10    2.90
  -7  -4  12   14.60    3.50
   7  -4 -12   12.60    3.70
   7  -4 -12   15.80    2.40
   7  -4 -12   16.40    3.00
  -7  -4  12    9.90    2.70
   7   4 -12    6.60    2.50
  -7   4  12   14.70    4.60
  -7   4  12    6.90    3.80
   7   4 -12   12.20    2.90
  -6  -4  12   55.39    4.40
   6  -4 -12   49.40    4.50
   6  -4 -12   54.99    3.50
  -6  -4  12   61.99    5.80
   6  -4 -12   58.39    6.90
  -6   4  12   50.29    7.20
  -6   4  12   62.09    4.10
   6   4 -12   57.99    4.90
   6   4 -12   59.79    5.10
  -6   4  12   63.09    7.20
   5  -4 -12   43.10    3.90
   5  -4 -12   40.60    2.90
  -5  -4  12   44.40    3.70
  -5  -4  12   36.60    5.10
   5  -4 -12   49.40    6.40
  -5   4  12   47.70    6.60
   5   4 -12   35.90    4.10
  -5   4  12   40.10    3.80
  -5   4  12   46.70    6.50
   5   4 -12   39.30    4.40
  -4  -4  12  130.89    7.50
   4  -4 -12  143.09    8.60
  -4  -4  12  125.99    6.10
   4  -4 -12  124.09    4.80
   4  -4 -12  111.69    6.50
  -4   4  12  131.39    8.20
  -4   4  12  121.99    8.20
   4   4 -12  126.99    6.60
  -4   4  12  125.49    6.00
   4   4 -12  114.89    7.00
  -3  -4  12   66.59    4.50
   3  -4 -12   74.89    5.40
   3  -4 -12   77.29    3.30
  -3  -4  12   84.09    6.30
   3  -4 -12   77.79    6.60
  -3   4  12   75.49    6.60
  -3   4  12   72.49    6.30
   3   4 -12   78.39    4.80
   3   4 -12   76.19    5.40
  -3   4  12   71.79    4.60
  -2  -4  12   37.40    3.40
   2  -4 -12   33.40    4.10
   2  -4 -12   40.80    5.70
   2  -4 -12   38.70    2.30
  -2  -4  12   45.50    5.20
  -2   4  12   34.40    3.70
   2   4 -12   39.50    4.20
  -2   4  12   36.20    4.80
   2   4 -12   35.50    3.50
  -2   4  12   34.80    5.10
   1  -4 -12   68.99    2.90
   1  -4 -12   65.79    6.30
  -1  -4  12   73.69    4.30
  -1  -4  12   63.29    6.10
   1  -4 -12   67.29    5.10
  -1   4  12   87.99    7.00
  -1   4  12   75.59    5.90
  -1   4  12   67.29    4.70
   1   4 -12   75.59    4.30
   1   4 -12   71.09    5.20
   0  -4 -12   86.99    6.80
   0  -4  12   83.19    6.70
   0  -4 -12   80.99    5.40
   0  -4  12   83.49    4.50
   0   4  12   92.09    6.20
   0   4 -12   83.79    5.50
   0   4 -12   79.39    4.40
   0   4  12   77.59    5.20
   0   4  12   88.29    7.20
   1  -4  12   28.60    3.90
  -1  -4 -12   28.80    3.70
   1  -4  12   40.70    3.40
  -1  -4 -12   38.20    2.20
   1  -4  12   34.00    3.80
  -1  -4 -12   30.10    4.10
   1  -4  12   29.60    2.90
  -1   4 -12   40.40    4.10
   1   4  12   48.50    6.00
  -1   4 -12   36.00    2.90
  -1   4 -12   35.20    2.60
   1   4  12   33.20    3.90
   1   4  12   44.90    4.80
   2  -4  12   10.70    2.30
  -2  -4 -12    9.90    3.40
  -2  -4 -12   16.50    1.70
   2  -4  12   13.70    3.10
   2  -4  12   14.10    3.20
   2  -4  12   14.40    2.20
  -2  -4 -12    8.20    2.50
   2   4  12   11.00    2.90
  -2   4 -12   10.00    1.90
   2   4  12    8.50    3.20
  -2   4 -12   13.60    2.90
  -2   4 -12   11.80    1.90
   2   4  12    3.60    2.20
  -3  -4 -12    0.50    2.40
   3  -4  12    5.90    2.10
  -3  -4 -12    3.40    2.30
  -3  -4 -12   -0.10    1.60
   3  -4  12    2.30    3.20
   3  -4  12    3.90    2.30
   3  -4  12    5.60    1.90
  -3   4 -12    3.70    1.50
   3   4  12    2.40    3.00
  -3   4 -12    5.20    1.70
   3   4  12    1.30    2.10
   3   4  12    5.00    2.70
  -3   4 -12    4.80    2.20
  -4  -4 -12    1.30    2.60
   4  -4  12    1.30    2.40
  -4  -4 -12    0.20    1.80
   4  -4  12    2.50    2.20
   4  -4  12    4.60    3.00
   4  -4  12    0.30    1.80
  -4  -4 -12    2.70    2.10
  -4   4 -12   -2.90    2.10
  -4   4 -12    0.60    1.50
   4   4  12   -2.10    2.50
   4   4  12    0.70    1.90
  -4   4 -12   -0.90    1.50
   4   4  12    0.40    2.90
  -5  -4 -12    1.30    1.90
  -5  -4 -12    2.70    2.50
   5  -4  12    7.00    3.00
   5  -4  12    1.60    1.90
   5  -4  12   -2.60    3.20
  -5  -4 -12    2.60    2.40
   5  -4  12    1.30    2.10
   5   4  12    3.10    2.80
   5   4  12    1.20    3.00
  -5   4 -12    5.50    1.70
  -5   4 -12    3.40    1.50
   5   4  12    2.10    2.20
  -5   4 -12    3.70    2.20
  -6  -4 -12   29.80    3.90
   6  -4  12   28.70    4.10
   6  -4  12   28.00    4.50
   6  -4  12   23.40    3.10
   6  -4  12   21.80    3.60
  -6  -4 -12   24.70    3.50
   6   4  12   27.90    4.10
  -6   4 -12   24.20    3.00
  -6   4 -12   24.70    3.50
   6   4  12   27.20    3.30
   6   4  12   18.80    4.50
   6   4  12   21.90    3.70
  -6   4 -12   25.00    2.80
   7  -4  12   43.10    3.60
  -7  -4 -12   41.80    4.20
  -7  -4 -12   39.60    4.70
   7  -4  12   40.70    5.00
   7  -4  12   43.10    5.60
   7  -4  12   47.10    4.60
   7   4  12   40.00    5.40
   7   4  12   46.10    4.80
   7   4  12   46.60    6.00
  -7   4 -12   47.10    3.90
   7   4  12   50.39    4.40
  -7   4 -12   46.80    3.50
   8  -4  12   -1.40    2.40
  -8  -4 -12   -2.90    2.00
  -8  -4 -12    1.00    2.20
   8  -4  12    1.00    4.50
   8  -4  12    0.00    4.10
   8  -4  12   -4.80    4.00
   8   4  12    1.60    2.40
  -8   4 -12    5.40    2.30
   8   4  12   -1.10    3.70
   8   4  12   -0.70    2.80
  -8   4 -12   -0.70    2.10
   8   4  12    1.80    4.30
  -9  -4 -12   37.20    4.30
   9  -4  12   27.10    4.20
   9  -4  12   33.70    5.80
   9  -4  12   36.50    5.90
  -9  -4 -12   33.30    4.50
  -9   4 -12   36.10    4.10
   9   4  12   31.80    5.40
   9   4  12   23.60    4.20
   9   4  12   33.70    5.50
  -9   4 -12   34.60    3.80
   9   4  12   37.00    4.60
 -10  -4 -12   13.20    3.20
  10  -4  12    4.30    3.00
  10  -4  12    7.70    5.50
 -10  -4 -12    8.30    3.10
  10  -4  12   11.50    5.80
 -10   4 -12    6.60    3.80
  10   4  12    9.80    4.90
  10   4  12   11.30    2.90
  10   4  12   16.30    5.20
 -10   4 -12    8.50    2.40
  10   4  12   13.50    3.70
   7  -5 -12   14.30    7.10
   7  -5 -12    3.40    2.70
  -7  -5  12   10.60    4.60
  -7  -5  12    6.10    2.50
   7  -5 -12    6.30    2.50
  -7   5  12    0.60    5.80
   7   5 -12    2.60    3.50
  -7   5  12    6.90    6.30
   7   5 -12   -1.90    2.60
  -6  -5  12    0.30    2.50
   6  -5 -12    8.00    5.30
  -6  -5  12   10.20    4.10
   6  -5 -12    4.10    3.00
   6  -5 -12   -1.60    2.30
  -6   5  12    5.10    4.60
  -6   5  12    1.30    3.20
   6   5 -12    2.80    3.00
  -6   5  12    1.60    4.80
   6   5 -12   -2.30    3.10
   5  -5 -12   14.30    5.30
  -5  -5  12   13.70    3.10
   5  -5 -12    4.60    2.60
  -5  -5  12    9.60    4.30
   5  -5 -12   13.80    2.60
   5   5 -12    8.50    3.00
  -5   5  12   12.50    3.40
  -5   5  12    2.20    4.50
   5   5 -12    8.80    3.10
  -5   5  12   13.60    4.40
  -4  -5  12    4.80    2.70
   4  -5 -12    4.70    2.20
   4  -5 -12    7.30    2.60
  -4  -5  12   10.30    4.50
   4  -5 -12    2.30    4.40
  -4   5  12    4.90    3.20
   4   5 -12    5.80    2.90
  -4   5  12   12.60    4.20
  -4   5  12   -4.30    4.30
   4   5 -12    2.90    2.50
  -3  -5  12   96.29    8.00
  -3  -5  12   62.99    5.40
   3  -5 -12   71.19    6.00
   3  -5 -12   64.09    3.90
  -3   5  12   79.39    9.30
  -3   5  12   67.19    7.60
   3   5 -12   66.39    5.50
   3   5 -12   74.89    5.70
  -3   5  12   69.39    5.40
  -2  -5  12    8.50    2.80
  -2  -5  12   19.80    4.60
   2  -5 -12   10.70    2.60
   2  -5 -12   14.40    4.70
  -2   5  12   10.40    5.00
  -2   5  12   11.70    3.90
   2   5 -12   13.00    2.80
  -2   5  12   10.10    2.90
   2   5 -12    8.50    3.30
  -1  -5  12   19.30    3.00
  -1  -5  12   31.10    5.00
   1  -5 -12   18.90    4.50
   1  -5 -12   19.50    3.80
  -1   5  12   24.40    4.20
   1   5 -12   22.60    3.60
   1   5 -12   22.80    3.20
  -1   5  12   17.50    5.30
  -1   5  12   23.00    3.90
   0  -5 -12    7.50    4.50
   0  -5 -12   11.20    4.40
   0  -5  12   20.40    4.40
   0  -5 -12    2.00    2.60
   0  -5  12    8.60    2.50
   0   5 -12    5.00    2.30
   0   5 -12    5.60    2.90
   0   5  12    5.00    4.40
   0   5  12    7.30    3.10
   0   5  12    6.80    3.40
   1  -5  12    2.80    2.40
  -1  -5 -12    4.00    2.50
  -1  -5 -12   -1.30    4.00
   1  -5  12    3.40    2.30
   1  -5  12    2.80    4.10
   1   5  12    1.20    3.50
  -1   5 -12    4.50    2.50
  -1   5 -12    0.50    2.20
   1   5  12    2.40    2.60
   2  -5  12   43.60    4.40
   2  -5  12   48.90    6.60
  -2  -5 -12   44.90    4.50
  -2  -5 -12   47.70    5.80
  -2  -5 -12   48.00    4.90
   2  -5  12   44.30    4.50
   2   5  12   58.29    6.60
  -2   5 -12   49.70    4.60
  -2   5 -12   43.80    4.50
   2   5  12   46.20    4.80
   2   5  12   46.20    6.70
  -3  -5 -12   13.60    2.80
  -3  -5 -12   12.80    5.00
   3  -5  12    9.40    3.00
  -3  -5 -12    6.60    2.90
   3  -5  12    7.40    2.60
   3  -5  12   13.00    4.50
  -3   5 -12    6.70    2.80
   3   5  12    8.80    2.70
  -3   5 -12   15.10    2.60
   3   5  12    9.40    3.20
   3   5  12    4.80    4.00
   4  -5  12   13.40    3.10
   4  -5  12    5.20    2.60
   4  -5  12   10.30    5.00
   4  -5  12   11.40    3.10
  -4  -5 -12   12.80    4.20
  -4  -5 -12   13.70    3.20
   4   5  12    9.50    3.00
  -4   5 -12   10.90    2.80
   4   5  12    7.30    4.10
  -4   5 -12   14.20    2.80
   4   5  12   12.20    3.50
  -4   5 -12    7.40    2.80
   5  -5  12   -0.40    2.70
   5  -5  12    5.70    5.30
   5  -5  12    2.80    2.60
  -5  -5 -12   -1.40    3.90
   5  -5  12    6.80    3.20
  -5  -5 -12    4.20    2.50
  -5   5 -12    6.00    2.40
   5   5  12   -3.40    4.70
  -5   5 -12    8.60    2.60
   5   5  12   -0.40    3.40
  -5   5 -12   -0.30    2.60
   5   5  12   -0.50    2.70
  -6  -5 -12   -0.90    2.60
  -6  -5 -12   -2.70    2.70
   6  -5  12   -5.70    6.00
   6  -5  12    4.60    2.80
   6  -5  12   -1.60    4.00
   6  -5  12   -2.00    2.50
  -6  -5 -12   -3.00    4.00
  -6   5 -12   -2.20    2.50
  -6   5 -12    0.40    2.90
  -6   5 -12    4.50    2.50
   6   5  12   -0.40    3.00
   6   5  12    5.10    3.60
  -7  -5 -12    5.00    3.00
   7  -5  12   10.00    6.90
  -7  -5 -12    5.70    2.60
   7   5  12    1.90    4.10
  -7   5 -12    7.20    4.10
  -7   5 -12    3.10    2.50
   7   5  12   -4.00    7.40
 -15   0  13    2.00    3.40
  15   0 -13    3.70    2.90
 -15   0  13    2.00    2.90
  15   0 -13    6.30    2.90
  14   0 -13    3.40    2.80
  14   0 -13   -4.50    2.20
  14   0 -13    3.50    2.70
 -14   0  13   -3.70    4.30
  13   0 -13  115.19    6.70
  13   0 -13  118.69    6.80
 -13   0  13  115.79    8.80
  13   0 -13  120.19    5.50
  12   0 -13   -0.10    2.20
 -12   0  13   -3.50    3.10
  12   0 -13    2.30    1.80
  12   0 -13   -2.70    1.90
  11   0 -13    7.00    2.50
 -11   0  13    9.10    2.90
  11   0 -13    5.60    2.20
  11   0 -13   10.00    2.10
  10   0 -13   -0.40    1.90
  10   0 -13   -0.60    1.60
  10   0 -13    1.60    1.80
 -10   0  13    2.00    2.30
   9   0 -13  448.26   14.20
  -9   0  13  417.16   16.00
   9   0 -13  432.06   15.10
   9   0 -13  427.06   15.10
   8   0 -13   -0.30    1.40
   8   0 -13   -1.40    1.40
  -8   0  13   -1.30    1.70
   8   0 -13   -2.00    1.40
   7   0 -13  131.99    6.10
  -7   0  13  140.99    7.00
   7   0 -13  142.99    5.80
   7   0 -13  137.79    6.10
   6   0 -13   -1.40    1.30
   6   0 -13    0.30    1.10
  -6   0  13    0.20    1.50
  -6   0  13    1.50    2.00
   6   0 -13   -1.80    1.40
  -5   0  13   19.60    3.00
   5   0 -13   23.20    2.30
   5   0 -13   17.90    2.20
   5   0 -13   18.00    2.20
  -5   0  13   17.60    2.60
  -4   0  13   -0.20    1.10
   4   0 -13    0.10    1.00
   4   0 -13    1.30    1.10
   4   0 -13    2.80    1.30
  -4   0  13    2.20    1.40
  -3   0  13   18.50    2.20
   3   0 -13   22.30    2.10
  -3   0  13   20.00    2.90
   3   0 -13   21.90    2.00
   2   0 -13    0.90    0.90
  -2   0  13    0.00    0.90
  -2   0  13    2.40    1.50
  -1   0  13    0.40    1.30
  -1   0  13    1.30    0.90
   1   0 -13    1.70    1.10
   1   0 -13    1.50    0.90
   0   0  13    1.40    0.90
   0   0  13    1.30    1.30
   0   0 -13    1.10    0.90
   0   0 -13   -0.40    1.10
   0   0  13    0.10    1.00
   1   0  13  292.47    9.20
  -1   0 -13  299.07    8.90
   1   0  13  269.27   10.50
   1   0  13  267.77   10.10
   1   0  13  285.67    9.20
   2   0  13    0.90    1.30
   2   0  13    1.60    1.10
  -2   0 -13    0.40    0.90
   2   0  13   -0.30    1.10
  -2   0 -13    1.70    1.40
   2   0  13    1.50    0.90
  -3   0 -13    2.30    1.40
  -3   0 -13   -0.90    0.90
   3   0  13    1.50    1.10
   3   0  13   -0.10    1.20
   3   0  13    0.40    1.30
   3   0  13    0.80    0.70
  -4   0 -13    0.30    1.00
   4   0  13    0.70    1.20
   4   0  13    1.10    0.70
  -4   0 -13   -0.30    1.20
   4   0  13    4.40    1.70
   4   0  13    1.40    1.40
   5   0  13   24.10    2.30
  -5   0 -13   18.30    1.70
   5   0  13   19.00    1.50
  -5   0 -13   17.80    2.40
   5   0  13   17.40    2.60
   5   0  13   17.20    2.40
   5   0  13   15.90    2.60
   6   0  13   -0.40    1.80
  -6   0 -13    0.90    1.10
   6   0  13    1.40    1.30
  -6   0 -13   -2.10    1.10
   6   0  13    1.20    1.30
   6   0  13    0.80    1.40
  -7   0 -13  255.97    8.50
  -7   0 -13  232.88    9.80
   7   0  13  255.47   10.00
   7   0  13  252.97   10.70
   7   0  13  254.37    9.40
   7   0  13  269.57    9.80
   8   0  13    3.30    1.70
  -8   0 -13    0.00    1.60
   8   0  13   -2.40    2.50
   8   0  13    0.90    1.70
  -8   0 -13    0.10    1.30
   8   0  13   -1.90    1.60
  -9   0 -13   17.60    2.90
   9   0  13   21.90    2.80
   9   0  13   16.20    2.80
   9   0  13   18.20    3.10
  -9   0 -13   19.20    2.40
   9   0  13   18.10    3.60
  10   0  13    0.70    2.50
  10   0  13   -1.50    1.70
  10   0  13   -1.60    2.00
 -10   0 -13   -0.90    1.70
 -10   0 -13   -2.00    1.50
  11   0  13    6.40    4.00
 -11   0 -13    9.40    2.60
  11   0  13   10.80    2.60
 -11   0 -13    8.20    2.30
  11   0  13   10.10    2.30
  11   0  13    2.80    2.20
  12   0  13    0.60    2.20
  12   0  13   -1.90    2.90
  12   0  13    0.90    2.00
 -12   0 -13   -5.30    2.20
  12   0  13    7.30    4.30
 -12   0 -13    4.30    2.30
 -13   0 -13   58.29    4.40
  13   0  13   52.89    5.10
  13   0  13   58.89    5.00
 -13   0 -13   47.30    5.00
  13   0  13   67.49    9.10
  13   0  13   43.70    5.80
 -14   0 -13    0.70    2.70
  14   0  13   -0.60    3.00
 -14   0 -13    2.90    2.30
  14   0  13    1.20    3.10
  14   0  13   -4.90    3.90
 -14   0 -13   -2.70    3.30
  14  -1 -13    4.40    2.80
 -14  -1  13    7.80    4.60
  14  -1 -13    6.50    2.50
 -14  -1  13    6.80    2.60
  14   1 -13    3.20    2.10
  14   1 -13    1.20    2.70
 -14   1  13   -3.70    4.50
  14   1 -13    4.10    3.30
 -13  -1  13    0.70    3.70
 -13  -1  13    9.10    2.20
  13  -1 -13    3.40    2.50
  13  -1 -13    3.20    2.00
  13   1 -13    4.50    2.80
 -13   1  13   -0.60    3.70
  13   1 -13    2.80    2.00
  13   1 -13    3.80    2.60
  12  -1 -13   -2.00    2.00
  12  -1 -13    0.80    2.30
 -12  -1  13   -2.60    3.10
 -12  -1  13    2.50    2.00
  12   1 -13   -2.80    2.50
  12   1 -13    1.20    2.00
  12   1 -13   -1.50    2.20
 -12   1  13    1.20    3.50
 -11  -1  13    2.20    2.80
  11  -1 -13    2.20    1.70
 -11  -1  13   -0.10    1.60
  11  -1 -13    2.20    2.40
  11   1 -13    1.90    1.90
  11   1 -13   -0.20    2.40
  11   1 -13    0.40    2.10
 -11   1  13    0.90    3.10
 -10  -1  13    4.10    1.80
 -10  -1  13    9.80    2.90
  10  -1 -13    4.20    2.30
  10  -1 -13    8.30    2.20
  10   1 -13   11.40    2.90
  10   1 -13    2.90    1.60
  10   1 -13    2.80    2.20
 -10   1  13    3.80    2.60
   9  -1 -13  151.18    6.40
   9  -1 -13  138.89    6.80
  -9  -1  13  144.29    7.60
  -9  -1  13  135.19    6.20
  -9   1  13  133.59    7.90
   9   1 -13  134.69    6.90
   9   1 -13  144.59    6.50
   9   1 -13  136.19    6.50
   8  -1 -13  104.79    5.40
   8  -1 -13  102.49    4.90
  -8  -1  13   94.89    5.90
  -8  -1  13  101.39    5.00
   8   1 -13   99.79    5.10
   8   1 -13  100.99    5.50
  -8   1  13  102.39    6.40
   8   1 -13   93.99    5.20
   7  -1 -13  141.79    6.50
   7  -1 -13  146.69    6.00
  -7  -1  13  136.39    7.20
  -7  -1  13  142.69    6.30
  -7  -1  13  141.39    6.90
   7   1 -13  137.09    6.00
  -7   1  13  149.49    7.50
   7   1 -13  145.99    6.30
   7   1 -13  145.99    6.60
  -6  -1  13   96.69    5.60
  -6  -1  13   94.29    5.20
   6  -1 -13   95.99    4.80
   6  -1 -13  102.59    4.40
  -6  -1  13   89.19    4.90
  -6   1  13   94.29    6.20
   6   1 -13   97.09    4.80
  -6   1  13   98.99    5.70
   6   1 -13   98.39    4.60
   6   1 -13   94.79    5.00
  -5  -1  13   27.90    3.40
   5  -1 -13   37.00    2.60
   5  -1 -13   29.30    2.70
  -5  -1  13   31.40    2.90
  -5  -1  13   29.40    2.90
   5   1 -13   30.10    2.80
   5   1 -13   30.10    2.50
  -5   1  13   28.80    4.00
  -5   1  13   29.70    3.30
   5   1 -13   31.70    2.70
  -4  -1  13   48.20    3.70
   4  -1 -13   52.09    3.10
   4  -1 -13   51.89    2.70
  -4  -1  13   49.70    3.40
  -4  -1  13   48.00    3.20
   4   1 -13   48.00    3.30
   4   1 -13   47.60    3.20
   4   1 -13   50.99    2.90
  -4   1  13   42.00    3.80
  -4   1  13   50.19    4.40
  -3  -1  13   40.50    2.70
   3  -1 -13   34.10    2.60
  -3  -1  13   39.30    3.00
   3  -1 -13   39.80    2.10
  -3  -1  13   40.10    3.30
   3   1 -13   39.90    3.00
   3   1 -13   35.20    2.30
  -3   1  13   35.50    3.80
   3   1 -13   43.20    3.00
  -3   1  13   32.20    3.20
  -2  -1  13  142.39    6.20
  -2  -1  13  134.39    6.20
   2  -1 -13  151.78    5.70
  -2  -1  13  144.69    5.40
  -2   1  13  128.59    6.80
  -2   1  13  128.39    6.20
   2   1 -13  139.99    5.90
   2   1 -13  148.09    5.00
   1  -1 -13   34.50    2.90
  -1  -1  13   38.90    2.20
  -1  -1  13   38.60    3.30
  -1  -1  13   38.20    3.00
   1  -1 -13   31.90    2.50
  -1   1  13   35.00    3.60
   1   1 -13   35.60    2.70
   1   1 -13   37.80    1.90
  -1   1  13   33.20    2.90
   1   1 -13   36.40    2.80
   0  -1  13  225.18    8.60
   0  -1  13  219.48    7.10
   0  -1 -13  211.28    8.50
   0  -1  13  217.08    8.60
   0   1 -13  222.68    8.40
   0   1  13  220.48    9.20
   0   1  13  221.78    8.30
   0   1 -13  221.58    8.20
   0   1  13  231.18    8.50
   0   1 -13  224.98    6.80
  -1  -1 -13   47.40    2.80
   1  -1  13   51.39    3.10
   1  -1  13   51.19    3.60
  -1  -1 -13   47.90    3.50
   1  -1  13   48.70    3.40
   1   1  13   49.10    1.90
  -1   1 -13   42.00    3.00
   1   1  13   45.30    3.90
   1   1  13   49.80    3.20
   1   1  13   47.90    3.20
   2  -1  13   90.59    4.80
  -2  -1 -13   88.69    3.90
  -2  -1 -13   81.69    4.70
   2  -1  13   84.29    4.70
   2  -1  13   89.29    4.20
  -2   1 -13   85.39    4.30
   2   1  13   92.29    4.50
   2   1  13   85.99    3.10
   2   1  13   80.89    4.40
   2   1  13   88.09    5.20
   3  -1  13  120.69    5.20
  -3  -1 -13  117.99    4.80
  -3  -1 -13  114.29    5.60
   3  -1  13  117.59    5.80
   3  -1  13  116.99    5.70
  -3   1 -13  110.09    5.20
   3   1  13  118.69    5.20
   3   1  13  113.79    6.10
   3   1  13  120.89    4.30
   3   1  13  113.89    5.50
  -4  -1 -13    8.20    1.50
   4  -1  13    9.70    1.70
   4  -1  13    5.90    1.70
   4  -1  13    5.70    1.70
  -4  -1 -13    5.10    1.90
   4   1  13    7.20    1.90
   4   1  13    8.70    1.80
   4   1  13    5.00    1.60
  -4   1 -13    5.10    1.50
   4   1  13    8.10    1.30
  -5  -1 -13    8.40    1.60
   5  -1  13    8.10    2.10
   5  -1  13    9.00    1.90
   5  -1  13    8.90    1.90
  -5  -1 -13    8.70    2.10
   5   1  13    5.30    1.50
   5   1  13    7.60    1.70
   5   1  13    7.70    1.90
   5   1  13    8.70    2.10
   5   1  13    7.90    1.60
  -5   1 -13    7.60    1.80
  -6  -1 -13  102.19    5.40
  -6  -1 -13  107.39    4.70
   6  -1  13   97.39    5.00
   6  -1  13  104.39    6.20
   6  -1  13  108.49    5.70
   6   1  13  110.09    5.30
   6   1  13  105.99    4.60
   6   1  13   98.79    5.40
   6   1  13  104.69    4.80
  -6   1 -13   97.99    5.20
   6   1  13   98.89    6.00
  -7  -1 -13    1.30    1.70
   7  -1  13    3.80    1.80
   7  -1  13    0.20    1.70
  -7  -1 -13    3.30    1.70
   7  -1  13   -1.40    1.90
   7   1  13   -0.90    1.60
  -7   1 -13   -0.80    1.40
   7   1  13    0.60    1.50
   7   1  13    2.10    2.00
   7   1  13    2.00    1.40
   7   1  13    1.00    1.40
   8  -1  13   14.00    2.80
  -8  -1 -13   10.10    2.20
   8  -1  13   13.10    2.30
   8  -1  13   13.20    3.10
  -8  -1 -13   18.70    2.50
   8  -1  13   14.50    2.70
  -8   1 -13   17.20    1.80
   8   1  13   14.60    2.80
   8   1  13   22.00    3.70
   8   1  13   15.30    2.20
   8   1  13   21.10    2.90
  -8   1 -13   15.10    1.80
  -8   1 -13   16.00    2.60
   8   1  13   14.90    2.30
   9  -1  13   78.79    6.60
  -9  -1 -13   68.09    5.00
   9  -1  13   72.69    4.90
   9  -1  13   75.79    4.80
  -9  -1 -13   69.79    4.20
   9  -1  13   84.29    5.60
  -9   1 -13   76.59    4.90
  -9   1 -13   79.09    3.50
   9   1  13   79.19    6.70
   9   1  13   66.79    4.40
  -9   1 -13   83.19    3.90
   9   1  13   69.09    5.10
   9   1  13   78.49    4.80
   9   1  13   82.19    4.60
  10  -1  13    1.60    3.70
 -10  -1 -13    2.00    1.80
  10  -1  13    2.10    2.00
  10  -1  13    1.40    2.00
  10  -1  13    6.00    2.60
 -10  -1 -13    8.20    2.10
  10   1  13    4.50    3.10
 -10   1 -13    4.40    1.70
  10   1  13    4.20    1.90
  10   1  13    3.10    2.40
  10   1  13    1.30    1.80
 -10   1 -13    5.90    1.90
  11  -1  13   22.60    3.40
  11  -1  13   18.50    4.50
 -11  -1 -13   23.70    3.20
  11  -1  13   23.00    3.70
 -11  -1 -13   23.20    3.20
  11  -1  13   22.20    3.30
  11   1  13   20.80    3.20
  11   1  13   19.40    4.40
 -11   1 -13   20.60    3.30
  11   1  13   26.30    3.70
 -11   1 -13   25.20    3.30
  11   1  13   28.50    3.20
  12  -1  13    1.60    3.50
 -12  -1 -13   -3.10    1.80
  12  -1  13    3.30    2.30
 -12  -1 -13    2.20    2.50
  12  -1  13    2.80    4.50
  12  -1  13   -2.50    2.20
  12   1  13   -4.20    2.40
  12   1  13   -0.20    4.20
  12   1  13    2.80    2.40
 -12   1 -13    0.80    2.00
  12   1  13    0.40    2.40
 -12   1 -13   -0.30    2.40
  13  -1  13   -3.20    3.30
  13  -1  13   -1.50    2.20
  13  -1  13    7.40    5.70
 -13  -1 -13    1.80    2.50
 -13  -1 -13   -0.40    2.50
  13  -1  13    0.40    2.70
  13   1  13   -1.00    4.40
  13   1  13   -4.90    2.50
  13   1  13    1.60    2.60
 -13   1 -13   -2.60    2.80
  13   1  13   -0.70    2.80
 -13   1 -13   -3.40    2.00
  14  -2 -13   17.90    3.60
  14  -2 -13   22.60    3.90
  14   2 -13   15.60    3.30
  14   2 -13   20.60    4.30
 -13  -2  13   35.20    4.10
  13  -2 -13   42.00    4.50
  13  -2 -13   43.40    4.90
  13  -2 -13   40.20    4.60
  13   2 -13   39.80    4.60
  13   2 -13   41.90    5.10
 -13   2  13   32.40    5.70
  12  -2 -13   10.10    2.70
 -12  -2  13    4.70    2.40
  12  -2 -13    4.00    2.90
  12  -2 -13    3.90    2.40
  12   2 -13    4.90    3.10
  12   2 -13   11.00    2.90
 -12   2  13    6.20    4.10
  11  -2 -13   -2.10    1.80
  11  -2 -13   -0.80    2.20
 -11  -2  13   -3.30    2.00
  11  -2 -13    5.50    2.70
  11   2 -13   -2.00    2.40
 -11   2  13    3.00    3.60
  11   2 -13   -1.10    2.30
  10  -2 -13    0.80    1.90
  10  -2 -13   -5.00    2.30
  10  -2 -13    2.10    1.90
 -10  -2  13    2.00    1.80
  10   2 -13   -1.10    2.20
 -10   2  13    0.40    2.70
  10   2 -13    1.70    2.30
   9  -2 -13   16.90    2.50
  -9  -2  13   16.70    2.40
   9  -2 -13   10.70    2.60
   9  -2 -13   12.80    2.70
   9   2 -13   13.90    2.90
   9   2 -13   17.70    3.50
  -9   2  13    8.00    3.40
  -8  -2  13   15.10    2.20
   8  -2 -13   15.50    3.10
   8  -2 -13   15.80    2.20
   8  -2 -13   11.10    2.60
  -8  -2  13   17.10    2.90
   8   2 -13   10.80    2.70
  -8   2  13   17.60    1.90
   8   2 -13   17.60    3.10
   7  -2 -13   26.10    3.40
  -7  -2  13   37.20    4.00
   7  -2 -13   32.30    2.70
   7  -2 -13   34.90    3.20
  -7  -2  13   32.50    3.30
   7   2 -13   22.80    3.30
  -7   2  13   29.40    4.60
  -7   2  13   31.60    2.50
   7   2 -13   27.20    3.30
  -6  -2  13   66.49    4.20
   6  -2 -13   59.19    3.90
  -6  -2  13   64.09    4.10
   6  -2 -13   61.39    3.20
   6  -2 -13   48.30    4.60
   6   2 -13   60.89    4.60
   6   2 -13   60.49    4.30
  -6   2  13   47.10    4.90
  -6   2  13   64.29    5.70
  -6   2  13   65.09    3.30
   5  -2 -13   31.40    3.80
  -5  -2  13   30.00    3.10
   5  -2 -13   36.20    2.30
  -5  -2  13   28.20    3.10
   5  -2 -13   30.20    2.90
   5   2 -13   25.60    3.00
  -5   2  13   33.00    4.40
  -5   2  13   34.40    4.10
   5   2 -13   29.40    3.20
  -5   2  13   33.60    2.50
  -4  -2  13    7.90    1.70
  -4  -2  13    7.00    1.90
   4  -2 -13    9.10    2.20
   4  -2 -13    8.20    1.30
   4  -2 -13    6.60    1.90
  -4   2  13   10.70    1.70
  -4   2  13    6.90    2.60
   4   2 -13    6.30    1.90
   4   2 -13   10.60    2.20
  -4   2  13    6.30    2.40
  -3  -2  13   47.00    3.40
   3  -2 -13   54.09    4.30
  -3  -2  13   51.29    3.80
   3  -2 -13   43.20    3.30
   3   2 -13   49.10    3.60
  -3   2  13   50.89    3.20
  -3   2  13   51.69    4.20
  -3   2  13   49.10    4.50
  -2  -2  13   69.19    4.10
  -2  -2  13   84.09    4.70
   2  -2 -13   77.39    4.20
   2  -2 -13   78.39    4.90
   2   2 -13   80.99    4.40
  -2   2  13   77.29    5.00
  -2   2  13   79.99    5.40
  -2   2  13   83.79    4.10
  -1  -2  13    3.90    1.40
  -1  -2  13    2.90    1.50
   1  -2 -13    2.70    1.60
   1  -2 -13    4.80    1.40
   1   2 -13    3.90    1.60
  -1   2  13    3.10    1.80
   1   2 -13    5.20    1.60
  -1   2  13    3.30    1.30
  -1   2  13    5.20    1.80
   0  -2  13  100.19    4.90
   0  -2 -13  108.19    5.50
   0  -2 -13  104.29    5.00
   0  -2  13  104.19    3.80
   0  -2  13  108.19    5.60
   0   2  13  104.99    6.00
   0   2  13  108.39    5.10
   0   2 -13  108.49    4.70
   0   2 -13  105.39    5.20
   0   2  13  107.99    5.70
   1  -2  13    1.80    1.40
  -1  -2 -13    2.10    1.40
   1  -2  13    2.30    1.40
   1  -2  13    0.00    1.50
  -1  -2 -13    1.70    1.80
  -1   2 -13    1.60    1.60
   1   2  13    1.40    1.30
  -1   2 -13    2.30    1.20
   1   2  13    2.10    1.50
   1   2  13    1.00    1.90
  -2  -2 -13   95.19    5.20
  -2  -2 -13   97.49    4.70
   2  -2  13   89.89    4.80
   2  -2  13   93.79    4.90
   2  -2  13   94.39    5.40
   2   2  13  100.19    5.70
  -2   2 -13   92.49    4.50
   2   2  13   98.49    5.70
  -2   2 -13   91.89    4.90
   2   2  13   98.29    5.00
  -3  -2 -13  433.36   15.30
   3  -2  13  435.56   14.90
   3  -2  13  449.95   15.50
   3  -2  13  439.26   14.90
  -3  -2 -13  435.06   14.60
  -3   2 -13  421.26   15.00
   3   2  13  440.76   13.00
   3   2  13  431.56   15.10
  -3   2 -13  440.16   14.40
   3   2  13  441.86   15.30
   3   2  13  452.05   15.80
  -4  -2 -13   80.29    4.90
   4  -2  13   82.99    5.30
   4  -2  13   78.79    4.60
   4  -2  13   76.19    5.00
  -4  -2 -13   82.19    4.30
   4   2  13   71.39    4.60
   4   2  13   78.19    4.80
   4   2  13   81.79    3.40
  -4   2 -13   72.89    4.10
   4   2  13   73.29    5.20
  -5  -2 -13   50.19    4.00
   5  -2  13   46.00    3.50
   5  -2  13   44.10    4.60
  -5  -2 -13   54.19    3.70
   5  -2  13   45.10    4.30
   5   2  13   44.10    4.40
   5   2  13   50.99    3.00
  -5   2 -13   50.59    3.40
   5   2  13   51.59    4.10
   5   2  13   45.00    3.70
   6  -2  13    4.10    2.10
   6  -2  13    2.40    1.60
  -6  -2 -13    3.10    1.90
   6  -2  13    2.00    2.10
  -6  -2 -13    4.00    1.90
   6   2  13    6.90    2.10
   6   2  13    5.10    2.00
   6   2  13   -0.60    2.00
  -6   2 -13    2.90    1.60
   6   2  13    3.70    1.70
   7  -2  13   -0.20    1.60
  -7  -2 -13   -0.40    1.80
   7  -2  13    1.00    2.30
  -7  -2 -13    4.50    2.00
   7  -2  13    4.00    2.20
   7   2  13    4.90    2.20
   7   2  13    0.90    2.00
  -7   2 -13    1.40    1.60
   7   2  13    1.80    1.90
   7   2  13    5.60    2.50
   8  -2  13    0.70    1.80
   8  -2  13    1.40    2.50
   8  -2  13   -2.20    2.60
  -8  -2 -13    0.40    2.00
  -8  -2 -13    3.70    2.00
   8   2  13   -2.90    1.70
   8   2  13    1.10    1.90
   8   2  13   -0.60    2.00
   8   2  13   -0.20    2.50
   8   2  13    2.70    1.90
  -8   2 -13   -0.50    1.50
   9  -2  13   40.60    4.00
  -9  -2 -13   53.99    4.20
   9  -2  13   56.39    6.70
   9  -2  13   38.40    5.10
  -9  -2 -13   43.20    4.10
   9   2  13   44.20    4.60
  -9   2 -13   43.40    3.90
   9   2  13   36.00    4.40
   9   2  13   46.70    6.00
   9   2  13   46.10    3.80
   9   2  13   44.10    3.80
 -10  -2 -13   -2.10    1.80
  10  -2  13    2.50    3.80
  10  -2  13    0.20    2.20
  10  -2  13    0.20    2.10
 -10  -2 -13    1.70    2.20
  10  -2  13    3.10    3.10
 -10   2 -13   -1.00    1.90
  10   2  13    2.10    3.40
 -10   2 -13    0.30    1.80
  10   2  13    0.00    2.10
  10   2  13    0.90    2.20
  10   2  13    2.10    1.90
  10   2  13    6.10    3.00
  11  -2  13   -0.10    3.20
  11  -2  13    3.30    2.20
  11  -2  13    9.60    4.30
 -11  -2 -13    3.40    2.50
 -11  -2 -13   -0.20    2.70
  11  -2  13   -5.00    2.20
  11   2  13   -1.00    2.20
  11   2  13    4.50    3.30
  11   2  13   -0.60    2.00
 -11   2 -13   -1.30    2.00
  11   2  13   -0.40    2.50
 -11   2 -13   -0.20    1.90
  11   2  13   -6.00    3.40
  12  -2  13   41.90    6.60
 -12  -2 -13   42.70    4.40
 -12  -2 -13   40.20    4.60
  12  -2  13   43.50    4.80
  12  -2  13   53.29    5.20
  12  -2  13   53.99    7.10
  12   2  13   32.20    4.60
  12   2  13   41.60    6.60
  12   2  13   41.20    5.10
  12   2  13   38.70    4.60
 -12   2 -13   40.90    4.80
 -12   2 -13   41.40    4.30
  12   2  13   44.70    4.80
  13  -2  13    8.20    4.80
  13  -2  13    3.70    2.80
 -13  -2 -13    2.20    2.40
  13  -2  13   14.10    8.20
 -13  -2 -13    5.90    2.70
  13  -2  13    1.10    2.80
  13   2  13    6.20    3.10
  13   2  13    5.90    5.40
 -13   2 -13    4.70    2.30
 -13   2 -13    6.90    3.80
  13   2  13   -0.80    3.10
  12  -3 -13   10.80    5.00
 -12  -3  13   24.10    3.30
  12  -3 -13   20.30    3.00
 -12  -3  13   26.60    3.60
  12  -3 -13   12.30    3.30
  12   3 -13   19.20    3.90
 -12   3  13   24.50    6.40
  12   3 -13   21.10    4.00
 -11  -3  13    2.00    3.80
  11  -3 -13    2.40    2.40
 -11  -3  13    0.80    2.20
 -11  -3  13    5.30    3.00
  11  -3 -13    2.80    2.00
  11  -3 -13    8.00    4.60
  11   3 -13    1.70    3.20
  11   3 -13    0.40    2.50
 -11   3  13   -4.30    4.30
  10  -3 -13    6.00    2.60
 -10  -3  13    8.60    2.90
 -10  -3  13    6.80    3.30
  10  -3 -13    4.90    3.70
  10  -3 -13    2.50    2.20
  10   3 -13    8.60    2.50
 -10   3  13    0.30    3.80
  10   3 -13    4.60    2.70
   9  -3 -13    3.20    1.90
  -9  -3  13   -4.90    2.30
   9  -3 -13    6.90    3.40
   9  -3 -13   -0.30    2.00
   9   3 -13    5.20    2.30
   9   3 -13    0.40    2.20
  -9   3  13   -0.50    3.20
   8  -3 -13  240.68   10.60
  -8  -3  13  263.37    9.90
   8  -3 -13  281.77   11.80
  -8  -3  13  249.38   10.20
   8  -3 -13  261.87    9.30
  -8   3  13  270.57   12.70
   8   3 -13  250.77   11.10
   8   3 -13  241.68   11.10
  -7  -3  13  102.69    5.90
  -7  -3  13   99.19    5.10
   7  -3 -13   90.79    4.40
   7  -3 -13   82.49    6.70
   7  -3 -13   86.59    5.70
   7   3 -13   88.69    5.90
  -7   3  13   92.79    7.50
  -7   3  13   97.79    7.80
   7   3 -13   88.09    5.60
  -7   3  13   90.29    4.10
   6  -3 -13   18.90    2.40
   6  -3 -13   18.50    3.00
   6  -3 -13   20.70    3.40
  -6  -3  13   26.60    3.60
  -6  -3  13   19.00    2.30
  -6   3  13   18.20    4.30
   6   3 -13   22.10    3.20
  -6   3  13   23.20    3.00
  -6   3  13   14.80    3.70
   6   3 -13   12.80    2.90
   5  -3 -13   35.00    4.50
   5  -3 -13   28.30    3.20
  -5  -3  13   30.60    2.70
   5  -3 -13   29.90    2.30
  -5  -3  13   34.70    4.50
   5   3 -13   25.00    3.60
  -5   3  13   37.50    5.50
  -5   3  13   33.10    3.20
   5   3 -13   30.50    4.20
  -5   3  13   24.50    3.90
  -4  -3  13    3.10    1.30
   4  -3 -13    3.40    1.60
   4  -3 -13    2.40    2.40
  -4  -3  13    2.40    2.10
   4  -3 -13    0.90    1.20
  -4   3  13   -1.00    1.70
   4   3 -13    7.40    2.20
  -4   3  13    1.30    2.40
  -4   3  13   -0.70    2.20
  -3  -3  13    2.00    1.20
   3  -3 -13    3.30    1.50
   3  -3 -13    2.20    2.50
  -3  -3  13    6.50    2.40
  -3  -3  13    5.20    1.70
  -3   3  13    4.50    2.00
   3   3 -13    5.50    2.20
  -3   3  13    1.90    2.50
  -3   3  13    1.80    2.30
   2  -3 -13   92.29    5.30
  -2  -3  13   95.59    4.20
  -2  -3  13  103.99    4.50
   2  -3 -13   92.99    6.40
  -2  -3  13   89.49    5.80
  -2   3  13   96.29    6.20
  -2   3  13   82.89    6.10
  -2   3  13   93.59    4.90
   2   3 -13   93.79    5.60
   1  -3 -13  191.38    8.90
  -1  -3  13  186.08    6.80
   1  -3 -13  181.48    8.00
  -1  -3  13  187.28    6.90
  -1  -3  13  195.38    8.60
  -1   3  13  166.08    8.70
  -1   3  13  177.58    7.60
  -1   3  13  194.48    9.10
   1   3 -13  185.18    8.20
   0  -3 -13   65.09    4.30
   0  -3 -13   72.39    5.20
   0  -3  13   66.29    3.40
   0  -3  13   57.89    4.90
   0  -3  13   62.29    3.60
   0   3 -13   67.39    3.40
   0   3  13   61.69    5.50
   0   3  13   55.49    4.20
   0   3 -13   62.59    4.50
   0   3  13   67.29    5.30
  -1  -3 -13    0.10    2.10
  -1  -3 -13    0.70    1.70
   1  -3  13    0.30    1.70
  -1  -3 -13   -1.30    1.60
   1  -3  13    1.00    1.50
   1  -3  13    1.10    1.90
   1  -3  13    1.90    2.20
  -1   3 -13    2.70    1.50
   1   3  13   -0.70    2.20
  -1   3 -13    0.60    1.70
   1   3  13   -1.10    1.90
   1   3  13    4.70    2.40
  -2  -3 -13  434.06   15.60
   2  -3  13  449.06   13.10
   2  -3  13  435.06   15.60
  -2  -3 -13  427.46   15.40
   2  -3  13  439.06   14.70
   2  -3  13  447.46   16.30
  -2  -3 -13  459.95   15.70
  -2   3 -13  408.26   15.40
   2   3  13  471.55   16.30
  -2   3 -13  434.56   14.30
   2   3  13  423.26   15.40
   2   3  13  458.75   16.40
  -3  -3 -13    3.90    1.90
   3  -3  13    3.00    2.20
   3  -3  13    2.20    1.90
   3  -3  13    1.50    1.80
  -3  -3 -13    0.60    1.40
   3   3  13   -0.50    2.30
  -3   3 -13    0.20    1.30
  -3   3 -13    2.10    1.80
   3   3  13    1.40    2.60
   3   3  13    3.00    2.20
  -4  -3 -13    1.10    1.70
   4  -3  13    3.50    1.90
   4  -3  13    0.20    2.40
  -4  -3 -13    1.50    2.00
   4  -3  13    1.30    2.20
   4   3  13   -1.10    2.10
  -4   3 -13    3.10    1.60
   4   3  13    2.90    2.20
   4   3  13    1.10    1.70
   4   3  13    2.40    2.30
  -4   3 -13    5.70    2.00
   5  -3  13   29.30    3.70
   5  -3  13   36.00    3.70
  -5  -3 -13   30.60    3.50
  -5  -3 -13   27.40    3.30
   5  -3  13   31.20    4.60
  -5   3 -13   31.60    2.90
   5   3  13   32.10    4.50
   5   3  13   25.00    2.90
   5   3  13   32.90    4.00
   5   3  13   31.50    3.80
  -6  -3 -13   26.50    3.60
   6  -3  13   32.20    4.20
  -6  -3 -13   31.40    3.40
   6  -3  13   28.80    3.40
   6  -3  13   30.20    4.00
   6   3  13   24.10    3.10
   6   3  13   26.80    3.90
   6   3  13   27.50    3.70
  -6   3 -13   21.20    2.80
   6   3  13   21.70    3.30
   7  -3  13   63.69    6.30
   7  -3  13   62.49    5.80
  -7  -3 -13   51.09    4.30
   7  -3  13   55.29    4.60
  -7  -3 -13   58.69    4.80
  -7   3 -13   54.09    4.10
   7   3  13   55.49    6.00
   7   3  13   56.29    4.80
   7   3  13   52.49    4.00
   7   3  13   58.19    5.70
  -8  -3 -13   16.80    3.10
   8  -3  13   12.50    4.00
   8  -3  13   15.80    3.80
  -8  -3 -13   12.00    2.70
   8  -3  13   10.50    2.60
   8   3  13   16.30    3.40
   8   3  13   14.50    3.30
  -8   3 -13   13.60    2.60
   8   3  13   11.20    3.40
   8   3  13   15.10    2.90
  -9  -3 -13   13.20    3.20
   9  -3  13   10.80    3.80
  -9  -3 -13    8.30    2.90
   9  -3  13    5.90    2.70
   9  -3  13   16.60    4.20
   9   3  13   13.50    2.90
   9   3  13    7.30    3.00
   9   3  13   13.00    3.90
   9   3  13   10.40    2.40
  -9   3 -13    8.50    2.20
   9   3  13    5.20    3.20
 -10  -3 -13   17.10    3.30
  10  -3  13   33.40    5.40
  10  -3  13   23.20    3.80
 -10  -3 -13   29.00    3.90
  10  -3  13   21.80    5.20
 -10   3 -13   25.30    2.90
  10   3  13   33.90    5.80
  10   3  13   19.70    3.50
  10   3  13   22.30    4.60
  10   3  13   15.30    3.10
  10   3  13   26.00    3.90
 -10   3 -13   22.00    3.20
  11  -3  13    0.20    2.60
 -11  -3 -13    1.60    2.60
  11  -3  13   -1.60    5.20
 -11  -3 -13   -3.80    2.30
  11  -3  13    8.00    5.00
  11  -3  13   -0.90    2.50
 -11   3 -13   -2.30    2.00
  11   3  13   -1.60    4.00
  11   3  13    0.90    2.80
 -11   3 -13    1.20    2.20
  11   3  13    1.30    3.10
  11   3  13    2.70    4.30
  11   3  13   -0.50    2.60
  10  -4 -13    4.70    2.70
 -10  -4  13    7.80    3.50
  10  -4 -13   -2.40    2.30
  10  -4 -13    6.90    5.00
 -10  -4  13    4.50    2.50
  10   4 -13    2.00    3.00
 -10   4  13   10.20    5.90
  10   4 -13    4.90    2.80
 -10   4  13   -6.90    7.20
   9  -4 -13    0.00    2.20
   9  -4 -13    0.50    4.20
  -9  -4  13    3.80    3.30
   9  -4 -13    2.70    2.30
  -9   4  13    9.20    5.30
   9   4 -13    1.10    2.30
  -9   4  13   -6.30    5.10
   9   4 -13    5.60    2.90
   8  -4 -13   -4.90    3.80
   8  -4 -13   -3.30    2.10
   8  -4 -13   -3.10    2.10
  -8  -4  13   -0.40    3.50
  -8   4  13    7.20    5.00
   8   4 -13    1.20    2.50
   8   4 -13   -2.90    2.10
  -8   4  13   -0.60    4.30
   7  -4 -13    5.60    2.30
   7  -4 -13   -7.80    3.50
  -7  -4  13    2.40    2.30
  -7  -4  13    6.80    3.00
   7  -4 -13   -0.20    2.20
   7   4 -13    1.00    2.30
  -7   4  13   -2.10    4.00
  -7   4  13   -6.00    4.10
   7   4 -13    0.10    2.10
  -6  -4  13   39.80    5.70
   6  -4 -13   47.40    3.20
   6  -4 -13   46.30    5.80
   6  -4 -13   40.20    3.90
  -6  -4  13   33.60    3.90
  -6   4  13   44.20    3.70
   6   4 -13   40.30    4.50
  -6   4  13   26.80    4.70
  -6   4  13   46.30    7.10
  -5  -4  13   31.00    3.50
   5  -4 -13   32.60    5.00
   5  -4 -13   28.90    3.60
  -5  -4  13   32.10    4.30
   5  -4 -13   29.00    2.60
  -5   4  13   23.90    4.50
   5   4 -13   26.40    3.80
  -5   4  13   26.90    3.30
  -5   4  13   30.50    4.70
   5   4 -13   25.30    3.90
   4  -4 -13    4.70    1.70
  -4  -4  13    4.90    2.00
   4  -4 -13    6.40    3.50
   4  -4 -13    2.30    1.90
  -4  -4  13    3.20    2.70
  -4   4  13    3.10    2.20
  -4   4  13    5.80    3.30
  -4   4  13    2.90    3.40
   4   4 -13    4.30    2.40
   4   4 -13    3.70    2.00
  -3  -4  13   12.30    2.70
   3  -4 -13   16.00    3.60
  -3  -4  13   16.40    3.50
   3  -4 -13    6.60    2.30
  -3   4  13    8.40    3.00
  -3   4  13   17.30    3.90
   3   4 -13   12.80    2.80
  -3   4  13   11.70    2.50
   3   4 -13   12.90    2.40
   2  -4 -13  118.89    7.90
   2  -4 -13  105.29    6.30
  -2  -4  13  111.19    7.30
  -2  -4  13  111.69    5.40
  -2   4  13  108.19    7.40
  -2   4  13  106.69    5.80
   2   4 -13  110.79    6.70
   2   4 -13  109.29    5.50
  -2   4  13  114.49    8.10
   1  -4 -13    6.60    3.40
  -1  -4  13   14.50    3.60
   1  -4 -13   11.60    2.50
  -1  -4  13   13.00    2.40
   1   4 -13   14.40    3.10
   1   4 -13   12.90    2.00
  -1   4  13   10.50    2.70
  -1   4  13   11.60    3.60
  -1   4  13   15.80    3.30
   0  -4  13   59.69    6.10
   0  -4 -13   62.09    4.80
   0  -4 -13   68.09    6.40
   0  -4  13   64.99    4.00
   0  -4  13   62.69    3.20
   0   4  13   62.19    6.00
   0   4  13   50.89    4.60
   0   4 -13   57.79    4.70
   0   4 -13   64.99    3.80
   0   4  13   57.59    6.50
   1  -4  13    6.00    2.30
   1  -4  13    5.70    1.70
   1  -4  13    4.40    2.10
  -1  -4 -13    1.40    3.30
   1  -4  13    7.60    3.10
  -1  -4 -13    2.60    2.00
  -1   4 -13    3.20    1.70
   1   4  13    2.60    2.30
  -1   4 -13    4.20    1.60
   1   4  13    5.40    3.70
  -1   4 -13    4.70    2.20
   1   4  13    3.50    2.50
   2  -4  13    0.50    3.10
   2  -4  13    8.20    2.20
  -2  -4 -13    8.30    2.70
   2  -4  13    8.80    2.80
  -2  -4 -13    5.90    2.90
   2  -4  13    9.00    2.10
  -2   4 -13    6.50    1.60
  -2   4 -13    8.20    1.90
   2   4  13    5.90    3.50
  -2   4 -13    3.70    2.30
   2   4  13    5.20    2.40
   2   4  13    2.00    3.00
  -3  -4 -13    0.00    2.20
   3  -4  13   -0.50    2.10
  -3  -4 -13    2.10    2.20
   3  -4  13    2.70    2.10
  -3  -4 -13   -3.70    2.80
   3  -4  13    3.80    2.00
   3  -4  13   -1.00    3.10
  -3  -4 -13   -3.60    1.80
  -3   4 -13   -0.60    1.20
   3   4  13   -2.50    3.20
   3   4  13    0.60    2.30
   3   4  13    0.60    2.60
  -3   4 -13   -1.40    1.80
  -4  -4 -13   10.70    2.60
   4  -4  13   14.20    4.10
   4  -4  13    9.00    2.80
   4  -4  13   11.00    2.10
  -4  -4 -13   10.80    3.10
   4  -4  13   14.30    2.90
  -4  -4 -13   11.50    2.50
   4   4  13    9.10    2.60
   4   4  13   13.80    3.20
  -4   4 -13    6.40    2.10
   4   4  13   11.60    3.50
  -4   4 -13   10.90    2.80
  -5  -4 -13    7.60    2.40
   5  -4  13   16.90    3.50
  -5  -4 -13   18.40    3.40
   5  -4  13   18.10    4.20
   5  -4  13   16.60    2.80
   5  -4  13   15.90    3.40
  -5   4 -13   18.30    2.40
  -5   4 -13   16.70    1.80
   5   4  13   11.60    3.80
   5   4  13   14.30    3.30
  -5   4 -13   17.00    3.10
   5   4  13   14.70    3.30
   6  -4  13   -1.40    2.00
  -6  -4 -13    2.50    2.60
   6  -4  13   -3.40    3.50
   6  -4  13    2.20    3.40
  -6  -4 -13   -1.20    2.20
   6   4  13    2.20    2.60
  -6   4 -13    0.50    1.80
   6   4  13    2.50    3.40
   6   4  13   -0.60    2.20
   6   4  13   -4.30    3.60
  -6   4 -13    2.00    1.40
  -7  -4 -13   47.10    4.70
   7  -4  13   47.60    6.90
   7  -4  13   42.50    4.40
   7  -4  13   50.19    6.50
  -7  -4 -13   58.09    5.20
   7   4  13   40.80    5.90
   7   4  13   50.39    6.50
   7   4  13   50.29    5.00
   7   4  13   49.60    4.60
  -7   4 -13   44.50    3.90
   8  -4  13    5.30    4.40
   8  -4  13    5.70    2.80
   8  -4  13    3.40    4.40
  -8  -4 -13    2.80    2.70
  -8  -4 -13    4.10    2.50
  -8   4 -13    5.00    2.30
   8   4  13   -5.70    3.60
   8   4  13    9.90    3.10
   8   4  13    7.20    2.90
   8   4  13    2.00    4.60
   9  -4  13   85.39   10.40
   9  -4  13   63.59    5.40
   9  -4  13   70.99    9.50
  -9  -4 -13   62.79    5.40
  -9  -4 -13   64.49    5.50
   9   4  13   71.89    8.50
  -9   4 -13   65.29    5.00
   9   4  13   82.69    8.60
   9   4  13   61.09    5.60
   9   4  13   67.29    6.30
   7  -5 -13    3.00    2.50
   7  -5 -13    5.20    2.90
   7  -5 -13    1.50    3.80
  -7  -5  13   -2.70    4.60
  -7  -5  13    2.30    2.50
  -7   5  13    5.70    5.40
  -7   5  13    5.00    3.60
   7   5 -13    0.80    2.50
   6  -5 -13   16.30    6.80
  -6  -5  13   15.20    3.30
  -6  -5  13   17.80    5.00
   6  -5 -13   10.10    3.40
   6  -5 -13   15.00    3.60
   6   5 -13   12.60    3.50
   6   5 -13   17.50    3.80
  -6   5  13   23.10    4.90
  -6   5  13   14.00    6.50
  -6   5  13   14.80    5.30
  -5  -5  13   38.50    4.70
   5  -5 -13   41.30    6.50
  -5  -5  13   34.10    5.60
   5  -5 -13   29.40    4.60
  -5   5  13   34.20    5.80
  -5   5  13   35.90    4.60
   5   5 -13   41.90    5.00
   5   5 -13   35.20    5.40
  -5   5  13   37.00    6.30
   4  -5 -13   -1.70    2.30
   4  -5 -13    2.70    4.70
  -4  -5  13    4.50    2.60
  -4  -5  13    3.20    4.30
   4   5 -13   -3.10    2.80
  -4   5  13   -3.10    4.70
  -4   5  13   -3.50    4.20
  -4   5  13    2.40    2.70
   4   5 -13   -1.90    2.50
   3  -5 -13    5.10    2.50
  -3  -5  13   10.70    4.10
   3  -5 -13    3.40    4.90
  -3  -5  13   10.30    2.80
   3   5 -13    2.90    3.00
  -3   5  13    7.40    4.90
  -3   5  13    6.90    4.40
  -3   5  13    6.80    2.80
   3   5 -13    6.30    2.60
   2  -5 -13   23.40    4.10
  -2  -5  13   25.90    3.50
   2  -5 -13   31.10    5.90
  -2  -5  13   19.60    4.90
  -2   5  13   25.60    4.00
   2   5 -13   24.10    3.20
  -2   5  13   19.50    4.70
   2   5 -13   25.20    4.50
  -2   5  13   18.50    5.80
   1  -5 -13    3.20    3.80
  -1  -5  13    5.10    2.80
   1  -5 -13    3.40    2.40
  -1  -5  13    8.30    4.30
   1   5 -13    9.00    2.90
  -1   5  13    1.20    5.20
  -1   5  13    4.20    3.70
   1   5 -13    7.40    2.50
  -1   5  13    5.60    3.00
   0  -5 -13   20.10    3.60
   0  -5  13   22.80    3.50
   0  -5 -13   25.80    5.30
   0  -5  13   15.90    3.50
   0  -5  13   23.70    4.80
   0   5 -13   14.70    3.20
   0   5  13   15.10    4.90
   0   5 -13   22.10    2.90
   0   5  13   18.20    3.60
   0   5  13   15.30    4.00
  -1  -5 -13    3.80    4.60
   1  -5  13   -0.50    2.40
  -1  -5 -13   -3.50    2.30
   1  -5  13   -1.30    4.50
   1  -5  13   -2.10    2.40
   1   5  13    2.10    3.70
  -1   5 -13   -0.70    2.40
  -1   5 -13   -2.10    2.30
   1   5  13    0.60    2.40
   1   5  13   -0.70    5.30
  -2  -5 -13   76.49    9.00
   2  -5  13   64.89    5.40
   2  -5  13   62.79    8.70
  -2  -5 -13   77.79    6.00
   2  -5  13   61.69    5.00
   2   5  13   63.69    5.60
  -2   5 -13   73.99    4.80
   2   5  13   75.69    7.50
   2   5  13   84.69    9.90
  -2   5 -13   67.89    5.50
  -3  -5 -13   -0.40    3.90
   3  -5  13    2.40    2.70
  -3  -5 -13    0.70    2.30
   3  -5  13    2.60    2.70
   3  -5  13    2.80    2.40
   3  -5  13    4.10    4.50
  -3   5 -13    4.60    2.20
   3   5  13   -4.10    4.30
   3   5  13   -1.40    2.50
  -3   5 -13    0.10    2.50
   3   5  13    0.70    3.50
   4  -5  13   -1.50    2.90
   4  -5  13    0.70    2.30
  -4  -5 -13    0.30    2.50
   4  -5  13    1.60    2.80
   4  -5  13    1.30    5.10
  -4  -5 -13   -2.90    4.10
   4   5  13   -2.00    4.20
  -4   5 -13    0.30    2.60
   4   5  13    4.00    3.00
  -4   5 -13    2.50    2.60
  -4   5 -13    1.00    3.30
   4   5  13    0.10    3.50
  -5  -5 -13    0.90    2.70
   5  -5  13    2.40    2.50
   5  -5  13   -9.30    6.40
  -5  -5 -13    6.30    4.10
   5  -5  13    0.20    3.60
   5  -5  13   -7.90    5.70
   5   5  13    0.40    3.80
   5   5  13   -4.10    4.80
  -5   5 -13    1.10    2.60
  -5   5 -13   -0.50    2.50
  -5   5 -13    1.40    2.60
   5   5  13   -0.60    2.40
   6  -5  13    3.60    4.10
   6  -5  13    1.20    2.50
  -6  -5 -13    0.50    2.50
   6  -5  13    4.50    4.30
  -6  -5 -13   -5.30    2.70
   6   5  13   -4.80    5.90
   6   5  13    2.50    2.90
   6   5  13   -1.90    3.90
  -6   5 -13    5.10    4.10
  -6   5 -13    1.90    2.70
  -6   5 -13    1.90    2.50
 -14   0  14   23.70    5.90
 -14   0  14   26.30    3.50
  14   0 -14   23.70    3.90
  14   0 -14   18.30    3.50
  14   0 -14   30.90    3.50
  13   0 -14    2.40    2.50
 -13   0  14   -4.60    4.10
  13   0 -14   -3.20    2.40
  13   0 -14    2.90    2.30
  12   0 -14   49.80    3.80
  12   0 -14   44.30    4.30
 -12   0  14   49.80    6.70
  12   0 -14   44.10    4.60
  11   0 -14   -2.10    1.90
  11   0 -14   -0.80    2.40
 -11   0  14   -2.60    2.70
  11   0 -14    1.00    1.90
 -10   0  14    5.00    2.70
  10   0 -14   10.70    2.80
  10   0 -14   11.60    2.50
  10   0 -14    9.90    2.00
  -9   0  14    2.40    2.20
   9   0 -14   -0.30    1.80
   9   0 -14    1.80    1.70
   9   0 -14   -1.60    1.60
   8   0 -14  936.71   27.50
   8   0 -14  904.11   28.10
   8   0 -14  887.61   28.00
  -8   0  14  841.62   28.90
  -7   0  14    0.90    1.70
  -7   0  14    1.30    2.30
   7   0 -14    0.20    1.40
   7   0 -14   -0.10    1.60
   7   0 -14    0.40    1.40
  -6   0  14   66.99    5.40
   6   0 -14   68.79    3.80
  -6   0  14   65.19    4.60
   6   0 -14   68.49    3.70
   6   0 -14   66.79    3.90
  -5   0  14   -2.30    1.70
   5   0 -14   -0.30    1.40
   5   0 -14   -1.30    1.20
   5   0 -14    1.20    1.30
  -5   0  14    0.70    1.20
   4   0 -14   15.10    2.10
   4   0 -14   18.00    2.20
  -4   0  14   15.30    2.50
  -4   0  14   17.00    2.50
   3   0 -14    0.40    1.00
  -3   0  14    0.00    1.30
  -3   0  14    1.70    1.10
   2   0 -14  125.39    4.70
  -2   0  14  116.99    5.20
  -2   0  14  114.89    6.10
  -1   0  14   -1.10    1.10
   1   0 -14   -1.10    0.90
  -1   0  14   -1.90    1.30
   1   0 -14    0.60    1.20
   0   0  14   71.29    4.30
   0   0 -14   74.59    3.10
   0   0  14   66.59    3.40
   0   0 -14   75.39    4.10
   0   0  14   72.19    3.30
   0   0  14   71.79    4.70
   1   0  14    1.30    1.50
   1   0  14   -0.20    0.80
  -1   0 -14    1.10    1.10
  -1   0 -14    1.50    0.90
   1   0  14    0.00    1.10
   1   0  14    0.30    1.10
  -2   0 -14   11.20    1.50
   2   0  14   14.80    1.70
   2   0  14   13.10    2.50
  -2   0 -14   11.70    2.20
   2   0  14   12.50    2.10
   2   0  14   14.10    1.70
  -3   0 -14    0.00    1.30
   3   0  14   -0.90    0.70
   3   0  14    0.90    1.20
   3   0  14   -1.20    1.10
   3   0  14   -1.50    1.50
  -3   0 -14   -0.20    0.90
  -4   0 -14    5.30    1.70
   4   0  14    6.80    1.90
   4   0  14    8.10    1.20
   4   0  14    7.80    1.70
   4   0  14    4.00    1.50
  -4   0 -14    9.20    1.20
   5   0  14    0.10    0.70
   5   0  14   -0.20    1.50
  -5   0 -14    0.80    1.10
   5   0  14   -1.60    1.60
  -5   0 -14   -0.90    1.30
   5   0  14    0.30    1.50
   5   0  14    1.50    1.50
   6   0  14   -0.30    1.30
  -6   0 -14   -0.10    1.10
   6   0  14   -1.00    1.70
  -6   0 -14   -2.20    1.40
   6   0  14   -1.20    1.40
   6   0  14    2.80    1.50
   7   0  14    1.00    2.20
  -7   0 -14   -0.90    1.40
   7   0  14    0.10    1.60
  -7   0 -14    0.70    1.30
   7   0  14   -0.40    1.60
   7   0  14   -0.20    1.60
   8   0  14    7.60    1.90
   8   0  14    2.60    2.00
  -8   0 -14    2.00    1.70
   8   0  14    6.00    1.90
  -8   0 -14    5.60    1.80
   8   0  14   -0.60    2.70
   9   0  14    0.30    2.60
   9   0  14    1.40    2.20
  -9   0 -14   -2.80    1.50
   9   0  14   -0.50    2.20
  -9   0 -14    1.30    1.70
   9   0  14   -1.30    1.90
 -10   0 -14   23.60    2.80
 -10   0 -14   27.40    3.50
  10   0  14   21.60    3.10
  10   0  14   22.70    3.30
  10   0  14   29.50    3.90
  10   0  14   20.90    4.20
  11   0  14   -1.30    2.20
 -11   0 -14   -0.20    2.00
  11   0  14    1.20    2.20
 -11   0 -14   -2.40    1.70
  11   0  14   -5.30    3.40
  11   0  14    0.40    2.50
  12   0  14    3.80    4.20
  12   0  14    1.40    2.50
 -12   0 -14   -0.80    1.90
 -12   0 -14   -1.00    2.30
  12   0  14    0.60    2.00
  12   0  14   -4.80    2.90
 -13   0 -14    3.20    2.50
  13   0  14    4.00    3.10
  13   0  14   -1.90    2.80
 -13   0 -14    0.50    2.40
  13   0  14    3.90    6.40
  13   0  14    2.70    2.70
 -14  -1  14   52.99    7.20
  14  -1 -14   55.39    5.20
  14  -1 -14   43.30    5.00
 -14  -1  14   49.80    5.10
  14   1 -14   49.60    4.70
  14   1 -14   40.30    4.50
 -14   1  14   43.50    7.30
  14   1 -14   42.70    5.50
  13  -1 -14   19.60    3.60
  13  -1 -14   18.60    3.60
 -13  -1  14    9.70    4.30
 -13  -1  14   23.60    3.00
  13   1 -14   15.50    3.00
  13   1 -14   17.30    3.80
 -13   1  14   21.10    5.20
  13   1 -14   18.30    3.10
  12  -1 -14    4.50    2.00
 -12  -1  14    5.60    3.00
  12  -1 -14    6.80    2.80
 -12  -1  14    8.00    2.30
 -12   1  14    5.80    3.40
  12   1 -14    8.10    3.20
  12   1 -14    2.60    2.40
  12   1 -14    4.30    2.00
 -11  -1  14   -1.30    1.90
  11  -1 -14   -1.40    1.70
 -11  -1  14   -1.40    2.70
  11  -1 -14   -0.40    2.20
  11   1 -14   -0.60    2.40
  11   1 -14   -1.40    1.90
  11   1 -14    1.80    2.30
 -11   1  14    2.70    3.20
 -10  -1  14    3.00    2.50
  10  -1 -14    4.20    2.10
 -10  -1  14    1.50    1.70
  10  -1 -14    5.60    2.20
  10   1 -14    7.80    2.20
  10   1 -14    2.90    2.30
 -10   1  14    4.70    3.10
  10   1 -14    2.80    1.80
  -9  -1  14  222.68   10.20
   9  -1 -14  230.18    9.60
   9  -1 -14  242.28    9.10
  -9  -1  14  236.68    9.10
  -9   1  14  235.78   10.80
   9   1 -14  231.88    9.20
   9   1 -14  233.58    9.30
   9   1 -14  221.28    9.70
  -8  -1  14   12.70    3.00
   8  -1 -14    9.20    2.20
   8  -1 -14   10.60    2.40
  -8  -1  14    8.40    1.90
  -8  -1  14    4.90    2.30
  -8   1  14    9.50    2.80
   8   1 -14   12.00    2.30
   8   1 -14   13.30    2.50
   8   1 -14    9.40    2.00
  -7  -1  14  563.04   19.00
   7  -1 -14  570.44   17.80
  -7  -1  14  564.54   19.50
   7  -1 -14  555.34   18.50
  -7  -1  14  555.84   18.30
   7   1 -14  563.24   18.40
   7   1 -14  544.65   18.60
  -7   1  14  546.55   19.60
  -7   1  14  550.14   20.20
   7   1 -14  554.94   18.00
   6  -1 -14    2.70    1.50
  -6  -1  14   -0.50    1.10
  -6  -1  14    1.10    1.50
   6  -1 -14    4.30    1.50
  -6  -1  14   -0.20    1.90
  -6   1  14   -1.90    1.80
   6   1 -14   -0.20    1.40
   6   1 -14   -1.60    1.60
  -6   1  14   -1.70    2.00
   6   1 -14   -0.60    1.30
   5  -1 -14  159.78    6.70
   5  -1 -14  173.38    6.10
  -5  -1  14  155.88    7.40
  -5  -1  14  165.88    7.00
  -5  -1  14  153.08    6.80
   5   1 -14  160.78    6.30
  -5   1  14  152.68    8.10
   5   1 -14  158.58    6.90
   5   1 -14  157.38    6.90
  -5   1  14  159.28    7.50
   4  -1 -14   75.09    4.00
  -4  -1  14   75.79    4.10
   4  -1 -14   76.09    3.40
  -4  -1  14   76.09    4.60
  -4  -1  14   75.59    4.40
   4   1 -14   76.59    4.30
   4   1 -14   74.29    4.20
   4   1 -14   76.99    3.70
  -4   1  14   73.09    4.70
  -4   1  14   70.19    5.30
   3  -1 -14   -0.50    1.20
  -3  -1  14    0.70    1.00
  -3  -1  14   -0.40    1.10
  -3  -1  14   -2.40    1.30
  -3   1  14    0.80    1.40
   3   1 -14   -0.80    1.10
   3   1 -14    2.90    1.40
  -3   1  14   -1.00    1.60
  -2  -1  14   57.39    3.10
  -2  -1  14   62.09    3.90
  -2  -1  14   59.39    4.00
   2  -1 -14   56.99    3.20
  -2   1  14   54.89    3.90
  -2   1  14   50.19    4.40
   2   1 -14   55.89    3.60
   2   1 -14   59.69    2.70
  -1  -1  14   38.60    3.30
  -1  -1  14   33.70    3.10
   1  -1 -14   34.20    3.10
   1  -1 -14   36.00    2.60
  -1  -1  14   34.40    2.20
   1   1 -14   33.40    2.80
  -1   1  14   31.00    3.10
  -1   1  14   33.10    3.70
   1   1 -14   39.00    2.80
   1   1 -14   33.90    2.00
   0  -1  14    9.70    2.00
   0  -1 -14    9.00    1.90
   0  -1 -14    7.80    1.50
   0  -1  14    5.00    1.50
   0  -1  14    6.70    1.00
   0   1 -14    5.50    1.50
   0   1  14    6.80    1.70
   0   1 -14    7.70    1.00
   0   1  14    9.70    2.20
   0   1 -14    7.70    1.70
   0   1  14    8.90    1.60
   1  -1  14   68.39    4.20
   1  -1  14   61.19    4.30
  -1  -1 -14   63.69    4.10
   1  -1  14   65.29    3.60
  -1   1 -14   63.39    3.80
   1   1  14   67.09    3.90
   1   1  14   63.49    4.50
   1   1  14   62.99    3.80
   1   1  14   65.29    2.40
  -2  -1 -14  111.79    5.60
   2  -1  14  105.39    5.50
   2  -1  14  112.09    5.00
  -2  -1 -14  117.29    4.80
   2  -1  14  111.59    5.70
  -2   1 -14  106.29    5.10
   2   1  14  113.99    6.10
   2   1  14  112.19    3.90
   2   1  14  115.19    5.20
   2   1  14  105.79    5.30
  -3  -1 -14   24.60    2.30
   3  -1  14   26.60    3.00
   3  -1  14   22.70    2.50
   3  -1  14   14.80    2.40
  -3  -1 -14   21.60    2.70
   3   1  14   28.20    1.80
   3   1  14   22.60    2.60
   3   1  14   22.00    3.50
   3   1  14   19.20    2.60
  -3   1 -14   17.90    2.40
   4  -1  14  110.59    5.50
  -4  -1 -14  101.49    5.30
  -4  -1 -14   87.69    4.30
   4  -1  14   98.89    4.80
   4  -1  14   99.09    5.60
   4   1  14  102.79    4.80
  -4   1 -14  102.29    5.10
   4   1  14  103.79    6.10
   4   1  14   90.29    5.10
   4   1  14  104.89    4.10
   5  -1  14    0.20    1.90
  -5  -1 -14   -1.40    1.20
   5  -1  14    1.20    1.50
  -5  -1 -14   -1.40    1.60
   5  -1  14    0.70    1.30
  -5   1 -14   -2.00    1.30
   5   1  14    1.60    2.20
   5   1  14   -1.90    1.60
   5   1  14   -0.20    1.30
   5   1  14   -1.50    1.30
   5   1  14   -1.20    1.30
   6  -1  14   28.70    3.00
   6  -1  14   34.70    3.60
  -6  -1 -14   32.20    2.90
  -6  -1 -14   34.00    3.40
   6  -1  14   25.00    4.00
   6   1  14   36.70    3.70
   6   1  14   38.40    4.30
   6   1  14   36.50    3.70
  -6   1 -14   32.50    3.20
   6   1  14   33.50    2.80
   6   1  14   32.90    2.90
   7  -1  14    3.40    2.00
  -7  -1 -14    3.10    1.60
  -7  -1 -14    2.70    2.10
   7  -1  14    5.40    2.00
   7  -1  14    2.30    3.10
   7   1  14   -0.40    1.50
   7   1  14    6.00    1.70
   7   1  14    2.70    2.40
  -7   1 -14    4.00    1.90
   7   1  14    0.20    1.70
   7   1  14    0.30    1.60
   8  -1  14   26.20    3.20
   8  -1  14   36.80    5.20
   8  -1  14   36.60    3.60
  -8  -1 -14   36.10    3.20
  -8  -1 -14   34.20    3.60
   8  -1  14   38.00    4.40
  -8   1 -14   31.20    2.10
   8   1  14   32.20    3.20
   8   1  14   31.30    4.20
  -8   1 -14   30.70    3.30
   8   1  14   23.80    3.70
   8   1  14   37.50    3.20
   8   1  14   43.40    3.60
   9  -1  14   24.10    3.20
  -9  -1 -14   24.50    3.30
   9  -1  14   19.30    3.90
   9  -1  14   18.80    3.40
  -9  -1 -14   29.50    3.20
   9  -1  14   21.50    3.30
   9   1  14   26.80    3.60
   9   1  14   19.00    2.80
  -9   1 -14   24.20    2.40
   9   1  14   23.80    3.30
  -9   1 -14   19.50    3.10
  -9   1 -14   20.30    2.20
   9   1  14   22.10    4.40
   9   1  14   28.40    3.60
 -10  -1 -14    2.70    1.90
  10  -1  14    2.40    3.50
  10  -1  14   -0.40    2.00
 -10  -1 -14   -3.60    2.00
  10  -1  14   -0.50    2.00
  10  -1  14    0.10    2.70
  10   1  14   -2.60    1.90
  10   1  14   -2.30    2.50
 -10   1 -14    3.20    1.70
  10   1  14    3.70    3.30
  10   1  14   -0.10    2.20
 -10   1 -14    3.80    2.00
 -10   1 -14    2.50    1.50
  11  -1  14   16.60    3.30
 -11  -1 -14   17.70    3.30
 -11  -1 -14   21.90    3.10
  11  -1  14   20.00    3.20
  11  -1  14   19.40    4.40
  11  -1  14   17.00    3.70
  11   1  14   16.80    2.90
  11   1  14   17.90    3.50
 -11   1 -14   12.40    2.60
 -11   1 -14   22.30    3.30
  11   1  14   19.60    4.70
  11   1  14   13.60    2.90
 -11   1 -14   23.50    3.00
  12  -1  14   -0.50    2.80
 -12  -1 -14   -1.60    2.20
  12  -1  14    3.50    2.30
  12  -1  14   -5.90    4.40
 -12  -1 -14    1.70    2.20
  12  -1  14   -0.40    3.30
  12   1  14    1.30    2.60
 -12   1 -14    0.60    2.40
 -12   1 -14    1.80    1.90
  12   1  14   -2.80    4.10
 -12   1 -14   -2.30    2.40
  12   1  14    2.90    2.40
  12   1  14   -0.20    2.70
  13  -1  14    8.90    3.10
 -13  -1 -14    9.90    2.80
  13  -1  14   -3.70    6.50
  13  -1  14    5.50    2.70
 -13  -1 -14    6.30    2.70
  13  -1  14    9.20    3.80
 -13   1 -14    7.20    3.10
 -13   1 -14   13.90    3.20
  13   1  14   16.50    5.90
  13   1  14    8.50    2.90
  13   1  14    9.70    2.80
 -13   1 -14    7.20    2.70
  13   1  14   11.90    3.40
  13  -2 -14   -1.30    3.00
 -13  -2  14    4.30    3.10
  13  -2 -14    8.30    2.60
  13   2 -14    5.70    3.00
  13   2 -14    5.80    2.90
 -13   2  14    3.50    4.70
 -12  -2  14   36.90    4.50
  12  -2 -14   48.90    4.40
  12  -2 -14   46.30    4.60
  12   2 -14   40.30    4.90
  12   2 -14   36.40    4.60
 -12   2  14   37.30    5.20
  11  -2 -14   21.90    3.10
  11  -2 -14   18.50    3.60
  11  -2 -14   15.20    3.10
 -11  -2  14   20.40    2.90
  11   2 -14   26.70    4.20
  11   2 -14   29.30    4.20
 -11   2  14   22.50    4.60
  10  -2 -14   20.10    3.30
  10  -2 -14   11.80    3.20
 -10  -2  14   16.10    2.70
  10  -2 -14   13.50    2.70
  10   2 -14   14.10    2.90
  10   2 -14   12.00    3.40
 -10   2  14    8.80    3.20
   9  -2 -14   78.49    6.00
  -9  -2  14   86.09    6.40
   9  -2 -14   68.99    4.40
   9  -2 -14   77.39    5.20
  -9  -2  14   83.79    4.90
  -9   2  14   78.89    7.10
   9   2 -14   81.39    5.70
   9   2 -14   76.29    5.20
   8  -2 -14   62.59    3.80
   8  -2 -14   72.49    5.50
  -8  -2  14   67.39    5.60
  -8  -2  14   64.09    4.50
   8  -2 -14   65.29    4.70
  -8   2  14   64.09    3.30
   8   2 -14   66.59    5.00
   8   2 -14   66.49    4.90
  -8   2  14   60.49    6.20
  -7  -2  14   65.49    4.40
   7  -2 -14   67.39    5.10
   7  -2 -14   61.09    3.60
   7  -2 -14   56.39    4.10
  -7  -2  14   70.69    4.80
   7   2 -14   64.69    4.80
  -7   2  14   62.39    6.00
  -7   2  14   59.89    6.30
  -7   2  14   58.69    3.50
   7   2 -14   59.59    4.50
   6  -2 -14  215.68    9.30
   6  -2 -14  205.58    8.70
  -6  -2  14  211.08    8.60
   6  -2 -14  214.18    7.40
  -6  -2  14  211.88    8.70
   6   2 -14  200.98    8.80
  -6   2  14  200.18    9.70
  -6   2  14  212.28    7.50
   6   2 -14  203.08    9.10
  -6   2  14  218.58   10.60
  -5  -2  14   24.60    2.80
   5  -2 -14   18.00    2.10
  -5  -2  14   22.10    3.10
   5  -2 -14   17.80    2.80
   5  -2 -14   18.80    2.60
  -5   2  14   25.00    2.70
  -5   2  14   21.10    3.50
   5   2 -14   23.40    3.20
  -5   2  14   20.50    3.80
   5   2 -14   21.80    2.90
   4  -2 -14   34.30    1.90
  -4  -2  14   33.90    3.40
   4  -2 -14   33.60    3.10
   4  -2 -14   25.30    3.30
  -4  -2  14   38.80    3.20
  -4   2  14   32.90    4.20
  -4   2  14   27.50    4.00
   4   2 -14   35.40    3.20
  -4   2  14   32.20    2.80
   3  -2 -14   43.40    4.00
  -3  -2  14   43.80    3.50
   3  -2 -14   40.00    3.30
  -3  -2  14   35.30    3.60
   3   2 -14   39.30    3.30
  -3   2  14   41.40    4.40
  -3   2  14   40.20    3.20
  -3   2  14   40.00    4.60
   2  -2 -14   12.90    2.20
   2  -2 -14   15.50    2.60
  -2  -2  14   15.40    2.30
  -2  -2  14   17.10    2.60
  -2   2  14   21.10    2.60
  -2   2  14   14.30    3.00
   2   2 -14   16.10    2.50
  -2   2  14   12.60    2.40
  -1  -2  14  132.19    6.50
  -1  -2  14  129.19    5.90
   1  -2 -14  136.29    5.90
  -1  -2  14  133.69    5.00
   1   2 -14  132.09    6.40
  -1   2  14  140.79    7.40
   1   2 -14  138.39    5.70
  -1   2  14  131.79    5.90
  -1   2  14  140.29    6.90
   0  -2  14   45.40    3.40
   0  -2 -14   40.00    3.00
   0  -2  14   42.30    3.80
   0  -2 -14   42.80    3.50
   0  -2  14   44.80    2.00
   0  -2  14   40.40    2.20
   0   2 -14   47.10    3.10
   0   2 -14   40.40    3.30
   0   2  14   41.40    4.30
   0   2  14   39.40    3.20
   0   2  14   45.60    3.80
  -1  -2 -14   35.30    3.20
   1  -2  14   39.20    3.10
   1  -2  14   38.50    3.60
  -1  -2 -14   39.60    3.20
   1  -2  14   38.80    3.20
  -1   2 -14   41.30    3.40
   1   2  14   29.70    3.90
  -1   2 -14   40.50    3.00
   1   2  14   38.90    3.20
   1   2  14   38.20    4.00
   2  -2  14    2.70    1.80
  -2  -2 -14   -1.40    1.60
  -2  -2 -14    1.60    1.60
   2  -2  14    0.40    1.40
   2  -2  14   -0.30    1.60
   2   2  14    1.50    1.80
   2   2  14   -1.00    1.60
  -2   2 -14    1.10    1.40
   2   2  14    1.50    2.10
  -2   2 -14    1.00    1.60
  -3  -2 -14   44.30    3.70
   3  -2  14   42.70    3.50
   3  -2  14   37.30    4.00
   3  -2  14   42.20    3.90
  -3  -2 -14   42.10    3.20
  -3   2 -14   41.40    3.20
   3   2  14   40.70    4.20
   3   2  14   47.30    4.20
   3   2  14   42.50    3.60
   4  -2  14    0.10    2.10
   4  -2  14   -1.10    1.80
   4  -2  14   -0.90    1.60
  -4  -2 -14   -1.40    1.60
  -4  -2 -14    2.00    1.50
   4   2  14   -2.30    1.90
   4   2  14    0.40    1.40
   4   2  14    1.30    1.70
   4   2  14   -0.60    1.60
  -4   2 -14   -0.10    1.40
  -5  -2 -14    1.10    1.50
   5  -2  14   -0.20    2.50
   5  -2  14    5.20    2.20
  -5  -2 -14    1.70    1.80
   5  -2  14    1.30    1.60
  -5   2 -14    0.60    1.30
   5   2  14    6.80    2.30
   5   2  14    2.60    2.00
   5   2  14    3.40    1.80
   5   2  14   -2.50    1.60
  -6  -2 -14   15.70    3.00
  -6  -2 -14   21.10    2.80
   6  -2  14   16.20    3.20
   6  -2  14   17.30    2.90
   6  -2  14   14.80    2.70
   6   2  14   19.80    2.30
  -6   2 -14   20.60    2.80
   6   2  14   18.30    3.00
   6   2  14   17.00    2.80
   6   2  14   16.00    3.10
   7  -2  14    3.90    2.30
  -7  -2 -14    5.30    2.00
  -7  -2 -14    4.00    2.10
   7  -2  14    3.10    2.40
   7  -2  14    7.50    2.90
   7   2  14    6.00    2.30
  -7   2 -14    3.70    1.80
   7   2  14    6.00    2.10
   7   2  14    5.40    2.40
   7   2  14    8.40    2.60
   7   2  14    3.40    2.10
   8  -2  14    6.30    2.50
   8  -2  14    3.60    2.70
  -8  -2 -14    2.10    1.90
   8  -2  14    7.00    3.40
  -8  -2 -14    2.70    2.10
   8   2  14    4.60    2.20
   8   2  14    0.50    2.00
  -8   2 -14    3.80    1.90
   8   2  14    4.70    2.30
   8   2  14    3.40    2.90
   8   2  14    8.50    2.20
   9  -2  14    3.20    3.40
   9  -2  14    0.40    3.40
   9  -2  14    2.00    2.00
  -9  -2 -14   -0.10    2.00
  -9  -2 -14    4.30    2.40
   9   2  14   -1.50    2.20
  -9   2 -14   -0.40    1.70
   9   2  14   -2.90    2.40
   9   2  14    0.70    2.10
   9   2  14    1.10    3.10
   9   2  14   -0.20    2.40
  10  -2  14    4.30    2.30
  10  -2  14    3.50    3.20
 -10  -2 -14    3.60    2.50
  10  -2  14    1.20    3.90
  10  -2  14    5.30    2.60
 -10  -2 -14   -0.60    1.90
  10   2  14    6.60    4.60
  10   2  14    5.90    2.30
  10   2  14    5.70    2.60
 -10   2 -14    4.10    2.00
  10   2  14   -1.40    2.30
  10   2  14   -0.60    2.70
  11  -2  14   -5.60    3.80
 -11  -2 -14   -0.70    2.50
  11  -2  14   -1.40    2.10
  11  -2  14   -0.80    2.40
 -11  -2 -14    1.30    2.50
  11  -2  14   -7.00    4.40
  11   2  14    0.80    2.20
 -11   2 -14    0.60    2.20
  11   2  14    5.60    3.90
  11   2  14   -1.10    3.20
  11   2  14    2.00    2.60
 -11   2 -14   -1.20    1.90
  11   2  14   -1.60    2.70
 -12  -2 -14   26.20    4.30
  12  -2  14   36.40    4.40
  12  -2  14   26.10    6.20
 -12  -2 -14   28.30    4.30
  12  -2  14   27.40    4.00
  12  -2  14   28.40    4.80
 -12   2 -14   32.20    4.10
  12   2  14   29.90    4.70
  12   2  14   20.40    4.10
 -12   2 -14   33.20    3.50
  12   2  14   26.50    3.90
  12   2  14   32.30    4.90
  12   2  14   38.70    6.50
  12  -3 -14   35.70    5.50
  12  -3 -14   32.90    4.50
  12  -3 -14   34.40    4.40
 -12  -3  14   35.50    4.10
 -12  -3  14   34.60    3.80
 -12  -3  14   38.70    5.60
  12   3 -14   29.50    4.70
  12   3 -14   29.10    4.50
  11  -3 -14    8.10    2.80
 -11  -3  14   10.40    3.40
  11  -3 -14   11.30    2.70
 -11  -3  14   16.00    4.10
  11  -3 -14    4.70    3.80
  11   3 -14   10.90    3.20
 -11   3  14    1.60    5.10
  11   3 -14    6.00    3.10
  10  -3 -14    2.30    2.10
  10  -3 -14    3.10    2.20
 -10  -3  14   -0.70    2.70
  10  -3 -14    1.40    4.00
 -10  -3  14   -1.30    3.20
  10   3 -14    1.70    3.00
 -10   3  14   -8.50    4.10
  10   3 -14   -2.60    2.50
  -9  -3  14    8.00    2.80
  -9  -3  14    3.20    2.60
   9  -3 -14    7.40    2.10
   9  -3 -14    5.50    3.70
   9  -3 -14    6.20    2.50
   9   3 -14    6.40    2.70
   9   3 -14    4.40    3.10
  -9   3  14   -4.10    4.40
  -9   3  14    7.70    3.60
  -8  -3  14   19.00    3.00
  -8  -3  14   12.70    2.60
   8  -3 -14   20.50    2.50
   8  -3 -14   18.70    4.20
   8   3 -14   19.10    3.30
  -8   3  14   19.10    4.60
   8   3 -14   16.30    3.60
  -8   3  14   12.10    4.20
  -7  -3  14  193.78    9.00
   7  -3 -14  199.88    7.10
   7  -3 -14  179.38    8.70
  -7  -3  14  193.18    8.00
   7  -3 -14  196.98   10.10
   7   3 -14  201.28    9.50
  -7   3  14  189.98   10.60
  -7   3  14  195.98    7.00
   7   3 -14  198.58    9.20
  -7   3  14  191.68   10.90
  -6  -3  14    1.80    1.80
  -6  -3  14   -3.30    2.50
   6  -3 -14    1.20    1.60
   6  -3 -14    1.90    3.00
   6  -3 -14    1.00    2.30
  -6   3  14    0.00    2.70
   6   3 -14   -0.70    2.00
  -6   3  14    2.00    2.10
   6   3 -14    0.40    2.20
  -6   3  14    4.60    3.50
   5  -3 -14   23.60    4.10
  -5  -3  14   24.50    2.80
  -5  -3  14   14.80    3.40
   5  -3 -14   21.20    2.20
   5  -3 -14   14.80    2.50
  -5   3  14   17.50    4.00
  -5   3  14   23.70    2.70
  -5   3  14   23.60    4.30
   5   3 -14   24.40    3.60
  -4  -3  14   -0.20    2.50
   4  -3 -14   -4.20    2.50
   4  -3 -14   -1.00    1.50
  -4  -3  14    1.50    1.50
  -4   3  14    6.80    2.70
  -4   3  14    3.50    2.10
  -4   3  14    2.30    2.60
   4   3 -14   -3.00    1.80
   3  -3 -14  165.18    8.50
  -3  -3  14  165.08    6.30
  -3  -3  14  158.08    6.50
  -3  -3  14  172.08    8.20
   3  -3 -14  165.68    7.60
  -3   3  14  157.58    6.90
   3   3 -14  161.48    7.90
  -3   3  14  161.58    8.70
  -3   3  14  165.28    8.70
   2  -3 -14   65.59    5.30
  -2  -3  14   64.39    3.60
   2  -3 -14   64.69    4.40
  -2  -3  14   58.79    3.60
  -2  -3  14   64.49    5.60
  -2   3  14   58.19    4.10
  -2   3  14   64.29    5.80
   2   3 -14   63.89    4.60
  -2   3  14   75.69    5.70
  -1  -3  14    1.70    2.40
   1  -3 -14    4.20    2.20
  -1  -3  14    3.10    1.70
   1  -3 -14    3.10    1.90
  -1  -3  14    3.70    1.50
  -1   3  14    1.70    2.20
   1   3 -14    4.90    2.00
  -1   3  14    1.80    2.20
  -1   3  14   -0.50    1.90
   0  -3 -14  100.59    6.10
   0  -3  14   81.59    5.70
   0  -3  14   92.29    4.40
   0  -3 -14   76.59    5.10
   0  -3  14   87.09    3.90
   0   3 -14   84.69    5.30
   0   3 -14   95.09    4.20
   0   3  14   79.09    5.00
   0   3  14   85.59    6.20
   0   3  14   84.39    6.10
  -1  -3 -14    2.80    1.80
  -1  -3 -14   -1.50    1.90
  -1  -3 -14    0.30    1.90
   1  -3  14    0.70    1.80
   1  -3  14    3.40    1.90
   1  -3  14    1.30    1.40
   1  -3  14    0.00    2.00
   1   3  14    2.70    2.30
  -1   3 -14    1.30    1.50
   1   3  14    3.40    2.10
   1   3  14    3.30    2.30
  -1   3 -14    3.90    1.80
   2  -3  14   93.79    5.80
   2  -3  14  103.69    5.30
  -2  -3 -14   94.89    5.60
  -2  -3 -14   89.99    5.40
   2  -3  14   97.99    6.60
   2   3  14   96.29    6.40
   2   3  14  107.49    6.70
  -2   3 -14  107.29    5.70
   2   3  14   85.89    5.50
  -2   3 -14  102.89    4.90
   3  -3  14   55.79    4.50
  -3  -3 -14   51.29    4.20
   3  -3  14   51.39    4.40
   3  -3  14   60.49    5.40
  -3  -3 -14   57.19    4.50
   3   3  14   58.49    5.80
   3   3  14   54.19    4.50
   3   3  14   62.79    5.40
  -3   3 -14   56.19    4.40
  -3   3 -14   59.79    3.70
   4  -3  14    8.20    2.40
  -4  -3 -14    9.80    2.50
  -4  -3 -14    8.60    2.30
   4  -3  14   11.40    2.50
   4  -3  14   11.20    2.90
   4   3  14    7.80    2.60
  -4   3 -14    9.10    2.60
   4   3  14   12.00    2.60
   4   3  14    9.70    2.60
  -4   3 -14   10.60    2.00
   5  -3  14   35.30    4.80
  -5  -3 -14   47.70    4.30
   5  -3  14   45.30    4.20
  -5  -3 -14   47.70    4.00
   5  -3  14   42.20    5.50
   5   3  14   43.50    4.60
   5   3  14   50.09    5.30
   5   3  14   48.90    3.20
  -5   3 -14   41.10    3.50
   5   3  14   44.90    5.10
   6  -3  14    4.60    3.00
   6  -3  14   11.00    2.60
  -6  -3 -14    1.40    1.90
   6  -3  14    8.10    3.00
  -6  -3 -14    3.40    2.30
   6   3  14    4.60    3.00
   6   3  14    5.00    2.60
   6   3  14    9.80    2.40
   6   3  14    5.90    3.00
  -6   3 -14    4.00    1.90
   7  -3  14  164.88    8.20
  -7  -3 -14  167.08    8.20
  -7  -3 -14  162.58    8.00
   7  -3  14  171.18    9.40
   7  -3  14  178.68    9.20
   7   3  14  181.38    9.20
   7   3  14  145.19    8.20
   7   3  14  169.08    6.90
   7   3  14  172.68    9.10
  -7   3 -14  151.18    7.30
   8  -3  14   29.70    3.80
  -8  -3 -14   32.60    4.00
   8  -3  14   26.80    4.70
  -8  -3 -14   33.30    4.00
   8  -3  14   31.30    4.50
   8   3  14   35.90    4.90
   8   3  14   34.90    4.30
   8   3  14   35.90    5.70
   8   3  14   33.60    4.00
  -8   3 -14   34.90    3.60
  -9  -3 -14   13.70    3.00
   9  -3  14   11.80    2.90
  -9  -3 -14   16.80    3.10
   9  -3  14    9.50    4.00
   9  -3  14   19.20    5.00
   9   3  14   10.40    3.50
  -9   3 -14   10.40    2.50
   9   3  14   14.20    3.10
   9   3  14   12.80    3.70
   9   3  14   12.60    4.40
 -10  -3 -14   -4.40    2.40
  10  -3  14   -2.10    4.80
  10  -3  14   -1.90    2.40
  10  -3  14    7.30    4.30
 -10  -3 -14   -0.30    2.60
  10   3  14   -1.40    2.90
  10   3  14   -2.20    2.40
  10   3  14    1.90    4.00
 -10   3 -14    4.00    2.00
  10   3  14    2.20    2.50
  10   3  14   -0.40    5.20
  11  -3  14    6.50    5.80
 -11  -3 -14    2.00    3.10
  11  -3  14    3.40    2.90
  11  -3  14    4.80    2.70
 -11  -3 -14    0.80    2.80
  11  -3  14   -4.40    4.90
  11   3  14    8.10    4.80
  11   3  14   -1.80    3.30
  11   3  14    2.70    3.60
  11   3  14   -2.60    2.80
  11   3  14   -0.30    4.30
 -11   3 -14    0.60    2.40
 -10  -4  14    0.80    5.40
 -10  -4  14   -1.60    3.80
  10  -4 -14   -1.20    2.80
  10  -4 -14   15.90    5.50
  10  -4 -14    0.60    2.30
  10   4 -14    1.90    2.90
 -10   4  14  -13.10    6.20
  10   4 -14    1.80    3.10
 -10   4  14    2.60    3.90
   9  -4 -14   -0.70    2.40
  -9  -4  14   -1.00    3.90
   9  -4 -14    3.00    2.70
   9  -4 -14    8.90    4.80
   9   4 -14    4.20    2.80
  -9   4  14    4.80    6.00
  -9   4  14    3.50    5.80
   9   4 -14    0.20    2.70
   8  -4 -14   -1.00    2.00
   8  -4 -14    6.70    4.40
  -8  -4  14    0.70    3.40
   8  -4 -14    7.40    2.60
   8   4 -14    0.40    3.00
   8   4 -14    6.10    2.80
  -8   4  14   -2.40    5.10
  -8   4  14    3.50    5.00
  -7  -4  14    5.00    3.60
  -7  -4  14    3.60    2.30
   7  -4 -14    5.20    2.40
   7  -4 -14    9.00    4.40
   7  -4 -14    4.30    2.40
  -7   4  14    4.20    4.50
   7   4 -14    5.90    2.90
  -7   4  14    3.70    3.80
   6  -4 -14   13.50    4.40
   6  -4 -14    2.30    2.50
  -6  -4  14    6.40    3.00
  -6  -4  14    4.20    2.30
   6  -4 -14    5.80    2.10
  -6   4  14    6.50    2.40
   6   4 -14    2.20    2.80
  -6   4  14    8.90    4.00
  -6   4  14    4.90    3.90
   5  -4 -14    0.20    1.90
   5  -4 -14    4.70    3.80
  -5  -4  14   -0.60    3.40
  -5  -4  14    4.10    2.30
  -5   4  14    6.00    3.60
  -5   4  14    1.50    3.80
  -5   4  14    4.00    2.40
   5   4 -14    4.40    2.40
  -4  -4  14   10.10    3.70
  -4  -4  14    9.20    2.40
   4  -4 -14    7.00    2.30
   4  -4 -14    5.50    3.70
  -4   4  14    9.80    2.50
  -4   4  14    7.60    3.50
   4   4 -14    5.60    2.60
  -4   4  14    8.40    3.70
  -3  -4  14   56.39    4.10
   3  -4 -14   55.29    4.50
  -3  -4  14   52.19    6.50
   3  -4 -14   56.69    6.70
  -3   4  14   56.69    6.50
   3   4 -14   53.39    5.10
  -3   4  14   56.29    4.40
  -3   4  14   72.09    7.00
   3   4 -14   61.39    4.30
  -2  -4  14    7.90    3.50
   2  -4 -14   14.40    3.90
   2  -4 -14    6.90    2.10
  -2  -4  14    4.00    2.20
   2   4 -14    3.80    1.70
  -2   4  14   11.00    3.60
  -2   4  14    6.10    3.50
  -2   4  14    5.60    2.30
   2   4 -14    4.60    2.60
   1  -4 -14    2.80    1.80
  -1  -4  14   -1.90    2.20
  -1  -4  14    0.00    3.40
   1  -4 -14    0.70    3.50
  -1   4  14   -0.10    2.90
   1   4 -14    2.80    2.20
  -1   4  14    0.80    2.00
   1   4 -14    0.10    1.50
  -1   4  14    1.00    3.30
   0  -4 -14    5.90    2.50
   0  -4  14    1.90    3.30
   0  -4  14    4.10    1.50
   0  -4 -14    1.20    3.50
   0  -4  14    6.10    2.10
   0   4  14    2.10    3.40
   0   4 -14    2.90    1.60
   0   4  14    2.80    2.60
   0   4  14    4.30    3.20
   0   4 -14    5.40    2.20
   1  -4  14    4.20    1.80
  -1  -4 -14    2.00    3.10
  -1  -4 -14   -0.50    2.00
   1  -4  14   -4.00    2.00
   1  -4  14    2.30    3.10
   1  -4  14    2.50    2.20
   1   4  14    2.90    3.40
  -1   4 -14    0.10    1.80
   1   4  14    3.90    2.90
  -1   4 -14   -0.50    2.00
   1   4  14   -4.30    2.20
  -1   4 -14   -0.20    1.40
  -2  -4 -14   10.30    3.20
   2  -4  14    5.40    2.10
   2  -4  14    7.70    2.20
   2  -4  14    9.50    3.40
  -2  -4 -14   13.30    3.20
   2  -4  14    7.70    2.20
   2   4  14    8.30    2.60
   2   4  14    5.80    3.30
  -2   4 -14    7.00    2.40
  -2   4 -14   10.50    1.60
  -2   4 -14   14.00    2.10
   2   4  14    3.00    3.60
  -3  -4 -14   12.80    2.90
  -3  -4 -14   10.00    2.50
   3  -4  14   12.80    4.00
   3  -4  14   10.80    2.70
   3  -4  14   12.50    2.20
  -3  -4 -14   10.90    3.10
   3  -4  14    8.30    2.60
   3   4  14    6.80    3.30
   3   4  14   14.50    4.20
  -3   4 -14   10.10    2.40
  -3   4 -14   10.50    1.40
   3   4  14    8.80    3.00
  -3   4 -14   12.80    2.30
  -4  -4 -14   16.30    2.90
  -4  -4 -14   27.90    3.80
   4  -4  14   17.50    3.30
   4  -4  14   12.20    4.40
   4  -4  14   12.60    2.70
  -4   4 -14   14.70    2.60
   4   4  14   13.90    2.90
  -4   4 -14   14.60    2.80
   4   4  14   15.70    3.90
   4   4  14   17.80    3.50
  -5  -4 -14    3.00    2.80
  -5  -4 -14    8.60    2.20
   5  -4  14    2.30    2.00
   5  -4  14    5.40    3.30
   5  -4  14    7.10    4.20
   5   4  14    1.40    2.30
   5   4  14    5.50    3.20
  -5   4 -14    6.10    2.50
   5   4  14    3.40    3.50
  -5   4 -14    2.90    2.10
  -6  -4 -14   54.99    4.90
   6  -4  14   55.69    7.70
   6  -4  14   42.90    4.40
   6  -4  14   52.79    6.20
  -6  -4 -14   41.00    4.50
   6   4  14   55.09    7.50
   6   4  14   43.50    5.00
  -6   4 -14   47.70    4.00
   6   4  14   56.59    6.60
  -7  -4 -14   76.29    5.90
   7  -4  14   76.79    5.90
   7  -4  14   86.19    8.20
  -7  -4 -14   78.09    5.50
   7  -4  14   77.49    8.50
  -7   4 -14   70.29    4.80
   7   4  14   71.79    5.10
   7   4  14   65.79    6.10
   7   4  14   75.69    8.60
   7   4  14   79.59    7.40
   8  -4  14    4.10    4.80
   8  -4  14    1.10    2.90
  -8  -4 -14   -0.30    2.50
  -8  -4 -14    0.60    2.50
   8  -4  14   10.90    4.80
   8   4  14   -4.90    4.10
  -8   4 -14    0.60    2.10
   8   4  14   -2.00    3.10
   8   4  14    0.10    2.60
   8   4  14   -1.60    4.70
  -9  -4 -14   -0.80    2.60
   9  -4  14    4.00    6.10
  -9  -4 -14    4.30    3.00
   9  -4  14    6.00    5.40
   9  -4  14    3.80    2.50
   9   4  14    3.10    3.40
   9   4  14   -1.20    5.00
   9   4  14    0.00    5.00
   9   4  14   -1.60    2.40
  -9   4 -14    2.00    2.50
  -6  -5  14   -0.10    2.80
  -6  -5  14   10.70    4.70
   6  -5 -14    7.60    4.00
   6  -5 -14    0.30    2.70
  -6   5  14   -6.80    5.20
  -6   5  14    0.60    7.00
  -6   5  14    3.50    3.70
   6   5 -14    1.90    3.10
   5  -5 -14    6.90    2.60
  -5  -5  14    4.20    2.90
   5  -5 -14   -2.70    6.20
  -5  -5  14    7.60    4.60
  -5   5  14   -3.10    5.80
  -5   5  14   -1.90    5.00
  -5   5  14    6.70    3.40
   5   5 -14    1.80    3.20
   5   5 -14    6.30    2.80
   4  -5 -14   11.40    5.20
   4  -5 -14   15.50    3.50
  -4  -5  14   17.60    5.20
  -4  -5  14   14.00    3.40
  -4   5  14    7.80    5.30
  -4   5  14   10.40    5.20
   4   5 -14   14.60    3.90
  -4   5  14    8.70    3.40
   4   5 -14   13.10    3.00
  -3  -5  14   -0.30    2.60
   3  -5 -14   -3.30    2.70
  -3  -5  14   -7.90    4.10
   3  -5 -14   -7.90    4.70
   3   5 -14    0.10    2.80
  -3   5  14    0.00    2.90
  -3   5  14   15.20    5.10
   3   5 -14   -2.10    2.40
  -2  -5  14   38.80    6.10
   2  -5 -14   59.09    5.20
  -2  -5  14   51.39    4.60
   2  -5 -14   49.80    6.50
   2   5 -14   42.50    5.10
  -2   5  14   54.79    5.30
   2   5 -14   35.90    4.90
  -2   5  14   61.59    9.80
  -2   5  14   54.09    7.60
  -1  -5  14   11.10    4.70
   1  -5 -14    0.90    4.90
   1  -5 -14    9.00    2.90
  -1  -5  14    4.20    2.90
  -1   5  14    8.00    5.70
   1   5 -14    7.00    2.80
  -1   5  14    7.10    4.20
   1   5 -14   10.60    2.60
  -1   5  14    9.70    3.20
   0  -5 -14    0.00    4.90
   0  -5 -14    0.30    2.50
   0  -5  14   -3.80    2.30
   0  -5  14   -0.90    2.70
   0  -5  14    0.10    4.30
   0   5 -14   -0.10    2.30
   0   5  14   -1.20    3.60
   0   5  14    1.60    2.60
   0   5 -14   -0.60    2.40
   0   5  14   -0.20    4.90
   1  -5  14   -3.80    4.40
   1  -5  14    0.20    2.50
   1  -5  14   -0.60    2.60
  -1  -5 -14    3.70    2.60
  -1  -5 -14   -3.90    5.50
   1   5  14    8.80    4.30
   1   5  14   -0.30    2.70
   1   5  14    4.80    5.20
  -1   5 -14    2.40    2.50
  -1   5 -14    1.80    2.40
  -2  -5 -14    8.80    4.50
  -2  -5 -14    9.80    3.20
   2  -5  14    7.70    3.10
   2  -5  14   16.90    3.20
   2  -5  14   15.90    4.90
  -2   5 -14   12.10    2.90
   2   5  14   10.50    3.20
   2   5  14   14.30    4.60
  -2   5 -14    8.00    2.40
   2   5  14   13.20    6.40
   3  -5  14   12.60    3.40
  -3  -5 -14   10.90    3.40
   3  -5  14   13.60    3.30
   3  -5  14    5.20    2.70
  -3  -5 -14   17.30    4.80
   3  -5  14   16.60    5.50
  -3   5 -14   10.00    2.60
   3   5  14   14.20    4.20
   3   5  14   10.30    4.70
  -3   5 -14    9.70    2.90
   3   5  14   14.30    3.50
  -4  -5 -14    3.90    4.40
   4  -5  14    1.90    2.30
   4  -5  14   10.30    6.50
   4  -5  14   -1.30    3.20
  -4  -5 -14    6.40    3.20
   4   5  14   -7.40    3.90
   4   5  14   -0.10    2.50
  -4   5 -14    4.30    2.80
   4   5  14   -1.10    4.50
  -4   5 -14    2.70    2.40
  -5  -5 -14   18.20    3.90
   5  -5  14   23.50    4.20
   5  -5  14   20.20    3.90
   5   5  14   21.70    4.00
   5   5  14   14.80    6.40
  -5   5 -14   24.20    3.40
  -5   5 -14   25.50    4.10
  14   0 -15   -1.80    3.20
  14   0 -15    5.70    2.80
  14   0 -15   -0.50    3.10
 -14   0  15    0.20    3.20
 -14   0  15    6.30    6.10
 -13   0  15   -0.40    4.60
  13   0 -15    0.10    2.60
  13   0 -15    2.50    2.50
  13   0 -15    2.40    2.10
 -12   0  15    1.30    3.50
  12   0 -15    2.30    2.20
  12   0 -15   -2.80    1.80
  12   0 -15   -1.90    2.40
  11   0 -15   30.90    3.80
  11   0 -15   37.90    3.60
 -11   0  15   29.70    4.60
  11   0 -15   36.30    3.90
  10   0 -15    0.40    1.90
  10   0 -15    2.00    2.00
 -10   0  15   -3.10    2.40
  10   0 -15    1.80    1.90
  -9   0  15   94.39    6.50
   9   0 -15  106.89    5.90
   9   0 -15  111.49    5.20
   9   0 -15   97.69    5.40
   8   0 -15    0.80    1.50
  -8   0  15    3.60    2.00
   8   0 -15    2.10    1.60
   8   0 -15   -1.20    1.70
  -8   0  15   -1.60    2.60
   7   0 -15    5.50    1.80
   7   0 -15    6.70    2.00
   7   0 -15    7.70    2.10
  -7   0  15    7.70    3.10
  -7   0  15    2.00    1.90
   6   0 -15    1.30    1.70
  -6   0  15   -3.70    2.00
   6   0 -15   -0.20    1.40
  -6   0  15    0.20    1.50
   6   0 -15   -0.70    1.30
   5   0 -15    4.10    1.50
  -5   0  15    6.10    2.40
  -5   0  15    2.30    1.50
   5   0 -15   -0.70    1.50
  -4   0  15    1.70    1.80
   4   0 -15    1.10    1.50
  -4   0  15   -0.20    1.30
   4   0 -15    0.20    1.20
   3   0 -15    7.10    1.50
  -3   0  15    6.10    2.10
  -3   0  15    7.20    1.60
  -2   0  15   -1.40    1.50
  -2   0  15    2.20    1.30
  -1   0  15   38.70    3.00
   1   0 -15   47.80    2.50
   1   0 -15   43.80    3.30
  -1   0  15   40.90    4.00
   0   0 -15    0.50    0.90
   0   0 -15   -1.10    1.30
   0   0  15    1.30    1.30
   0   0  15    0.60    1.10
   0   0  15   -0.60    1.60
   0   0  15   -0.30    1.20
   1   0  15 1737.33   49.10
  -1   0 -15 1769.22   48.70
   1   0  15 1688.33   50.99
   1   0  15 1659.13   50.39
   1   0  15 1654.63   49.10
  -1   0 -15 1587.74   50.39
   2   0  15    0.60    0.90
   2   0  15    1.20    1.30
  -2   0 -15    1.40    1.30
   2   0  15   -0.60    1.30
   2   0  15    1.50    1.70
  -2   0 -15    0.20    1.00
  -3   0 -15    7.40    1.10
  -3   0 -15    5.20    1.70
   3   0  15    3.70    1.50
   3   0  15    4.20    0.90
   3   0  15    2.30    1.30
   3   0  15    4.60    2.10
   4   0  15   -0.20    2.00
  -4   0 -15    0.20    1.40
   4   0  15    0.40    0.70
   4   0  15    1.30    1.50
   4   0  15    1.70    1.50
  -4   0 -15   -0.90    1.10
   5   0  15   45.30    3.00
   5   0  15   43.60    3.70
   5   0  15   41.30    3.60
  -5   0 -15   41.90    3.50
   5   0  15   36.80    4.10
  -5   0 -15   46.90    2.50
   5   0  15   41.20    2.20
   6   0  15    0.60    1.80
  -6   0 -15   -1.30    1.10
   6   0  15    1.10    1.50
   6   0  15    1.50    2.10
   6   0  15    1.20    1.50
  -6   0 -15   -1.70    1.50
   7   0  15   17.50    2.80
   7   0  15   17.10    2.50
  -7   0 -15   19.70    2.10
   7   0  15   20.10    3.40
   7   0  15   18.50    2.60
  -7   0 -15   10.90    2.30
   8   0  15   -1.30    2.70
   8   0  15   -2.20    1.90
   8   0  15   -0.90    1.80
  -8   0 -15   -1.70    1.60
  -8   0 -15    4.30    1.50
   8   0  15   -1.80    1.80
   9   0  15    0.70    2.20
   9   0  15    5.50    3.10
   9   0  15    1.70    2.30
  -9   0 -15    2.90    1.80
   9   0  15    3.60    2.10
  -9   0 -15   -0.70    1.60
 -10   0 -15    1.50    2.10
  10   0  15   -1.70    3.30
  10   0  15   -0.10    2.10
 -10   0 -15   -2.00    2.10
  10   0  15   -1.40    1.80
  10   0  15   -3.90    2.50
  11   0  15    2.10    2.20
 -11   0 -15   -1.20    1.90
  11   0  15    2.90    2.90
 -11   0 -15    1.30    2.10
  11   0  15    0.30    2.10
  11   0  15    1.20    3.90
  12   0  15   -1.20    2.50
 -12   0 -15   -2.50    1.90
  12   0  15   11.10    5.00
  12   0  15    0.70    3.20
 -12   0 -15    1.90    2.40
  12   0  15   -0.30    2.40
  13   0  15   -8.60    4.00
  13   0  15   -4.40    3.10
  13   0  15    2.40    2.80
 -13   0 -15    4.50    2.50
 -13   0 -15   -2.40    2.40
 -13   0 -15   -3.90    3.20
  14  -1 -15   12.40    3.10
  14  -1 -15   14.20    3.50
 -14  -1  15   16.40    3.30
 -14  -1  15   11.40    6.70
  14   1 -15   14.10    3.20
  14   1 -15   11.10    3.00
  14   1 -15   19.20    3.70
  13  -1 -15   16.60    3.50
  13  -1 -15   17.00    3.70
 -13  -1  15   22.40    5.00
 -13  -1  15   15.70    3.30
  13   1 -15   18.10    3.40
 -13   1  15   13.90    5.20
  13   1 -15   14.80    3.80
  13   1 -15   16.50    3.10
  12  -1 -15    1.70    2.20
 -12  -1  15   -3.90    2.30
  12  -1 -15   -0.80    2.70
 -12  -1  15    5.70    3.80
  12   1 -15    4.50    2.30
 -12   1  15   -3.80    4.10
  12   1 -15   -1.90    2.60
  12   1 -15    0.30    2.00
  11  -1 -15   33.50    3.70
  11  -1 -15   30.30    3.90
 -11  -1  15   47.30    6.40
 -11  -1  15   31.80    4.20
 -11   1  15   42.70    5.40
  11   1 -15   39.20    4.00
  11   1 -15   41.50    4.40
  11   1 -15   34.10    3.70
  10  -1 -15   12.30    2.50
 -10  -1  15   11.20    3.00
 -10  -1  15   10.50    2.30
  10  -1 -15    6.60    2.30
 -10   1  15   14.80    3.40
  10   1 -15   12.40    2.40
  10   1 -15   15.10    2.90
  10   1 -15   15.80    2.70
  -9  -1  15   17.80    3.20
   9  -1 -15   19.70    3.20
  -9  -1  15   26.30    3.40
  -9  -1  15   27.50    4.20
   9  -1 -15   23.40    3.00
   9   1 -15   22.70    3.40
   9   1 -15   21.50    2.90
  -9   1  15   22.50    4.20
   9   1 -15   24.00    3.10
   8  -1 -15   12.00    2.40
  -8  -1  15   12.10    3.20
   8  -1 -15   12.10    2.60
  -8  -1  15   12.30    2.70
  -8  -1  15    8.60    2.10
   8   1 -15    8.00    2.00
  -8   1  15    6.20    3.00
   8   1 -15   10.60    1.90
  -8   1  15    8.90    2.80
   8   1 -15    7.10    2.70
   7  -1 -15   14.40    2.30
   7  -1 -15    4.10    1.80
  -7  -1  15    9.10    1.90
  -7  -1  15    8.80    2.80
  -7  -1  15    9.10    2.30
   7   1 -15    9.00    1.90
  -7   1  15    9.80    3.40
   7   1 -15   11.30    2.30
   7   1 -15    8.60    2.10
  -7   1  15    6.50    2.30
  -6  -1  15  317.47   11.40
   6  -1 -15  304.37   11.20
  -6  -1  15  295.17   12.00
  -6  -1  15  297.07   11.50
  -6   1  15  307.57   13.00
   6   1 -15  305.27   11.40
  -6   1  15  309.27   12.20
   6   1 -15  317.57   11.30
   6   1 -15  301.57   10.70
   5  -1 -15  790.92   22.90
  -5  -1  15  730.83   23.90
   5  -1 -15  741.93   23.70
  -5  -1  15  718.03   24.00
  -5  -1  15  747.03   24.70
  -5   1  15  793.42   25.80
   5   1 -15  756.22   24.10
   5   1 -15  757.32   24.00
   5   1 -15  749.53   23.20
  -5   1  15  747.33   24.80
   4  -1 -15    1.80    1.40
  -4  -1  15    1.70    1.40
  -4  -1  15    1.20    1.40
   4  -1 -15    2.80    1.30
  -4  -1  15    1.60    1.70
   4   1 -15    1.80    1.50
   4   1 -15    1.70    1.60
   4   1 -15    0.70    1.30
  -4   1  15    1.90    1.60
  -4   1  15    1.10    1.90
  -3  -1  15   -1.00    1.40
  -3  -1  15   -1.00    1.10
   3  -1 -15   -1.30    1.10
  -3  -1  15   -0.20    1.20
  -3   1  15   -2.40    1.50
   3   1 -15    0.00    1.20
  -3   1  15   -1.40    1.70
   3   1 -15   -0.80    1.50
  -2  -1  15   -1.40    1.50
  -2  -1  15   -0.70    1.30
  -2  -1  15    0.30    1.10
   2  -1 -15    1.30    1.20
  -2   1  15   -1.90    1.70
   2   1 -15   -1.40    1.00
  -2   1  15   -1.80    1.60
  -2   1  15   -1.10    1.00
   2   1 -15   -1.90    1.30
  -1  -1  15   83.29    4.80
  -1  -1  15   83.79    3.60
   1  -1 -15   84.49    4.10
   1  -1 -15   85.79    4.90
  -1  -1  15   74.99    4.70
   1   1 -15   86.59    3.30
   1   1 -15   85.99    4.50
  -1   1  15   81.49    4.60
   1   1 -15   81.59    4.60
  -1   1  15   86.79    5.50
   0  -1  15   82.49    4.80
   0  -1  15   87.89    5.00
   0  -1  15   87.09    3.30
   0  -1 -15   91.69    4.10
   0  -1 -15   77.99    4.80
   0   1  15   84.29    4.50
   0   1  15   79.69    5.50
   0   1 -15   86.99    4.40
   0   1  15   81.49    4.50
   1  -1  15   37.90    2.90
   1  -1  15   43.30    3.60
   1  -1  15   42.00    3.80
  -1  -1 -15   32.30    3.40
  -1  -1 -15   36.90    2.70
  -1   1 -15   41.80    3.10
   1   1  15   35.50    3.10
   1   1  15   35.90    1.80
   1   1  15   42.00    3.30
   1   1  15   39.60    3.90
   2  -1  15  141.69    6.10
  -2  -1 -15  154.48    5.90
   2  -1  15  147.89    6.90
  -2  -1 -15  136.19    6.70
   2  -1  15  151.28    7.10
  -2   1 -15  142.29    6.40
   2   1  15  155.98    5.00
   2   1  15  155.98    6.40
   2   1  15  147.29    7.50
   2   1  15  154.08    6.70
  -3  -1 -15  161.38    6.00
   3  -1  15  154.18    7.10
   3  -1  15  147.19    7.20
  -3  -1 -15  148.99    7.00
   3  -1  15  149.79    6.30
   3   1  15  158.48    7.80
  -3   1 -15  150.48    6.70
   3   1  15  148.79    6.90
   3   1  15  148.59    6.30
   3   1  15  154.38    5.30
   4  -1  15   96.99    5.70
  -4  -1 -15   94.49    4.30
  -4  -1 -15   82.79    5.10
   4  -1  15   93.39    5.40
   4  -1  15   98.69    4.70
   4   1  15   89.49    4.40
   4   1  15   97.99    5.30
   4   1  15  100.09    5.20
  -4   1 -15   91.19    5.00
   4   1  15   80.79    5.70
   4   1  15   95.39    3.90
  -5  -1 -15   -0.10    1.50
   5  -1  15   -0.30    2.20
   5  -1  15    1.30    1.70
  -5  -1 -15    1.60    1.30
   5  -1  15    3.00    1.60
   5   1  15    1.30    1.40
   5   1  15    3.40    2.20
  -5   1 -15    3.10    1.40
   5   1  15    3.60    1.80
   5   1  15   -0.70    1.70
   5   1  15   -0.20    1.50
   6  -1  15   17.80    3.20
  -6  -1 -15   13.60    2.00
   6  -1  15   16.20    2.40
   6  -1  15   16.20    2.50
  -6  -1 -15   16.90    2.90
   6   1  15   15.90    2.60
   6   1  15   11.40    2.70
   6   1  15   15.60    2.20
   6   1  15   16.90    2.50
  -6   1 -15   12.00    2.30
   6   1  15   14.30    3.20
  -7  -1 -15   11.00    2.40
   7  -1  15   11.90    3.40
   7  -1  15   14.50    2.50
  -7  -1 -15   13.70    2.00
   7  -1  15   13.00    2.70
   7   1  15    8.80    2.30
   7   1  15   13.00    2.30
   7   1  15   12.70    2.00
   7   1  15   11.80    2.70
   7   1  15   12.10    2.80
  -7   1 -15   13.70    2.70
  -8  -1 -15    6.50    1.80
   8  -1  15    5.00    2.10
  -8  -1 -15    1.20    1.90
   8  -1  15    3.40    2.70
   8  -1  15    1.50    2.50
   8  -1  15    1.60    2.10
   8   1  15    0.20    1.90
   8   1  15    3.20    1.80
   8   1  15    1.40    1.90
  -8   1 -15    3.60    2.00
   8   1  15    0.70    2.20
   8   1  15   -0.20    2.90
   9  -1  15    0.50    3.10
  -9  -1 -15    0.80    1.90
   9  -1  15   -0.30    2.50
   9  -1  15    0.00    1.80
   9  -1  15   -0.30    1.80
  -9  -1 -15   -0.80    2.00
   9   1  15    2.40    2.10
   9   1  15   -0.10    1.80
   9   1  15    2.70    3.40
   9   1  15    0.60    2.10
   9   1  15    0.30    2.10
  -9   1 -15    0.40    2.00
  10  -1  15   42.10    5.50
  10  -1  15   57.69    4.70
 -10  -1 -15   36.10    4.20
 -10  -1 -15   50.29    4.10
  10  -1  15   52.49    7.00
  10  -1  15   44.20    4.30
  10   1  15   46.60    6.90
  10   1  15   45.20    4.40
  10   1  15   48.80    4.50
 -10   1 -15   40.10    4.10
 -10   1 -15   48.70    3.20
  10   1  15   36.50    3.80
  11  -1  15   12.60    3.30
  11  -1  15   13.60    3.10
 -11  -1 -15   14.80    2.80
 -11  -1 -15   19.00    3.00
  11  -1  15   14.60    4.50
  11  -1  15   13.00    3.40
  11   1  15   15.90    3.20
 -11   1 -15   15.10    2.30
  11   1  15   17.10    3.00
  11   1  15   15.20    4.70
  11   1  15   13.10    2.80
 -11   1 -15   12.70    3.00
  12  -1  15    6.10    2.60
  12  -1  15   15.40    5.50
  12  -1  15    1.50    2.40
 -12  -1 -15   12.90    3.10
 -12  -1 -15    5.50    2.50
  12  -1  15    0.20    3.60
  12   1  15   11.90    2.80
 -12   1 -15   12.80    2.80
  12   1  15   -0.80    4.60
  12   1  15    5.90    3.20
 -12   1 -15    7.90    2.80
  12   1  15    5.10    3.00
  13  -2 -15    1.90    2.20
 -13  -2  15    2.20    4.80
 -13  -2  15    3.30    3.00
  13  -2 -15    3.60    3.20
  13   2 -15    0.10    3.00
 -13   2  15    5.30    6.50
  13   2 -15    2.90    3.10
  12  -2 -15    1.60    2.80
  12  -2 -15    3.10    2.40
 -12  -2  15   -4.70    2.60
  12   2 -15   -0.10    2.60
  12   2 -15    0.70    2.60
 -12   2  15    2.10    4.60
  11  -2 -15    5.30    2.90
 -11  -2  15    6.30    2.60
  11  -2 -15    2.60    2.40
 -11  -2  15    4.60    4.10
  11   2 -15    0.80    2.60
 -11   2  15   -4.00    3.30
  11   2 -15    6.40    2.90
 -10  -2  15    2.30    2.30
  10  -2 -15   -1.20    2.20
  10  -2 -15    2.70    2.10
 -10  -2  15   -1.90    3.30
  10   2 -15   -1.10    2.30
 -10   2  15   -3.80    3.60
  10   2 -15   -3.70    2.50
  -9  -2  15   23.20    3.20
   9  -2 -15   22.80    3.80
  -9  -2  15   25.50    4.00
   9  -2 -15   26.90    3.20
   9  -2 -15   19.70    3.40
   9   2 -15   29.40    3.80
  -9   2  15   21.20    3.00
   9   2 -15   20.30    3.80
  -9   2  15   15.70    4.30
   8  -2 -15   37.10    4.90
   8  -2 -15   36.30    3.70
  -8  -2  15   30.70    3.90
  -8  -2  15   41.80    5.10
   8  -2 -15   34.00    3.20
   8   2 -15   31.30    3.90
  -8   2  15   36.00    2.80
  -8   2  15   33.60    5.50
   8   2 -15   34.20    3.80
  -8   2  15   45.70    5.90
  -7  -2  15  113.89    6.00
   7  -2 -15  123.69    5.10
   7  -2 -15  115.79    6.10
  -7  -2  15  110.89    6.50
   7  -2 -15  112.79    6.80
  -7   2  15  116.59    8.20
   7   2 -15  114.69    6.40
  -7   2  15  104.39    7.50
  -7   2  15  118.89    5.00
   7   2 -15  116.69    6.30
   6  -2 -15   41.40    4.70
  -6  -2  15   40.40    4.00
   6  -2 -15   38.20    3.40
  -6  -2  15   43.60    4.00
   6  -2 -15   38.00    2.80
   6   2 -15   38.10    3.70
  -6   2  15   39.70    5.00
  -6   2  15   43.60    5.90
  -6   2  15   38.60    3.30
   6   2 -15   40.10    3.80
   5  -2 -15    4.10    1.70
   5  -2 -15    6.80    1.40
   5  -2 -15    5.30    2.10
  -5  -2  15    5.60    1.90
  -5  -2  15    5.20    2.00
   5   2 -15    7.80    2.30
  -5   2  15    1.50    2.50
  -5   2  15    4.40    1.80
   5   2 -15    4.40    2.10
  -5   2  15    3.30    2.60
   4  -2 -15  102.19    5.30
  -4  -2  15  102.59    5.30
  -4  -2  15   99.69    5.60
  -4   2  15   91.69    6.60
   4   2 -15  101.59    5.50
  -4   2  15  101.49    6.50
  -4   2  15   95.59    4.70
   3  -2 -15   60.19    4.00
  -3  -2  15   64.59    4.10
  -3  -2  15   62.69    4.50
   3   2 -15   71.69    4.50
  -3   2  15   65.29    3.90
  -3   2  15   68.09    5.20
  -2  -2  15   91.69    5.30
  -2  -2  15   81.29    4.70
   2  -2 -15   84.29    4.50
  -2  -2  15   87.19    4.00
  -2   2  15   81.79    4.60
   2   2 -15   81.49    4.90
  -2   2  15   80.09    5.90
  -2   2  15   85.49    5.60
  -1  -2  15    4.80    1.10
   1  -2 -15    6.10    1.80
  -1  -2  15    2.80    1.80
  -1  -2  15    5.50    1.70
  -1   2  15    2.20    2.30
  -1   2  15    5.90    1.80
   1   2 -15    4.30    1.60
   1   2 -15    4.50    2.10
  -1   2  15    4.20    1.80
   0  -2  15    1.40    1.50
   0  -2 -15    3.70    1.60
   0  -2  15    2.30    1.70
   0  -2 -15    2.80    1.70
   0   2 -15    2.20    1.80
   0   2 -15    2.60    1.50
   0   2  15   -1.00    1.70
   0   2  15    2.80    2.00
   0   2  15    1.90    1.60
   1  -2  15  210.58    8.50
  -1  -2 -15  217.58    8.20
   1  -2  15  214.48    9.10
   1  -2  15  200.08    8.40
  -1  -2 -15  202.78    8.90
  -1   2 -15  201.28    8.70
   1   2  15  216.58    9.10
   1   2  15  210.98    8.60
  -1   2 -15  210.98    8.10
  -2  -2 -15    9.10    2.00
   2  -2  15   10.90    2.20
   2  -2  15    8.40    2.30
  -2  -2 -15    9.30    2.00
   2  -2  15   11.00    2.30
   2   2  15   10.90    2.40
  -2   2 -15    8.90    2.00
   2   2  15    6.30    1.80
  -2   2 -15    6.60    2.10
   2   2  15    7.60    2.50
   3  -2  15   86.79    5.30
   3  -2  15   80.79    4.80
   3  -2  15   89.29    5.60
  -3  -2 -15   90.59    5.40
  -3  -2 -15   81.29    4.50
  -3   2 -15   80.49    4.60
   3   2  15   95.39    5.50
   3   2  15   78.29    5.90
   3   2  15   78.59    5.00
   4  -2  15   65.89    5.00
   4  -2  15   66.19    4.90
   4  -2  15   57.39    4.00
  -4  -2 -15   63.69    4.60
  -4  -2 -15   57.59    3.90
   4   2  15   54.89    4.40
   4   2  15   61.89    4.60
   4   2  15   59.49    2.90
  -4   2 -15   58.59    3.90
   4   2  15   50.09    4.90
   5  -2  15   30.00    3.90
  -5  -2 -15   27.40    3.60
   5  -2  15   22.10    3.30
  -5  -2 -15   19.60    2.70
   5  -2  15   22.70    3.00
   5   2  15   27.40    2.50
   5   2  15   27.20    3.40
  -5   2 -15   25.70    2.90
   5   2  15   22.70    3.40
   5   2  15   25.00    3.40
   6  -2  15    4.00    2.40
  -6  -2 -15   -2.30    1.80
   6  -2  15   -0.90    2.10
  -6  -2 -15   -1.50    1.50
   6  -2  15   -0.40    2.10
   6   2  15    1.50    2.40
   6   2  15    1.50    1.80
  -6   2 -15    2.00    1.70
   6   2  15   -0.90    1.90
   6   2  15   -0.80    2.10
  -7  -2 -15  197.68    9.20
   7  -2  15  211.58   10.20
  -7  -2 -15  201.38    8.40
   7  -2  15  220.48    9.80
   7  -2  15  196.38    8.80
   7   2  15  213.08    8.60
   7   2  15  207.88    9.10
   7   2  15  217.68   10.20
  -7   2 -15  193.98    8.60
   7   2  15  200.68    7.60
   7   2  15  189.88    9.30
   8  -2  15    4.70    2.70
   8  -2  15    3.10    3.20
   8  -2  15   -2.00    1.90
  -8  -2 -15   -0.80    2.00
  -8  -2 -15   -0.30    2.20
   8   2  15   -2.50    2.20
   8   2  15   -1.00    2.30
   8   2  15    1.60    2.30
  -8   2 -15    2.00    1.80
   8   2  15    3.90    2.40
   8   2  15   -1.50    2.70
   9  -2  15    2.80    2.20
   9  -2  15    1.10    3.50
   9  -2  15   -0.50    3.10
  -9  -2 -15   -0.90    2.40
  -9  -2 -15    0.20    2.00
   9   2  15   -0.80    2.60
   9   2  15   -2.70    3.40
  -9   2 -15    1.10    1.90
   9   2  15   -0.90    2.50
   9   2  15   -1.60    2.40
   9   2  15   -0.30    2.20
 -10  -2 -15    8.60    2.80
  10  -2  15    5.90    3.50
  10  -2  15   -1.50    4.60
 -10  -2 -15    7.70    2.40
  10  -2  15   12.10    2.90
  10  -2  15    9.90    2.60
  10   2  15    4.30    2.70
  10   2  15   12.00    2.60
  10   2  15    6.70    4.60
  10   2  15    4.70    3.10
  10   2  15    7.40    2.50
 -10   2 -15    3.90    2.20
  11  -2  15    2.70    2.60
 -11  -2 -15    2.10    2.40
  11  -2  15   12.90    5.40
 -11  -2 -15    4.40    2.80
  11  -2  15    3.20    2.70
  11  -2  15    3.50    3.80
  11   2  15    6.30    4.50
  11   2  15   -2.70    2.70
  11   2  15    1.20    3.50
  11   2  15    2.30    2.70
  11   2  15    1.60    2.40
 -11   2 -15    0.20    2.30
  12  -2  15    6.60    6.40
  12  -2  15    4.80    3.20
 -12  -2 -15    7.80    3.10
  12  -2  15    5.60    3.00
  12  -2  15    5.70    4.70
 -12  -2 -15   12.30    3.30
  12   2  15    4.50    2.90
  12   2  15    9.90    3.30
  12   2  15   10.90    4.00
  12   2  15   13.30    6.00
  12   2  15    2.20    2.80
 -12   2 -15    6.90    2.80
  12  -3 -15    2.50    2.10
 -12  -3  15    1.00    3.40
  12  -3 -15   -0.70    4.30
  11  -3 -15   32.70    3.90
 -11  -3  15   33.80    4.10
  11  -3 -15   27.80    4.40
 -11  -3  15   30.40    4.70
  11   3 -15   23.30    4.10
  11   3 -15   38.10    4.90
  10  -3 -15   -2.50    2.30
  10  -3 -15   -0.90    3.90
 -10  -3  15   -5.10    3.00
  10  -3 -15    1.90    2.50
 -10  -3  15    4.60    3.10
  10   3 -15   -0.20    2.80
 -10   3  15    2.40    4.90
  10   3 -15    3.60    2.60
 -10   3  15   -3.30    5.30
   9  -3 -15   -3.60    2.30
   9  -3 -15    3.00    3.40
  -9  -3  15    3.70    2.90
   9  -3 -15    0.10    2.10
  -9  -3  15    2.30    2.60
  -9   3  15    2.30    4.80
   9   3 -15   -3.30    2.50
   9   3 -15    1.30    2.60
  -9   3  15    5.40    4.20
   8  -3 -15    5.10    2.10
  -8  -3  15    8.40    3.20
  -8  -3  15    5.90    2.50
   8  -3 -15    6.10    3.20
   8  -3 -15    6.20    2.50
  -8   3  15   -0.20    4.00
  -8   3  15    3.30    4.20
   8   3 -15    6.50    2.70
   8   3 -15    7.20    2.60
   7  -3 -15    0.00    2.00
  -7  -3  15    4.90    2.10
   7  -3 -15    1.00    1.70
   7  -3 -15    4.60    2.80
  -7  -3  15   -5.40    2.70
  -7   3  15    2.50    3.90
   7   3 -15    2.50    2.40
  -7   3  15    5.40    4.20
   7   3 -15    2.50    2.30
   6  -3 -15   11.00    1.90
  -6  -3  15    4.10    2.90
  -6  -3  15    8.60    2.10
   6  -3 -15    5.50    2.30
   6  -3 -15    5.00    2.80
  -6   3  15    7.20    3.10
  -6   3  15   10.70    2.30
   6   3 -15    5.60    2.50
   6   3 -15    6.60    2.60
  -6   3  15    3.50    3.40
  -5  -3  15   28.30    3.90
   5  -3 -15   35.60    4.60
   5  -3 -15   30.10    3.50
  -5  -3  15   32.00    3.40
  -5   3  15   33.20    3.50
  -5   3  15   44.40    6.00
   5   3 -15   27.00    3.80
  -5   3  15   37.60    5.60
   4  -3 -15  156.08    7.60
  -4  -3  15  157.68    6.50
  -4  -3  15  152.08    8.10
   4  -3 -15  167.38    8.80
  -4   3  15  153.38    6.80
  -4   3  15  162.18    9.20
  -4   3  15  157.28    9.10
   4   3 -15  158.78    7.90
  -3  -3  15  108.59    5.00
  -3  -3  15  110.39    5.00
   3  -3 -15   99.99    5.70
  -3  -3  15  111.39    6.80
   3  -3 -15  117.99    7.10
  -3   3  15  102.89    7.30
  -3   3  15  106.49    5.40
   3   3 -15  105.29    6.10
  -3   3  15  105.09    7.40
   2  -3 -15   11.70    2.40
  -2  -3  15   11.50    1.80
  -2  -3  15    9.70    1.80
   2  -3 -15   10.70    2.60
  -2  -3  15    9.40    2.90
  -2   3  15    8.10    2.50
  -2   3  15    6.40    3.00
   2   3 -15    7.90    2.30
  -2   3  15    9.40    2.30
   1  -3 -15   34.70    4.60
   1  -3 -15   29.40    3.50
  -1  -3  15   27.80    3.00
  -1  -3  15   26.20    2.80
  -1  -3  15   32.40    5.00
   1   3 -15   25.00    3.40
  -1   3  15   27.60    3.80
  -1   3  15   27.20    4.00
  -1   3  15   27.30    3.30
   0  -3  15   47.30    5.00
   0  -3 -15   46.40    4.90
   0  -3  15   43.40    2.80
   0  -3  15   40.40    3.50
   0  -3 -15   38.30    3.70
   0   3  15   40.70    3.90
   0   3 -15   44.80    3.20
   0   3  15   41.70    5.00
   0   3  15   40.30    5.00
   0   3 -15   38.40    3.70
   1  -3  15  106.79    5.90
   1  -3  15   97.49    5.40
   1  -3  15   92.29    6.40
  -1  -3 -15   91.19    5.60
  -1  -3 -15  105.89    6.00
  -1   3 -15  106.69    4.90
  -1   3 -15  105.59    5.90
   1   3  15  102.49    7.10
   1   3  15   98.99    5.70
   1   3  15  112.49    6.90
   2  -3  15   27.30    3.70
  -2  -3 -15   23.90    3.40
  -2  -3 -15   21.70    3.10
   2  -3  15   26.90    3.80
   2  -3  15   23.40    3.30
  -2   3 -15   26.80    3.00
  -2   3 -15   27.40    3.50
   2   3  15   29.80    4.20
   2   3  15   27.40    3.70
   2   3  15   28.00    4.10
  -3  -3 -15  103.09    6.20
   3  -3  15  113.29    6.20
   3  -3  15  108.69    7.30
   3  -3  15  101.49    6.00
  -3  -3 -15  118.19    6.00
  -3   3 -15  104.69    6.00
   3   3  15  106.59    7.20
  -3   3 -15  107.49    5.30
   3   3  15  107.09    6.30
   3   3  15  115.79    7.30
   4  -3  15   47.00    5.60
   4  -3  15   39.60    4.00
  -4  -3 -15   40.60    4.40
   4  -3  15   41.70    4.70
  -4  -3 -15   38.00    3.70
  -4   3 -15   39.20    3.30
   4   3  15   46.90    5.20
  -4   3 -15   38.00    4.00
   4   3  15   54.99    5.40
   4   3  15   43.30    4.30
   5  -3  15    2.70    3.10
   5  -3  15    1.10    1.80
  -5  -3 -15    0.80    1.90
  -5  -3 -15    0.80    2.30
   5  -3  15    2.60    2.80
   5   3  15   -0.70    2.10
  -5   3 -15    1.50    1.80
   5   3  15    1.00    2.10
   5   3  15   -1.10    2.40
   5   3  15   -2.90    2.50
   6  -3  15   29.60    4.00
  -6  -3 -15   31.80    4.20
  -6  -3 -15   30.00    3.60
   6  -3  15   29.10    4.30
   6  -3  15   26.30    3.90
  -6   3 -15   25.00    3.20
   6   3  15   34.20    3.30
   6   3  15   24.10    3.90
   6   3  15   22.80    3.60
   6   3  15   23.90    3.60
  -7  -3 -15   -0.60    1.90
  -7  -3 -15   -1.00    2.70
   7  -3  15   -1.10    3.20
   7  -3  15    0.20    2.60
   7  -3  15   -0.20    3.20
   7   3  15    6.30    3.30
   7   3  15    3.90    2.40
  -7   3 -15   -1.70    1.80
   7   3  15    4.40    2.50
   7   3  15    1.70    3.20
  -8  -3 -15    1.90    2.60
   8  -3  15   -1.40    3.70
   8  -3  15    5.10    4.00
   8  -3  15    6.20    2.50
  -8  -3 -15    1.50    2.40
  -8   3 -15   -0.40    2.20
   8   3  15   -0.20    2.70
   8   3  15    7.60    3.90
   8   3  15    0.10    2.20
   8   3  15   -1.10    3.30
   9  -3  15   -2.40    4.40
  -9  -3 -15    0.60    2.50
  -9  -3 -15    2.30    2.50
   9  -3  15    0.30    2.40
   9  -3  15   -0.70    4.80
   9   3  15    5.60    2.80
   9   3  15   -0.30    2.70
   9   3  15    3.40    3.40
  -9   3 -15   -2.80    2.10
   9   3  15    3.40    2.80
   9   3  15   10.50    4.30
  10  -3  15   35.90    6.50
  10  -3  15   34.00    4.70
 -10  -3 -15   40.00    4.80
  10  -3  15   39.20    6.00
 -10  -3 -15   38.90    4.70
 -10   3 -15   37.40    4.30
  10   3  15   39.60    5.40
  10   3  15   46.60    4.90
  10   3  15   54.49    7.20
  10   3  15   46.00    4.80
  10   3  15   25.40    4.10
   9  -4 -15   -2.20    5.20
  -9  -4  15    8.70    3.90
   9  -4 -15    3.50    2.80
   9  -4 -15    0.10    2.20
   9   4 -15    2.20    3.00
   9   4 -15    5.90    3.00
  -9   4  15   -8.70    6.90
  -9   4  15   -0.10    5.90
  -8  -4  15   10.00    3.80
   8  -4 -15    2.70    4.70
   8  -4 -15    4.90    2.60
   8  -4 -15    6.70    2.70
   8   4 -15    0.00    2.60
  -8   4  15    7.30    5.10
  -8   4  15   10.70    5.60
   7  -4 -15    2.60    2.40
  -7  -4  15    1.70    2.20
  -7  -4  15   -2.20    3.30
   7  -4 -15    1.70    3.80
   7  -4 -15   -5.60    4.10
  -7   4  15   -0.60    5.30
  -7   4  15   -6.10    4.00
   7   4 -15    8.60    3.30
  -6  -4  15    6.40    2.70
   6  -4 -15    6.50    2.30
  -6  -4  15    7.60    3.90
   6  -4 -15    1.10    4.30
   6   4 -15    4.00    2.80
  -6   4  15    4.00    4.20
  -6   4  15    3.00    2.80
  -6   4  15    2.90    4.40
   5  -4 -15    4.90    2.60
  -5  -4  15    2.10    2.20
   5  -4 -15    3.80    4.30
  -5  -4  15    7.00    3.30
  -5   4  15   -1.20    2.50
  -5   4  15   -3.20    3.60
  -5   4  15    7.60    3.90
   5   4 -15    5.20    2.50
   4  -4 -15   67.59    8.10
  -4  -4  15   85.19    7.20
  -4  -4  15   77.79    4.70
   4  -4 -15   80.29    5.50
   4   4 -15   70.79    5.80
  -4   4  15   78.29    4.90
  -4   4  15   77.99    8.00
  -4   4  15   69.09    7.70
  -3  -4  15   13.20    2.70
   3  -4 -15   13.80    2.50
  -3  -4  15   12.90    3.50
   3  -4 -15   11.50    4.40
  -3   4  15   12.40    2.80
  -3   4  15   10.10    3.70
  -3   4  15   13.00    3.50
   3   4 -15    9.90    2.40
  -2  -4  15   30.60    4.60
   2  -4 -15   28.20    3.90
  -2  -4  15   29.90    3.60
   2  -4 -15   28.10    5.00
  -2   4  15   32.40    4.80
  -2   4  15   37.40    4.10
  -2   4  15   40.70    6.60
   2   4 -15   34.00    4.00
   1  -4 -15    0.30    2.40
  -1  -4  15    4.50    2.30
  -1  -4  15   -0.20    3.00
  -1  -4  15    1.50    1.40
   1  -4 -15    1.30    3.10
   1   4 -15   -0.90    2.10
  -1   4  15   -1.80    2.10
  -1   4  15    2.30    3.80
  -1   4  15   -5.30    3.40
   0  -4  15   12.90    2.40
   0  -4 -15   11.80    3.70
   0  -4 -15   11.80    2.80
   0  -4  15   12.80    2.00
   0  -4  15   13.40    4.10
   0   4  15   10.40    4.00
   0   4 -15   14.20    2.90
   0   4  15    8.70    3.70
   0   4  15   12.10    3.20
   1  -4  15    7.00    3.80
   1  -4  15    1.90    1.90
   1  -4  15    4.50    2.20
   1  -4  15    4.00    2.20
  -1  -4 -15    2.70    2.40
  -1  -4 -15   -2.40    3.30
   1   4  15   -0.70    3.80
   1   4  15    1.30    3.30
  -1   4 -15    3.90    2.40
  -1   4 -15    1.10    1.80
   1   4  15    5.10    2.60
   2  -4  15    1.70    3.60
   2  -4  15    0.00    2.30
  -2  -4 -15    6.00    3.20
  -2  -4 -15   -0.20    2.00
   2  -4  15   -0.70    2.30
   2  -4  15   -2.30    2.80
   2   4  15   -2.00    3.40
  -2   4 -15    0.10    2.00
  -2   4 -15   -3.30    2.00
   2   4  15    2.40    2.30
   2   4  15   -3.10    4.00
  -3  -4 -15   14.50    3.40
  -3  -4 -15   18.30    3.40
   3  -4  15   11.50    2.80
   3  -4  15   12.80    4.10
   3  -4  15   21.80    3.30
   3   4  15   12.50    3.20
   3   4  15   16.40    4.30
   3   4  15   16.40    4.20
  -3   4 -15   17.10    3.30
   4  -4  15    1.00    3.90
  -4  -4 -15   -2.00    2.00
  -4  -4 -15    0.50    2.40
   4  -4  15    3.20    2.90
   4  -4  15   -0.50    2.00
   4   4  15    2.90    2.60
  -4   4 -15   -0.40    2.10
   4   4  15    0.40    3.30
  -4   4 -15   -0.50    2.10
   4   4  15    2.50    3.40
   5  -4  15    6.40    4.20
   5  -4  15    4.90    2.80
  -5  -4 -15    3.70    2.20
  -5  -4 -15    5.00    2.70
   5  -4  15   10.10    3.50
   5   4  15    7.40    3.20
  -5   4 -15    0.60    1.90
   5   4  15    3.40    4.10
   5   4  15   10.00    3.60
  -5   4 -15    4.10    2.60
   6  -4  15   14.80    4.30
  -6  -4 -15   16.90    3.30
   6  -4  15   15.70    3.60
  -6  -4 -15   13.80    2.70
   6  -4  15   17.20    4.80
   6   4  15   13.20    3.60
   6   4  15    9.30    4.00
  -6   4 -15   15.80    2.60
   6   4  15   20.40    4.20
   7  -4  15   25.50    5.50
  -7  -4 -15   26.70    4.20
   7  -4  15   17.00    4.90
  -7  -4 -15   22.40    3.80
   7  -4  15   20.00    3.60
   7   4  15   17.60    3.60
   7   4  15   22.30    5.50
   7   4  15   22.40    4.20
  -7   4 -15   19.30    3.00
   7   4  15   28.90    4.70
   8  -4  15   75.99    9.40
  -8  -4 -15   64.79    5.90
  -8  -4 -15   53.99    5.40
   8  -4  15   64.69    5.90
   8  -4  15   51.59    6.80
  -8   4 -15   60.79    4.70
   8   4  15   52.69    5.30
   8   4  15   53.39    5.70
   8   4  15   59.79    8.30
   8   4  15   55.19    7.00
  -5  -5  15   -0.40    4.70
  -5  -5  15    0.90    3.00
   5  -5 -15    0.90    3.50
   5  -5 -15    7.90    3.10
  -5   5  15    2.60    3.10
  -5   5  15    4.00    3.70
   5   5 -15    6.10    3.00
  -5   5  15    5.00    5.40
  -4  -5  15   29.60    5.80
  -4  -5  15   27.10    4.10
   4  -5 -15   32.70    8.80
   4  -5 -15   28.30    4.30
   4   5 -15   28.10    4.30
  -4   5  15   28.40    5.90
  -4   5  15   27.10    3.90
  -4   5  15   27.00    9.00
  -3  -5  15   49.60    5.00
   3  -5 -15   47.40    5.30
   3  -5 -15   60.69    7.70
  -3  -5  15   58.99    6.90
  -3   5  15   54.69    8.40
   3   5 -15   58.19    5.50
  -3   5  15   53.49    8.60
  -3   5  15   55.49    5.80
   3   5 -15   52.29    5.50
   2  -5 -15   41.70    5.00
  -2  -5  15   50.79    4.80
   2  -5 -15   69.89   10.10
  -2  -5  15   46.10    6.70
   2   5 -15   41.00    5.70
  -2   5  15   31.50    6.60
  -2   5  15   47.90    5.20
  -2   5  15   49.70    6.80
   2   5 -15   43.90    4.80
  -1  -5  15    3.00    5.00
   1  -5 -15   -2.00    5.70
   1  -5 -15   -1.90    2.70
  -1  -5  15    6.20    2.90
  -1   5  15    6.30    4.60
   1   5 -15   -1.90    2.60
  -1   5  15    2.10    2.80
  -1   5  15    0.40    6.00
   1   5 -15    3.00    2.40
   0  -5  15    5.80    4.70
   0  -5  15    3.60    2.60
   0  -5  15    5.70    3.10
   0  -5 -15    2.10    2.40
   0  -5 -15   -8.70    5.30
   0   5 -15    1.40    2.70
   0   5  15    0.90    4.40
   0   5 -15    3.80    2.60
   0   5  15    2.80    2.80
   0   5  15    8.70    5.70
   1  -5  15   11.80    3.00
   1  -5  15    1.30    5.00
  -1  -5 -15    7.00    2.70
   1  -5  15   11.70    3.20
  -1  -5 -15   -5.00    4.30
  -1   5 -15    4.00    2.70
   1   5  15    8.40    5.70
   1   5  15    5.70    2.80
  -1   5 -15    7.30    2.60
   1   5  15   -0.30    4.60
   2  -5  15   36.40    7.00
   2  -5  15   38.90    7.20
  -2  -5 -15   45.00    5.30
   2  -5  15   59.19    5.40
  -2  -5 -15   45.10    6.20
   2   5  15   56.79    7.70
   2   5  15   40.30    4.90
  -2   5 -15   43.10    5.10
   2   5  15   36.70    7.20
  -2   5 -15   43.70    4.30
  -3  -5 -15   24.20    3.70
  -3  -5 -15   28.70    5.50
   3  -5  15   18.50    7.70
   3  -5  15   22.30    3.50
   3  -5  15   37.90    4.80
   3   5  15   35.20    6.20
   3   5  15   33.80    5.20
  -3   5 -15   26.80    4.10
   3   5  15   22.40    4.30
   4  -5  15    2.00    4.10
  -4  -5 -15    0.70    2.80
   4  -5  15    2.40    2.70
   4   5  15    6.10    4.50
  -4   5 -15    5.70    2.90
   4   5  15   -0.90    6.00
  -4   5 -15    0.90    5.90
   4   5  15   -3.70    3.10
 -14   0  16    5.20    4.60
 -13   0  16    8.70    4.30
  13   0 -16    0.60    2.40
  13   0 -16    0.10    2.80
 -13   0  16    7.30    3.20
  13   0 -16   -5.20    2.50
 -12   0  16   12.00    4.30
  12   0 -16   -0.10    2.10
  12   0 -16    4.30    2.60
  12   0 -16    0.30    2.70
  11   0 -16   -1.10    2.60
 -11   0  16    0.00    3.10
  11   0 -16   -2.10    2.10
  11   0 -16   -1.70    2.10
  10   0 -16   14.70    2.80
  10   0 -16   18.80    2.80
 -10   0  16   16.80    4.00
  10   0 -16   20.20    3.50
   9   0 -16    1.10    2.00
  -9   0  16    3.70    3.50
   9   0 -16    1.70    2.20
   9   0 -16    0.10    1.60
  -9   0  16    3.10    2.50
   8   0 -16   24.30    3.10
  -8   0  16   25.80    3.70
   8   0 -16   23.10    3.00
   8   0 -16   24.20    3.10
  -8   0  16   22.70    3.90
   7   0 -16   -0.30    1.70
   7   0 -16    2.00    1.60
  -7   0  16   -0.80    1.90
  -7   0  16   -2.30    2.60
   7   0 -16    1.10    1.90
   6   0 -16  801.72   24.40
  -6   0  16  780.52   25.40
   6   0 -16  786.62   24.40
  -6   0  16  733.73   26.10
   5   0 -16   -1.70    1.60
   5   0 -16    0.70    1.20
  -5   0  16   -0.40    1.60
  -5   0  16   -1.40    1.90
  -4   0  16    2.70    1.90
   4   0 -16    2.70    1.60
  -4   0  16    5.20    1.80
   4   0 -16    2.80    1.40
   3   0 -16   -0.30    1.30
  -3   0  16    3.10    2.00
  -3   0  16    1.00    1.40
  -2   0  16   49.00    3.50
  -2   0  16   52.79    4.50
   2   0 -16   55.29    3.00
  -1   0  16    1.50    1.40
  -1   0  16    1.00    1.40
   1   0 -16   -1.50    1.30
  -1   0  16   -2.80    1.50
   1   0 -16   -0.90    1.00
   0   0  16   27.50    3.70
   0   0 -16   29.70    2.10
   0   0  16   31.40    2.50
   0   0  16   35.50    2.50
   0   0 -16   27.30    3.00
   0   0  16   29.80    3.30
   1   0  16    2.60    2.00
   1   0  16    0.80    1.40
  -1   0 -16    0.60    1.40
   1   0  16    1.20    1.70
  -1   0 -16   -1.40    0.90
   1   0  16    1.60    1.00
   2   0  16   93.39    5.10
  -2   0 -16   81.89    4.90
   2   0  16   92.59    4.10
   2   0  16   87.19    3.70
   2   0  16   89.99    5.80
  -2   0 -16   92.69    3.50
   3   0  16    0.20    1.40
  -3   0 -16    0.10    1.10
  -3   0 -16   -0.60    1.40
   3   0  16    0.00    1.80
   3   0  16    1.00    0.90
   3   0  16   -1.70    1.40
  -4   0 -16   78.99    3.00
   4   0  16   78.29    4.90
   4   0  16   74.29    3.00
  -4   0 -16   72.29    4.70
   4   0  16   80.79    4.10
   4   0  16   74.49    5.50
  -5   0 -16   -3.10    1.60
   5   0  16   -0.90    1.60
   5   0  16   -0.40    1.50
   5   0  16    0.40    0.70
   5   0  16    1.50    1.70
   5   0  16    2.60    2.20
  -5   0 -16   -0.70    1.30
   6   0  16    0.10    1.90
  -6   0 -16    0.80    1.70
   6   0  16   -1.50    2.20
   6   0  16    1.60    1.50
  -6   0 -16   -1.10    1.30
   6   0  16    0.00    1.90
   7   0  16    4.70    2.60
  -7   0 -16    1.70    1.70
   7   0  16   -2.20    1.60
   7   0  16   -1.30    1.90
   7   0  16    0.60    2.10
  -7   0 -16   -2.70    1.30
   8   0  16   42.40    4.30
   8   0  16   43.20    3.60
  -8   0 -16   42.30    4.00
   8   0  16   34.10    4.00
  -8   0 -16   39.90    2.80
   8   0  16   42.60    5.90
   9   0  16    1.10    1.90
   9   0  16    4.30    2.50
   9   0  16    5.70    4.30
   9   0  16    2.90    2.20
  -9   0 -16   -1.60    1.80
  -9   0 -16    0.20    1.50
  10   0  16   55.89    7.60
  10   0  16   59.19    5.70
  10   0  16   60.49    4.50
  10   0  16   59.09    5.00
 -10   0 -16   51.49    4.60
 -10   0 -16   57.59    3.80
  11   0  16    1.10    2.90
 -11   0 -16   -0.30    2.50
  11   0  16   -2.00    2.10
  11   0  16   -2.40    4.90
  11   0  16    0.00    2.30
 -11   0 -16    1.10    2.20
  12   0  16   51.09    5.00
  12   0  16   48.70    8.10
  12   0  16   44.40    4.70
  12   0  16   64.79    6.40
 -12   0 -16   57.59    4.80
 -12   0 -16   56.89    5.20
 -12   0 -16   46.30    5.20
 -13  -1  16   58.39    5.80
 -13  -1  16   56.29    8.70
  13  -1 -16   66.89    5.40
  13  -1 -16   56.49    5.10
  13   1 -16   57.19    5.70
 -13   1  16   48.40    6.30
  13   1 -16   73.39    5.20
  13   1 -16   56.99    5.10
  12  -1 -16   29.10    4.00
  12  -1 -16   40.20    4.30
 -12  -1  16   43.00    5.80
 -12  -1  16   31.60    4.90
  12   1 -16   34.40    4.00
 -12   1  16   41.80    6.40
  12   1 -16   38.40    4.00
  12   1 -16   37.70    4.60
 -11  -1  16    0.20    2.30
 -11  -1  16   -0.90    3.20
  11  -1 -16    2.50    2.60
  11  -1 -16   -1.20    1.80
  11   1 -16    0.40    1.90
  11   1 -16    2.60    2.30
 -11   1  16    3.80    3.90
  11   1 -16    3.70    3.10
  10  -1 -16   25.30    3.80
 -10  -1  16   25.20    3.90
 -10  -1  16   29.60    4.60
  10  -1 -16   30.70    3.60
 -10  -1  16   23.40    4.20
 -10   1  16   29.60    4.90
  10   1 -16   25.60    3.60
  10   1 -16   27.00    3.40
  10   1 -16   24.00    3.70
   9  -1 -16    8.30    2.60
  -9  -1  16    4.60    2.80
  -9  -1  16    5.00    2.10
   9  -1 -16    8.30    2.30
  -9  -1  16    4.50    3.40
  -9   1  16    8.40    2.90
  -9   1  16    4.80    4.00
   9   1 -16    4.80    1.90
   9   1 -16    9.60    2.70
   9   1 -16    8.40    2.20
   8  -1 -16    1.90    1.80
  -8  -1  16    0.20    1.80
  -8  -1  16   -0.30    2.30
  -8  -1  16    3.00    3.00
   8  -1 -16    3.20    2.20
   8   1 -16    2.70    1.80
  -8   1  16   -2.00    2.30
   8   1 -16    1.10    1.70
   8   1 -16    2.10    2.20
  -8   1  16   -4.20    3.30
  -7  -1  16   71.59    4.90
   7  -1 -16   71.09    4.50
  -7  -1  16   76.69    5.40
  -7  -1  16   74.09    6.20
   7  -1 -16   73.99    4.20
   7   1 -16   72.09    4.30
  -7   1  16   75.09    6.60
  -7   1  16   70.39    5.60
   7   1 -16   73.69    4.60
   7   1 -16   76.19    4.80
  -6  -1  16    2.80    2.20
  -6  -1  16    2.10    1.60
   6  -1 -16    0.80    1.50
  -6  -1  16    0.10    1.70
   6  -1 -16    1.40    1.80
  -6   1  16    0.80    2.00
   6   1 -16   -1.60    1.30
  -6   1  16   -0.90    2.50
   6   1 -16   -0.20    1.90
   6   1 -16   -0.40    1.50
   5  -1 -16  186.58    6.50
  -5  -1  16  166.38    7.50
  -5  -1  16  170.88    7.60
   5  -1 -16  169.88    7.20
  -5  -1  16  169.58    8.20
   5   1 -16  166.88    7.40
  -5   1  16  175.38    8.90
   5   1 -16  163.38    6.70
  -5   1  16  178.28    8.30
   5   1 -16  171.08    7.40
  -4  -1  16  307.57   11.50
  -4  -1  16  309.07   11.10
  -4  -1  16  307.97   12.00
   4  -1 -16  307.17   10.90
  -4   1  16  303.77   11.80
   4   1 -16  319.17   10.40
   4   1 -16  295.57   11.30
  -4   1  16  302.27   12.70
  -3  -1  16    4.40    1.30
  -3  -1  16    6.50    2.00
   3  -1 -16    6.80    1.60
  -3  -1  16    4.00    1.90
  -3   1  16    7.30    2.40
  -3   1  16    3.60    2.00
   3   1 -16    6.20    1.40
   3   1 -16    5.20    1.90
   2  -1 -16   11.50    1.80
  -2  -1  16   10.00    2.10
  -2  -1  16   14.90    2.60
  -2  -1  16   12.50    2.00
   2   1 -16   14.20    1.70
   2   1 -16   14.30    2.30
  -2   1  16   10.20    2.20
  -2   1  16   12.50    1.60
  -2   1  16   15.30    3.00
  -1  -1  16   29.50    3.30
  -1  -1  16   33.90    2.30
  -1  -1  16   32.10    3.50
   1  -1 -16   32.40    3.20
   1  -1 -16   30.00    2.50
  -1   1  16   30.20    4.20
   1   1 -16   31.60    3.00
  -1   1  16   26.60    3.30
   1   1 -16   32.10    2.00
   1   1 -16   26.00    2.90
   0  -1 -16   18.00    2.90
   0  -1  16   21.30    1.60
   0  -1 -16   20.70    2.40
   0  -1  16   16.20    2.40
   0  -1  16   19.90    2.60
   0  -1  16   21.60    2.90
   0   1  16   21.40    2.60
   0   1  16   24.20    3.60
   0   1 -16   20.80    2.60
   0   1  16   17.50    2.40
  -1  -1 -16   -0.80    1.10
   1  -1  16   -1.70    1.50
  -1  -1 -16    0.30    1.60
   1  -1  16    2.40    1.60
   1  -1  16    1.60    1.50
   1   1  16   -0.20    2.00
   1   1  16    0.20    1.40
   1   1  16   -2.10    1.40
   1   1  16    0.20    1.00
  -1   1 -16   -1.40    1.40
  -2  -1 -16    2.40    1.50
  -2  -1 -16   -1.10    1.40
   2  -1  16    1.60    1.50
   2  -1  16   -1.50    1.70
   2  -1  16    0.50    1.50
   2   1  16    1.10    1.10
   2   1  16   -0.20    2.00
   2   1  16    1.50    1.50
   2   1  16   -1.20    1.40
  -2   1 -16   -3.50    1.40
  -3  -1 -16    0.50    1.50
  -3  -1 -16    1.40    1.90
   3  -1  16    1.70    1.50
   3  -1  16    1.70    2.10
   3  -1  16   -0.40    1.60
  -3   1 -16    1.80    1.60
   3   1  16    3.10    1.70
   3   1  16    0.30    1.90
   3   1  16    1.60    1.30
   3   1  16    0.30    1.20
   4  -1  16   30.10    3.60
  -4  -1 -16   21.40    2.40
  -4  -1 -16   28.30    3.50
   4  -1  16   20.70    2.80
   4  -1  16   27.60    4.00
   4   1  16   26.50    2.30
   4   1  16   25.80    4.10
   4   1  16   24.00    2.90
  -4   1 -16   31.90    3.20
   4   1  16   19.90    3.00
   4   1  16   26.30    2.70
  -5  -1 -16  116.49    4.90
  -5  -1 -16  113.19    6.10
   5  -1  16  107.19    6.00
   5  -1  16   99.99    5.20
   5  -1  16  109.49    6.70
   5   1  16  103.79    6.00
   5   1  16  109.69    4.70
   5   1  16  113.79    5.20
   5   1  16  109.29    5.90
   5   1  16  110.19    6.80
  -5   1 -16  100.29    5.60
  -6  -1 -16    5.80    2.10
   6  -1  16    5.70    2.00
  -6  -1 -16    4.60    1.70
   6  -1  16    7.80    2.60
   6  -1  16    6.50    2.20
   6   1  16    5.00    2.70
   6   1  16    5.70    1.60
  -6   1 -16    6.60    1.90
   6   1  16    7.30    2.20
   6   1  16    5.40    2.80
   6   1  16    6.90    1.90
   7  -1  16  138.69    7.20
  -7  -1 -16  120.19    6.80
  -7  -1 -16  123.89    5.50
   7  -1  16  141.49    8.30
   7  -1  16  127.19    6.30
   7   1  16  117.49    6.60
   7   1  16  128.69    7.80
   7   1  16  129.29    5.80
   7   1  16  125.09    5.70
   7   1  16  131.49    6.60
  -7   1 -16  117.69    6.50
   8  -1  16   83.59    5.50
   8  -1  16   95.79    6.40
  -8  -1 -16   85.99    5.70
   8  -1  16   90.49    5.30
   8  -1  16   85.09    7.20
  -8  -1 -16   86.79    4.50
  -8   1 -16   81.99    5.40
   8   1  16   82.09    5.70
   8   1  16   87.69    4.90
   8   1  16   87.69    7.00
   8   1  16   89.49    5.50
   8   1  16   83.19    4.90
   9  -1  16    5.50    2.30
   9  -1  16    6.00    2.80
   9  -1  16    3.60    3.90
  -9  -1 -16    7.50    2.30
   9  -1  16    6.90    2.30
  -9  -1 -16    0.50    1.80
   9   1  16    0.70    2.20
  -9   1 -16    3.90    2.30
   9   1  16    6.00    4.10
   9   1  16    2.80    2.00
   9   1  16    3.10    2.30
   9   1  16    4.30    2.10
  10  -1  16    4.80    2.40
 -10  -1 -16    6.60    2.40
  10  -1  16    0.40    4.00
  10  -1  16    4.80    2.30
  10  -1  16    5.90    3.30
 -10  -1 -16    6.20    2.60
 -10   1 -16    5.00    2.10
  10   1  16    7.00    2.70
  10   1  16    2.50    4.90
  10   1  16    1.60    2.10
  10   1  16    4.60    2.30
  11  -1  16   -2.50    4.50
  11  -1  16    6.30    3.10
 -11  -1 -16    0.70    2.10
 -11  -1 -16   -1.00    2.40
  11  -1  16    7.30    3.70
  11  -1  16    8.70    3.00
 -11   1 -16    1.60    1.90
  11   1  16    0.60    2.60
  11   1  16    4.90    2.90
  11   1  16    2.90    2.70
  11   1  16    7.50    4.30
 -11   1 -16    0.70    2.10
 -12  -1 -16    2.00    3.00
 -12  -1 -16    4.10    2.40
  12  -1  16    8.00    7.50
  12  -1  16   -0.10    2.70
  12  -1  16    5.70    3.80
  12  -1  16   -1.90    2.70
  12   1  16    3.00    3.80
 -12   1 -16    1.50    2.00
  12   1  16    5.50    2.80
 -12   1 -16    1.20    2.70
  12   1  16    0.10    7.10
  12   1  16    1.00    2.80
 -12  -2  16    2.80    4.90
  12  -2 -16    3.00    2.90
  12  -2 -16   -0.70    2.50
 -12  -2  16    3.90    4.40
 -12  -2  16   -2.20    2.80
 -12   2  16   -5.00    4.40
  12   2 -16   -1.70    2.90
  11  -2 -16  139.59    6.70
 -11  -2  16  129.69    9.00
 -11  -2  16  136.49    7.20
 -11  -2  16  125.69    9.70
  11  -2 -16  139.59    7.70
  11   2 -16  132.29    7.40
 -11   2  16  126.09   10.30
  11   2 -16  130.69    7.80
 -10  -2  16    4.90    2.50
  10  -2 -16    0.80    2.10
 -10  -2  16    2.70    3.20
  10  -2 -16   -0.50    2.40
 -10  -2  16    7.50    3.80
  10   2 -16    1.00    2.20
  10   2 -16   -1.60    2.30
 -10   2  16    2.10    3.60
 -10   2  16    3.60    4.50
   9  -2 -16   -2.30    2.20
  -9  -2  16   -0.60    2.10
  -9  -2  16    3.10    3.20
   9  -2 -16   -1.90    2.00
   9   2 -16   -2.60    2.30
   9   2 -16   -3.30    1.90
  -9   2  16    2.10    3.90
  -9   2  16    2.70    3.30
  -9   2  16    2.10    2.10
  -8  -2  16   32.70    4.20
  -8  -2  16   59.29    5.30
   8  -2 -16   46.40    3.40
   8  -2 -16   39.20    3.90
   8   2 -16   44.80    4.70
  -8   2  16   46.00    3.40
  -8   2  16   53.49    6.50
  -8   2  16   45.80    7.20
   8   2 -16   41.70    4.00
  -7  -2  16   -0.70    2.10
   7  -2 -16    1.30    1.80
   7  -2 -16    4.80    1.90
  -7  -2  16   -1.40    2.20
  -7   2  16    5.60    2.10
  -7   2  16   -3.60    2.80
   7   2 -16   -0.20    2.10
  -7   2  16   -2.00    3.30
   7   2 -16    6.30    2.00
   6  -2 -16   31.10    3.40
   6  -2 -16   35.60    2.70
  -6  -2  16   27.70    3.60
  -6  -2  16   31.70    3.70
  -6   2  16   32.10    3.20
  -6   2  16   34.70    4.90
  -6   2  16   32.10    4.30
   6   2 -16   30.10    3.50
   6   2 -16   28.90    3.60
  -5  -2  16  340.47   12.50
   5  -2 -16  366.16   10.70
  -5  -2  16  336.17   12.90
   5  -2 -16  345.77   12.80
  -5  -2  16  348.77   12.80
  -5   2  16  364.16   14.80
  -5   2  16  330.37   13.80
  -5   2  16  346.07   11.80
   5   2 -16  351.06   13.10
   4  -2 -16  122.99    6.10
  -4  -2  16  139.29    6.10
  -4  -2  16  122.69    6.40
  -4  -2  16  126.59    6.60
   4   2 -16  125.19    6.40
  -4   2  16  125.59    5.70
  -4   2  16  145.99    8.30
   3  -2 -16   56.09    4.10
  -3  -2  16   65.79    3.70
  -3  -2  16   62.69    4.30
  -3  -2  16   61.69    4.70
  -3   2  16   62.19    5.20
  -3   2  16   60.19    5.50
   3   2 -16   61.39    4.40
  -3   2  16   54.79    3.90
  -2  -2  16    0.70    1.70
   2  -2 -16    0.60    1.50
  -2  -2  16    4.90    1.40
  -2  -2  16    2.90    2.00
   2   2 -16    5.00    1.80
  -2   2  16    1.20    2.10
  -2   2  16    2.20    1.90
  -2   2  16    3.20    1.80
  -1  -2  16   -1.30    1.00
   1  -2 -16   -0.60    1.30
  -1  -2  16    1.60    1.60
  -1  -2  16    0.50    1.80
  -1   2  16    0.50    1.80
   1   2 -16    2.70    1.50
   1   2 -16    2.60    1.70
  -1   2  16    0.60    1.70
  -1   2  16    0.90    2.20
   0  -2  16    4.60    1.90
   0  -2  16    7.30    2.10
   0  -2 -16    2.80    1.80
   0  -2 -16    8.50    2.00
   0   2  16    2.80    2.30
   0   2 -16    5.50    1.80
   0   2  16    7.60    2.20
   0   2 -16    6.80    2.30
   0   2  16    4.60    2.10
   1  -2  16   90.79    5.30
   1  -2  16   82.29    5.50
  -1  -2 -16   80.69    4.50
  -1  -2 -16   76.89    5.10
   1  -2  16   82.89    4.70
   1   2  16   85.79    6.00
   1   2  16   79.19    4.80
   1   2  16   85.09    5.70
  -1   2 -16   84.79    4.60
  -1   2 -16   84.89    5.10
   2  -2  16   27.10    3.00
  -2  -2 -16   22.70    3.30
   2  -2  16   24.40    3.20
  -2  -2 -16   21.30    2.80
   2  -2  16   31.60    3.80
   2   2  16   30.60    4.00
   2   2  16   26.80    3.90
   2   2  16   30.40    3.50
  -2   2 -16   25.20    2.90
  -3  -2 -16  196.68    8.90
   3  -2  16  193.68    8.70
   3  -2  16  187.98    8.20
  -3  -2 -16  200.78    7.90
   3  -2  16  209.28    9.20
   3   2  16  191.88    8.70
   3   2  16  204.18    9.70
  -3   2 -16  192.18    8.00
   3   2  16  194.88    8.70
  -4  -2 -16   78.99    5.30
  -4  -2 -16   80.99    4.50
   4  -2  16   88.49    5.80
   4  -2  16   88.09    6.00
   4  -2  16   75.79    4.80
  -4   2 -16   71.09    4.50
   4   2  16   74.49    6.10
   4   2  16   77.99    5.20
   4   2  16   78.39    5.30
   4   2  16   78.19    3.30
  -5  -2 -16    7.10    2.10
   5  -2  16    8.60    2.40
   5  -2  16    7.70    3.00
  -5  -2 -16    3.90    2.10
   5  -2  16   12.20    3.10
   5   2  16    7.80    2.20
   5   2  16    6.50    2.20
   5   2  16   10.70    1.90
  -5   2 -16    6.80    2.20
   5   2  16    7.90    2.60
  -6  -2 -16   76.59    4.60
   6  -2  16   84.59    6.50
   6  -2  16   82.69    5.10
   6  -2  16   83.09    6.60
  -6  -2 -16   72.09    5.40
   6   2  16   84.39    6.60
   6   2  16   78.49    5.50
   6   2  16   85.49    5.70
   6   2  16   83.29    4.20
  -6   2 -16   81.59    5.00
   7  -2  16    6.90    3.40
   7  -2  16    5.70    2.00
   7  -2  16   10.40    3.10
  -7  -2 -16   10.20    2.30
  -7  -2 -16    4.60    2.40
   7   2  16    8.00    3.20
   7   2  16   13.30    2.80
   7   2  16    5.30    2.60
   7   2  16   11.50    2.40
   7   2  16   12.40    2.40
  -7   2 -16    4.20    2.00
  -8  -2 -16   -0.10    2.50
   8  -2  16    2.20    3.50
  -8  -2 -16   -0.70    2.00
   8  -2  16   -0.20    2.10
   8  -2  16    3.40    3.10
  -8   2 -16    0.90    2.00
   8   2  16   -6.00    3.10
   8   2  16   -0.30    2.30
   8   2  16    1.60    2.40
   8   2  16   -2.30    2.30
   8   2  16    1.70    2.40
   9  -2  16   -4.40    3.50
  -9  -2 -16    0.10    2.40
   9  -2  16   -4.20    4.10
   9  -2  16   -0.50    2.00
  -9  -2 -16    2.10    2.30
   9   2  16    0.10    2.50
   9   2  16   -0.60    2.90
   9   2  16   -2.30    2.40
   9   2  16    2.90    2.50
   9   2  16   -1.90    3.80
  -9   2 -16   -0.70    1.90
  10  -2  16   12.70    3.10
  10  -2  16   13.30    3.00
 -10  -2 -16    6.50    2.40
 -10  -2 -16   10.40    2.80
  10  -2  16   16.10    6.10
  10  -2  16    2.80    4.00
  10   2  16    9.60    3.20
  10   2  16    7.70    3.20
 -10   2 -16    9.50    2.50
  10   2  16    2.80    5.00
  10   2  16    9.70    2.70
  10   2  16   12.20    3.10
  11  -2  16    2.00    5.40
 -11  -2 -16    1.50    2.50
  11  -2  16    0.50    2.70
 -11  -2 -16   -1.20    2.70
  11  -2  16    0.60    2.10
  11  -2  16   -2.50    4.40
  11   2  16    1.60    3.10
  11   2  16   -3.60    3.50
  11   2  16    7.50    5.00
  11   2  16    7.30    3.00
 -11   2 -16    1.50    2.60
  11   2  16    3.00    2.70
 -11  -3  16   40.00    5.50
  11  -3 -16   51.59    4.80
  11  -3 -16   53.69    5.30
 -11  -3  16   53.09    5.20
  11  -3 -16   57.19    8.30
 -11   3  16   41.30    8.90
  11   3 -16   37.70    5.30
 -11   3  16   30.40    8.80
  11   3 -16   45.40    6.10
 -10  -3  16   10.40    3.80
 -10  -3  16   11.20    3.60
  10  -3 -16   13.20    4.40
  10  -3 -16    6.40    2.80
  10  -3 -16    4.80    2.40
 -10   3  16   14.10    5.70
 -10   3  16    4.70    5.40
  10   3 -16    8.50    3.40
  10   3 -16    3.80    2.80
  -9  -3  16    2.00    3.10
   9  -3 -16    3.10    2.60
  -9  -3  16    0.90    3.50
   9  -3 -16   -0.80    1.90
   9  -3 -16    0.10    3.80
  -9   3  16  -10.00    4.70
  -9   3  16    1.60    4.60
   9   3 -16    3.40    2.50
   9   3 -16    0.30    2.50
   8  -3 -16   47.40    3.70
  -8  -3  16   39.30    5.00
   8  -3 -16   41.70    5.20
   8  -3 -16   38.70    4.00
  -8  -3  16   48.70    5.10
   8   3 -16   41.10    4.60
  -8   3  16   41.00    6.40
  -8   3  16   46.40    6.20
   8   3 -16   42.30    4.80
  -8   3  16   47.70    6.60
   7  -3 -16  202.68   10.20
  -7  -3  16  198.28    8.30
  -7  -3  16  180.48    9.40
   7  -3 -16  176.28    8.70
   7  -3 -16  193.08    7.00
   7   3 -16  193.08    9.20
  -7   3  16  200.78   11.50
  -7   3  16  192.68    7.40
   7   3 -16  189.18    9.30
  -7   3  16  189.48   11.40
   6  -3 -16   10.20    2.80
  -6  -3  16   11.40    2.50
   6  -3 -16   10.00    3.30
  -6  -3  16   11.90    3.10
   6   3 -16   12.60    3.30
  -6   3  16    8.30    2.40
  -6   3  16    7.80    3.80
  -6   3  16    4.70    3.90
  -5  -3  16    1.10    2.50
   5  -3 -16    1.20    1.80
  -5  -3  16    1.90    2.00
   5  -3 -16    4.00    3.10
  -5   3  16    3.30    2.20
  -5   3  16    5.80    3.30
   5   3 -16    1.70    2.00
  -5   3  16    2.00    3.10
   4  -3 -16   15.60    3.30
  -4  -3  16    8.10    2.90
  -4  -3  16   15.70    2.40
   4  -3 -16   11.10    2.40
   4   3 -16   10.60    2.60
  -4   3  16   11.20    2.70
  -4   3  16    9.50    3.30
  -4   3  16   12.70    3.20
  -3  -3  16    0.50    1.80
  -3  -3  16   -1.70    2.50
  -3  -3  16   -3.00    1.60
   3  -3 -16   -0.40    1.60
   3  -3 -16   -3.90    2.40
  -3   3  16    1.50    2.50
   3   3 -16   -0.10    2.00
  -3   3  16    5.50    2.10
  -3   3  16    1.40    2.60
  -2  -3  16   24.10    2.50
   2  -3 -16   23.60    3.20
  -2  -3  16   28.50    4.20
  -2  -3  16   23.00    2.70
   2  -3 -16   24.80    3.70
   2   3 -16   30.00    3.50
  -2   3  16   34.70    5.50
  -2   3  16   29.60    4.60
  -2   3  16   26.00    3.40
  -1  -3  16  114.49    4.90
   1  -3 -16  113.69    6.20
   1  -3 -16  112.79    7.20
  -1  -3  16  121.79    5.70
  -1  -3  16  114.69    7.30
  -1   3  16  116.99    7.50
  -1   3  16  130.99    7.80
   1   3 -16  112.19    6.40
  -1   3  16  120.99    6.20
   0  -3 -16   -0.20    1.70
   0  -3  16   -0.50    2.80
   0  -3  16   -3.60    1.50
   0   3 -16   -3.00    1.60
   0   3  16    2.10    2.70
   0   3 -16    0.60    1.70
   0   3  16    3.40    2.20
   0   3  16   -3.80    2.50
   1  -3  16   27.20    3.70
   1  -3  16   36.00    3.80
  -1  -3 -16   34.40    3.60
   1  -3  16   31.40    3.60
  -1   3 -16   34.50    3.70
   1   3  16   42.50    4.00
  -1   3 -16   28.80    3.20
   1   3  16   36.30    4.90
   1   3  16   34.60    4.70
   2  -3  16    9.40    2.80
  -2  -3 -16    7.10    2.40
   2  -3  16    3.90    2.20
   2  -3  16    4.00    2.60
  -2  -3 -16   11.60    2.60
   2   3  16    6.20    3.20
  -2   3 -16    6.90    2.10
  -2   3 -16    7.50    2.30
   2   3  16    9.90    2.70
   2   3  16    8.20    3.30
  -3  -3 -16   -0.60    1.90
   3  -3  16   -0.60    2.30
   3  -3  16    0.70    2.20
  -3  -3 -16   -0.60    1.80
   3  -3  16   -4.20    2.40
  -3   3 -16    0.40    1.90
   3   3  16   -0.50    3.30
   3   3  16   -0.70    2.10
  -3   3 -16    0.60    1.80
   3   3  16    0.10    3.00
   4  -3  16   11.10    3.10
   4  -3  16    6.70    2.90
  -4  -3 -16   10.70    2.70
   4  -3  16    7.40    2.30
  -4  -3 -16   10.00    2.90
  -4   3 -16   10.30    2.30
   4   3  16   11.20    2.90
   4   3  16   16.60    3.70
   4   3  16    6.60    2.60
  -5  -3 -16   58.49    5.20
  -5  -3 -16   51.59    4.30
   5  -3  16   50.39    4.40
   5  -3  16   65.39    5.80
   5  -3  16   62.79    6.50
   5   3  16   59.49    6.00
  -5   3 -16   43.60    4.00
   5   3  16   53.59    4.90
   5   3  16   47.50    5.60
  -6  -3 -16    6.80    2.60
   6  -3  16    9.00    3.70
  -6  -3 -16    6.60    2.30
   6  -3  16    5.20    2.30
   6  -3  16    5.30    3.30
   6   3  16    7.30    2.40
   6   3  16    4.30    2.50
  -6   3 -16    9.30    2.30
   6   3  16    4.90    3.00
   6   3  16    3.00    3.20
   7  -3  16   13.30    4.40
  -7  -3 -16   14.10    3.30
   7  -3  16   15.80    3.20
   7  -3  16    9.80    4.20
  -7  -3 -16   13.80    2.70
   7   3  16   13.60    3.50
   7   3  16   14.40    4.20
   7   3  16   15.50    3.90
   7   3  16   19.50    2.90
  -7   3 -16   12.40    2.60
   8  -3  16    3.60    4.00
   8  -3  16   11.60    4.00
  -8  -3 -16    9.70    3.00
   8  -3  16    4.00    2.60
  -8  -3 -16   10.30    2.90
   8   3  16    5.40    3.40
  -8   3 -16    6.90    2.50
   8   3  16    8.20    2.80
   8   3  16   -2.10    4.00
   8   3  16    5.00    3.90
  -9  -3 -16    4.90    2.70
   9  -3  16    2.60    4.90
   9  -3  16    0.70    2.30
  -9  -3 -16    5.80    3.10
   9  -3  16   -1.80    4.40
   9   3  16    4.00    4.50
   9   3  16    3.00    2.60
   9   3  16    2.00    3.60
   9   3  16   -0.70    3.00
   9   3  16    4.60    3.10
  -9   3 -16    3.90    2.10
  10  -3  16    4.50    5.70
 -10  -3 -16    8.30    3.20
  10  -3  16   11.10    5.20
  10  -3  16    9.90    2.90
 -10  -3 -16    6.60    2.90
  10   3  16   21.00    6.00
 -10   3 -16    4.60    2.60
  10   3  16    8.50    4.60
  10   3  16    6.10    3.00
  10   3  16   13.10    3.20
  10   3  16    7.00    3.30
   9  -4 -16   21.80    8.10
   9  -4 -16   22.60    4.20
  -9  -4  16   22.20    4.90
  -9   4  16   31.50    9.30
   9   4 -16   26.30    4.70
   9   4 -16   31.40    5.40
   8  -4 -16    1.60    2.30
  -8  -4  16    7.10    4.10
   8  -4 -16    0.60    5.70
  -8   4  16    5.20    6.00
   8   4 -16    5.30    2.90
  -8   4  16   -1.20    6.00
   7  -4 -16   16.60    5.60
   7  -4 -16    4.80    2.30
  -7  -4  16    8.30    3.10
  -7  -4  16   11.50    4.50
  -7   4  16    9.70    5.40
  -7   4  16   15.90    5.50
   7   4 -16    4.30    3.00
  -6  -4  16  101.39    6.00
   6  -4 -16  134.99   10.30
   6  -4 -16   94.19    6.60
  -6  -4  16  120.89    8.60
  -6   4  16  104.09   10.20
  -6   4  16  108.49    5.70
   6   4 -16  103.79    7.20
  -6   4  16  108.19   10.00
  -5  -4  16   56.79    7.50
   5  -4 -16   61.79    5.00
   5  -4 -16   72.39    9.00
  -5  -4  16   62.79    4.60
  -5   4  16   55.59    8.00
  -5   4  16   75.59    8.90
  -5   4  16   60.99    4.80
   5   4 -16   67.29    5.50
  -4  -4  16   41.00    5.40
   4  -4 -16   34.50    4.20
  -4  -4  16   39.10    3.90
   4  -4 -16   39.30    5.80
  -4   4  16   32.80    4.00
   4   4 -16   35.60    4.60
  -4   4  16   47.40    7.30
  -4   4  16   54.99    7.30
  -3  -4  16   11.60    4.10
  -3  -4  16    3.40    2.50
   3  -4 -16    0.20    1.80
   3  -4 -16    1.90    3.40
  -3   4  16    8.70    2.90
   3   4 -16    5.80    2.30
  -3   4  16    0.80    3.40
  -3   4  16    5.10    3.80
   2  -4 -16   10.30    3.80
   2  -4 -16    0.90    2.10
  -2  -4  16    2.10    2.40
  -2  -4  16   -2.40    3.80
  -2  -4  16    1.80    1.40
  -2   4  16    1.50    3.60
  -2   4  16   -0.20    2.60
  -2   4  16    2.80    3.90
   2   4 -16   -2.10    2.10
  -1  -4  16   14.00    2.20
   1  -4 -16   15.30    3.90
   1  -4 -16   17.40    3.20
  -1  -4  16   16.70    2.60
  -1  -4  16   18.50    4.40
  -1   4  16   17.30    4.40
  -1   4  16   14.90    4.20
   1   4 -16    9.50    2.40
  -1   4  16   13.90    3.20
   0  -4  16   15.80    2.50
   0  -4 -16    6.80    2.40
   0  -4  16   16.30    2.70
   0  -4 -16   18.40    4.00
   0  -4  16   12.20    3.70
   0   4  16   17.40    4.40
   0   4  16   14.50    3.40
   0   4 -16   12.10    3.10
   0   4  16   10.30    4.90
  -1  -4 -16   51.89    6.60
  -1  -4 -16   46.50    4.50
   1  -4  16   44.00    5.70
   1  -4  16   53.69    4.50
   1  -4  16   42.00    4.50
   1  -4  16   48.20    6.00
   1   4  16   44.20    6.70
  -1   4 -16   45.90    4.60
   1   4  16   62.89    7.70
   1   4  16   46.10    4.90
  -1   4 -16   53.69    3.70
   2  -4  16    6.40    4.00
   2  -4  16    4.20    2.50
   2  -4  16    0.80    2.50
  -2  -4 -16    3.10    2.00
   2   4  16    7.40    3.90
   2   4  16    0.20    2.50
  -2   4 -16    3.10    2.20
   2   4  16   -2.30    4.10
  -2   4 -16   -2.50    2.10
   3  -4  16   18.80    3.40
   3  -4  16   16.00    3.70
   3  -4  16   19.60    4.60
  -3  -4 -16   20.20    3.70
   3   4  16   23.50    5.10
   3   4  16   14.00    3.30
  -3   4 -16   18.80    3.30
  -3   4 -16   21.70    2.80
   3   4  16   17.70    4.20
   4  -4  16    3.10    3.40
  -4  -4 -16    1.30    2.30
  -4  -4 -16   -2.30    2.40
   4  -4  16    6.00    4.30
   4  -4  16   -0.90    2.10
   4   4  16    7.20    3.50
  -4   4 -16    2.20    2.40
   4   4  16    5.90    3.00
   4   4  16   -3.20    3.60
  -4   4 -16    2.90    2.30
   5  -4  16    0.30    2.60
  -5  -4 -16    1.70    2.70
  -5  -4 -16   -0.20    2.10
   5  -4  16   -0.20    4.00
   5  -4  16    2.20    3.70
   5   4  16    0.00    2.40
  -5   4 -16    1.20    2.40
   5   4  16    1.90    3.80
   5   4  16   -2.70    3.70
   6  -4  16   -2.10    2.50
   6  -4  16    5.80    4.30
  -6  -4 -16   -1.10    2.60
   6  -4  16    5.20    4.70
  -6  -4 -16    2.80    2.40
  -6   4 -16   -4.90    2.10
   6   4  16   -1.30    2.80
   6   4  16   -5.90    4.10
   6   4  16    5.90    4.20
  -7  -4 -16   19.10    3.70
   7  -4  16   19.90    5.20
   7  -4  16   10.00    5.80
   7  -4  16   17.80    4.10
  -7  -4 -16   17.30    3.60
   7   4  16   27.70    5.10
   7   4  16   22.30    5.80
  -7   4 -16   16.20    3.10
   7   4  16    9.40    3.40
  -4  -5  16   70.39    9.60
   3  -5 -16   38.30    4.40
  -3  -5  16   34.20    6.30
  -3  -5  16   37.90    4.40
  -3   5  16   18.30    7.90
  -3   5  16   40.00    6.20
  -3   5  16   35.90    4.80
   3   5 -16   44.10    5.10
   2  -5 -16  173.68    9.20
  -2  -5  16  184.48    8.10
   2  -5 -16  154.68   15.00
  -2  -5  16  189.38   12.20
  -2   5  16  172.98    8.60
  -2   5  16  179.18   15.40
   2   5 -16  181.98    9.60
  -2   5  16  169.58   11.80
  -1  -5  16   25.40    5.80
  -1  -5  16   24.80    3.70
   1  -5 -16   24.60    4.20
   1  -5 -16   20.10    5.60
  -1   5  16   22.80    5.40
   1   5 -16   20.40    4.10
  -1   5  16   10.70    7.10
  -1   5  16   17.50    3.80
   0  -5  16    2.30    2.50
   0  -5 -16    5.50    2.80
   0  -5  16    3.10    5.50
   0  -5  16   10.40    3.40
   0  -5 -16   -2.60    5.70
   0   5  16    1.90    4.90
   0   5 -16    5.80    3.00
   0   5  16   -2.30    6.10
   0   5  16    1.80    3.00
  -1  -5 -16   61.89    5.80
   1  -5  16   64.59    5.70
  -1  -5 -16   60.39    9.20
   1  -5  16   54.29    8.50
   1   5  16   55.29    8.80
   1   5  16   59.39    8.50
  -1   5 -16   61.29    5.60
   1   5  16   65.39    5.80
  -2  -5 -16    8.20    5.30
   2  -5  16    2.50    4.50
  -2  -5 -16    2.80    3.10
   2  -5  16    3.50    2.90
   2   5  16   -0.30    6.70
  -2   5 -16    9.70    3.10
   2   5  16    6.20    4.90
   2   5  16    9.50    3.90
  13   0 -17   14.60    2.90
 -13   0  17   19.10    3.90
 -13   0  17   15.70    5.00
  13   0 -17   14.80    3.90
  12   0 -17    1.10    2.10
  12   0 -17   -1.60    2.80
 -12   0  17    3.40    4.20
 -11   0  17    4.20    3.70
  11   0 -17   -3.00    2.50
 -11   0  17    3.30    4.50
  11   0 -17    2.20    2.10
  10   0 -17    2.00    1.80
 -10   0  17   -3.50    2.90
  10   0 -17   -0.50    2.10
  10   0 -17    2.40    2.50
 -10   0  17   -3.30    4.20
   9   0 -17   26.40    3.70
   9   0 -17   28.30    3.40
  -9   0  17   32.70    5.20
  -9   0  17   27.60    5.30
   8   0 -17    0.10    2.00
  -8   0  17    1.80    3.10
  -8   0  17    0.00    2.30
   8   0 -17    0.80    1.70
   7   0 -17  103.79    5.30
  -7   0  17   87.49    6.90
   7   0 -17   97.19    5.20
   6   0 -17    0.30    1.40
  -6   0  17   -2.70    1.80
  -6   0  17    1.00    2.50
   6   0 -17    2.10    1.90
   5   0 -17 1762.42   52.49
  -5   0  17 1698.23   54.39
  -5   0  17 1739.33   53.39
   5   0 -17 1887.01   52.59
   4   0 -17    0.50    1.30
  -4   0  17   -1.80    2.20
  -4   0  17   -2.30    1.40
   3   0 -17   82.29    4.00
  -3   0  17   78.69    5.80
  -3   0  17   79.39    4.60
  -2   0  17    2.20    2.20
   2   0 -17    0.40    1.20
  -2   0  17    1.70    1.40
  -2   0  17   -0.90    1.60
  -1   0  17    2.90    2.20
  -1   0  17    2.60    1.70
  -1   0  17   -0.50    1.50
   1   0 -17    4.90    1.30
   1   0 -17    2.40    1.60
  -1   0  17    1.60    1.40
   0   0 -17   -0.70    1.00
   0   0  17    0.90    1.50
   0   0  17    1.20    1.60
   0   0  17   -1.50    1.90
   0   0  17   -0.70    1.10
   0   0 -17   -0.50    1.50
   1   0  17   18.20    2.30
   1   0  17   19.10    2.90
   1   0  17   15.00    2.60
  -1   0 -17   15.80    2.60
  -1   0 -17   19.80    1.90
   1   0  17   21.30    2.30
  -2   0 -17    0.00    1.00
   2   0  17    1.80    2.20
   2   0  17   -0.30    1.00
   2   0  17    0.80    1.70
   2   0  17   -0.30    1.60
  -2   0 -17    2.80    1.50
   3   0  17  100.89    6.40
   3   0  17  101.09    3.90
  -3   0 -17  104.49    3.70
  -3   0 -17   94.89    5.50
   3   0  17  111.09    5.90
   3   0  17  100.59    4.70
   4   0  17    0.60    0.70
  -4   0 -17    2.50    1.10
  -4   0 -17    1.80    1.70
   4   0  17    1.30    2.10
   4   0  17    2.10    1.60
   4   0  17   -1.60    1.60
  -5   0 -17  128.19    4.20
   5   0  17  121.89    7.20
   5   0  17  120.59    5.40
   5   0  17  117.49    6.30
  -5   0 -17  109.69    6.30
   5   0  17  116.29    6.40
   6   0  17   -1.70    1.80
   6   0  17    3.40    1.90
  -6   0 -17   -0.20    1.30
  -6   0 -17    2.40    1.90
   6   0  17   -0.90    2.00
   6   0  17    1.50    2.50
   7   0  17   21.20    2.80
  -7   0 -17   19.50    3.20
  -7   0 -17   17.70    2.30
   7   0  17   23.70    4.00
   7   0  17   16.80    3.00
   7   0  17   16.20    2.90
  -8   0 -17   -2.60    1.70
  -8   0 -17    1.00    1.60
   8   0  17   -1.10    2.00
   8   0  17   -0.80    2.10
   8   0  17   -4.50    2.20
   8   0  17   -3.10    3.20
   9   0  17   60.39    4.50
   9   0  17   77.09    8.10
  -9   0 -17   55.89    4.70
   9   0  17   66.19    5.30
  -9   0 -17   62.49    3.60
   9   0  17   62.09    5.70
  10   0  17   -3.80    3.00
  10   0  17   -1.40    2.10
 -10   0 -17    0.30    1.90
  10   0  17   -0.80    2.20
 -10   0 -17   -0.40    2.20
  10   0  17    1.30    4.10
 -11   0 -17    1.60    2.10
  11   0  17   -0.90    2.20
  11   0  17    0.70    4.70
 -11   0 -17    3.40    2.70
  11   0  17   -2.30    2.30
  11   0  17    2.90    3.90
  12   0  17   -6.00    3.80
 -12   0 -17    0.20    2.40
 -12   0 -17    1.00    3.90
  12   0  17   -0.20    3.60
 -12   0 -17   -0.70    3.20
  12   0  17    0.40    2.90
  12   0  17    3.40    2.70
 -13  -1  17    9.40    5.40
  13  -1 -17    3.30    3.30
  13  -1 -17    8.10    2.90
 -13  -1  17   -0.30    3.30
 -13   1  17   -2.50    6.30
  13   1 -17    4.60    3.00
  13   1 -17    3.90    3.50
  13   1 -17    6.20    2.50
 -12  -1  17   23.90    3.80
 -12  -1  17   24.00    5.10
 -12  -1  17   14.80    5.50
  12  -1 -17   19.90    3.50
  12  -1 -17   22.30    3.90
  12   1 -17   20.60    4.00
  12   1 -17   26.50    3.70
  12   1 -17   23.40    3.60
 -12   1  17   24.60    5.60
  11  -1 -17   50.39    4.60
  11  -1 -17   52.59    4.70
 -11  -1  17   66.59    8.40
 -11  -1  17   50.79    5.40
 -11  -1  17   53.79    7.30
  11   1 -17   55.29    4.70
  11   1 -17   50.09    4.50
 -11   1  17   57.39    7.40
  11   1 -17   59.69    5.30
 -10  -1  17   -3.70    4.00
 -10  -1  17    4.50    3.50
  10  -1 -17    2.70    2.40
 -10  -1  17    4.80    2.50
  10  -1 -17    4.20    2.10
 -10   1  17    9.30    3.70
  10   1 -17    5.60    2.20
  10   1 -17    6.90    2.20
 -10   1  17    9.70    4.80
  10   1 -17    7.80    2.90
   9  -1 -17    2.80    2.50
  -9  -1  17   -1.00    1.90
  -9  -1  17   -0.20    3.30
   9  -1 -17    1.60    1.90
  -9  -1  17    5.30    3.10
  -9   1  17    2.10    3.20
   9   1 -17    2.30    1.80
   9   1 -17   -0.30    2.00
  -9   1  17    4.90    4.00
   9   1 -17    3.90    2.40
  -8  -1  17   44.00    5.80
   8  -1 -17   47.40    3.70
  -8  -1  17   45.30    4.10
   8  -1 -17   35.90    3.70
  -8  -1  17   46.00    4.90
  -8   1  17   40.10    5.70
   8   1 -17   43.40    3.70
   8   1 -17   42.30    3.60
  -8   1  17   38.00    5.70
   8   1 -17   46.20    4.10
   7  -1 -17   10.10    2.40
  -7  -1  17    9.20    2.40
  -7  -1  17    6.80    2.30
  -7  -1  17    8.50    3.00
   7  -1 -17    7.30    2.00
   7   1 -17    8.80    2.10
   7   1 -17   12.80    2.50
  -7   1  17   17.30    4.10
   7   1 -17    7.00    2.40
  -7   1  17    7.20    2.70
  -6  -1  17   27.60    3.50
   6  -1 -17   22.00    2.90
  -6  -1  17   32.20    4.20
   6  -1 -17   25.50    2.80
  -6  -1  17   28.00    3.70
  -6   1  17   20.00    3.40
   6   1 -17   25.20    2.70
   6   1 -17   27.60    3.50
   6   1 -17   31.40    3.20
  -6   1  17   25.80    3.90
  -5  -1  17    1.90    1.70
   5  -1 -17    1.00    1.70
  -5  -1  17    3.80    2.50
   5  -1 -17    2.70    1.50
  -5  -1  17    0.30    1.50
  -5   1  17    0.30    2.40
  -5   1  17    1.80    2.30
   5   1 -17    0.60    1.70
   5   1 -17    0.20    1.40
   5   1 -17    2.00    1.70
  -4  -1  17    2.60    2.40
  -4  -1  17    7.50    1.70
   4  -1 -17    8.80    2.00
  -4  -1  17    7.70    2.10
  -4   1  17    6.90    2.30
  -4   1  17    5.30    2.40
   4   1 -17    7.10    1.70
   4   1 -17    9.70    2.10
  -3  -1  17   34.90    3.00
   3  -1 -17   33.00    2.80
  -3  -1  17   33.40    3.70
  -3  -1  17   38.90    4.30
  -3   1  17   37.00    4.70
   3   1 -17   33.10    2.50
   3   1 -17   36.70    3.30
  -3   1  17   27.40    4.00
  -2  -1  17   68.29    3.80
  -2  -1  17   68.29    4.90
  -2  -1  17   66.39    5.00
   2  -1 -17   74.29    4.00
  -2   1  17   75.49    5.70
   2   1 -17   70.19    3.20
   2   1 -17   68.89    4.40
  -2   1  17   72.19    4.80
   1  -1 -17   41.20    2.90
  -1  -1  17   38.90    2.60
  -1  -1  17   38.40    3.90
   1  -1 -17   40.90    3.70
  -1  -1  17   36.00    4.10
   1   1 -17   36.40    3.20
   1   1 -17   34.10    2.10
  -1   1  17   38.50    3.70
  -1   1  17   39.70    4.80
   0  -1  17   35.30    4.00
   0  -1 -17   30.30    3.30
   0  -1  17   30.10    3.50
   0  -1 -17   25.30    2.60
   0  -1  17   24.70    2.80
   0  -1  17   30.30    1.90
   0   1 -17   26.40    3.00
   0   1  17   27.00    3.00
   0   1  17   30.70    3.10
   0   1  17   33.40    4.60
   1  -1  17   27.70    2.90
  -1  -1 -17   26.80    2.50
   1  -1  17   32.20    3.70
  -1  -1 -17   26.70    3.50
   1  -1  17   30.60    4.00
   1   1  17   27.80    4.20
   1   1  17   28.90    3.20
  -1   1 -17   27.90    3.10
   1   1  17   31.90    3.40
  -2  -1 -17   83.19    4.10
   2  -1  17   72.19    4.40
  -2  -1 -17   81.39    5.30
   2  -1  17   88.79    5.50
   2  -1  17   85.39    5.30
   2   1  17   80.49    3.20
   2   1  17   84.09    4.70
   2   1  17   77.99    6.00
  -2   1 -17   73.89    4.80
   2   1  17   79.59    4.90
  -3  -1 -17   28.50    2.90
   3  -1  17   27.50    4.10
  -3  -1 -17   32.40    3.50
   3  -1  17   33.40    3.90
   3  -1  17   33.30    3.00
   3   1  17   29.10    3.10
   3   1  17   36.50    4.70
   3   1  17   32.80    3.50
   3   1  17   33.90    2.30
  -3   1 -17   38.80    3.50
   4  -1  17    1.60    2.20
   4  -1  17    2.60    1.90
  -4  -1 -17    0.40    2.00
   4  -1  17    3.30    2.00
  -4  -1 -17    0.90    1.60
   4   1  17    3.40    1.90
   4   1  17    0.40    1.50
  -4   1 -17    0.50    1.50
   4   1  17    1.30    1.90
   4   1  17   -1.40    1.40
   4   1  17    1.60    2.30
  -5  -1 -17  328.67   10.90
   5  -1  17  321.47   11.60
  -5  -1 -17  310.67   12.50
   5  -1  17  329.77   13.00
   5  -1  17  338.37   12.70
   5   1  17  281.57   10.40
   5   1  17  332.07   13.30
   5   1  17  318.87   11.10
   5   1  17  345.47   12.30
   5   1  17  318.07   12.60
  -5   1 -17  309.97   12.20
  -6  -1 -17   44.90    3.10
   6  -1  17   38.50    4.30
  -6  -1 -17   33.90    3.90
   6  -1  17   40.30    5.30
   6  -1  17   38.50    3.70
  -6   1 -17   32.20    3.60
   6   1  17   37.60    4.10
   6   1  17   41.10    3.30
   6   1  17   34.90    5.30
   6   1  17   43.60    4.20
   6   1  17   41.20    3.20
  -7  -1 -17   -2.30    1.80
  -7  -1 -17    3.00    1.90
   7  -1  17    0.90    3.50
   7  -1  17   -0.50    2.60
   7  -1  17    1.30    2.20
   7   1  17   -0.80    2.10
   7   1  17   -1.60    1.70
   7   1  17   -1.20    1.90
  -7   1 -17   -0.10    1.80
   7   1  17   -1.10    1.60
   7   1  17   -5.50    2.90
   8  -1  17   25.40    4.80
  -8  -1 -17   25.20    3.20
   8  -1  17   27.30    4.20
   8  -1  17   34.00    3.80
   8  -1  17   22.60    3.50
  -8  -1 -17   21.90    3.40
   8   1  17   28.90    4.00
   8   1  17   24.90    4.20
   8   1  17   26.90    3.50
  -8   1 -17   20.30    3.30
   8   1  17   28.50    3.60
   8   1  17   37.80    4.40
   9  -1  17   12.40    3.90
   9  -1  17   15.60    4.30
   9  -1  17   12.60    2.80
  -9  -1 -17   19.50    2.60
   9  -1  17   17.00    3.00
  -9  -1 -17   12.80    2.80
   9   1  17   17.10    3.30
   9   1  17   12.90    2.60
  -9   1 -17   15.80    2.70
   9   1  17   15.30    2.80
   9   1  17    8.80    4.30
   9   1  17   19.50    3.20
 -10  -1 -17   10.00    2.60
  10  -1  17   15.50    4.80
  10  -1  17    8.50    3.00
 -10  -1 -17    6.80    2.60
  10  -1  17    2.70    3.40
  10  -1  17    8.40    2.90
  10   1  17   10.70    2.60
 -10   1 -17    6.90    2.70
  10   1  17    3.20    5.30
  10   1  17    9.50    2.70
  10   1  17    5.00    2.80
 -11  -1 -17   -1.50    2.40
  11  -1  17    3.30    2.80
 -11  -1 -17    7.90    2.70
  11  -1  17    0.20    3.90
  11  -1  17    0.80    2.90
  11  -1  17   -2.90    5.70
  11   1  17    4.40    2.70
  11   1  17    1.50    4.60
  11   1  17    1.00    2.90
  11   1  17   -0.50    3.30
 -11   1 -17   -1.00    2.10
 -12  -2  17   34.60    6.50
 -12  -2  17   24.70    3.90
  12  -2 -17   18.80    3.70
 -12  -2  17   18.70    5.20
  12  -2 -17   23.20    4.30
 -12   2  17   17.50    7.50
  12   2 -17   19.30    3.60
  12   2 -17   22.70    4.70
 -11  -2  17   -3.70    2.90
 -11  -2  17    1.80    4.00
  11  -2 -17   -0.70    2.10
 -11  -2  17    3.60    4.70
  11  -2 -17   -1.50    2.70
  11   2 -17   -0.50    2.80
  11   2 -17   -4.50    2.50
 -11   2  17   -1.20    6.10
 -11   2  17   -1.50    4.50
 -10  -2  17   44.80    5.30
  10  -2 -17   43.00    4.20
 -10  -2  17   44.60    7.20
  10  -2 -17   48.30    4.60
 -10  -2  17   50.09    6.70
 -10   2  17   44.90    7.50
 -10   2  17   52.59    7.80
  10   2 -17   44.50    4.40
  10   2 -17   41.60    4.70
  -9  -2  17    2.00    2.50
  -9  -2  17    2.70    3.20
  -9  -2  17    6.40    3.10
   9  -2 -17   -2.50    1.90
   9  -2 -17    5.20    2.60
  -9   2  17    2.70    4.70
  -9   2  17    9.40    4.00
   9   2 -17    0.60    2.10
   9   2 -17    5.70    2.70
  -9   2  17    2.40    2.10
  -8  -2  17    3.00    2.40
   8  -2 -17    3.30    2.00
   8  -2 -17    0.60    2.10
  -8  -2  17    3.30    2.80
  -8  -2  17    3.90    2.60
   8   2 -17    2.10    2.20
   8   2 -17    5.60    2.40
  -8   2  17    2.70    3.30
  -8   2  17   -2.30    3.90
  -8   2  17    1.40    1.90
   7  -2 -17    0.90    1.60
  -7  -2  17   -4.50    2.10
  -7  -2  17    0.90    2.50
  -7  -2  17    2.30    2.30
   7  -2 -17    0.00    1.90
  -7   2  17    2.80    3.90
  -7   2  17    4.70    3.00
   7   2 -17    1.10    2.00
   7   2 -17   -1.30    2.00
  -7   2  17    3.50    2.10
  -6  -2  17  103.19    6.00
  -6  -2  17   99.99    6.20
   6  -2 -17  103.99    4.40
   6  -2 -17   97.69    5.70
  -6  -2  17  102.49    6.40
   6   2 -17  109.99    6.20
  -6   2  17  104.19    5.10
   6   2 -17  106.69    6.00
  -6   2  17   95.49    7.80
  -6   2  17   97.99    7.70
  -5  -2  17    1.00    2.20
   5  -2 -17    2.80    1.70
  -5  -2  17   -0.30    2.00
  -5  -2  17    0.50    1.80
  -5   2  17    1.40    2.90
   5   2 -17    0.80    1.90
  -5   2  17    3.50    3.00
  -5   2  17   -3.00    1.70
  -4  -2  17   50.59    3.90
  -4  -2  17   51.69    4.70
   4  -2 -17   56.69    4.00
  -4  -2  17   50.29    4.50
  -4   2  17   51.99    3.70
  -4   2  17   62.19    6.00
   4   2 -17   48.90    4.30
  -4   2  17   46.90    5.40
   3  -2 -17   28.20    3.00
  -3  -2  17   32.20    3.80
  -3  -2  17   29.20    2.90
  -3  -2  17   24.30    3.80
  -3   2  17   31.90    4.70
  -3   2  17   24.00    3.00
  -3   2  17   34.90    5.20
   3   2 -17   27.10    3.20
  -2  -2  17   61.39    4.60
   2  -2 -17   63.19    4.10
  -2  -2  17   63.89    3.50
  -2  -2  17   63.59    5.00
  -2   2  17   54.29    4.10
  -2   2  17   58.69    5.20
  -2   2  17   60.59    5.80
   2   2 -17   59.09    4.40
  -1  -2  17   22.30    2.10
  -1  -2  17   24.50    3.70
  -1  -2  17   21.40    2.90
  -1  -2  17   18.90    2.00
   1  -2 -17   16.30    2.60
  -1   2  17   19.20    3.00
   1   2 -17   18.30    3.10
  -1   2  17   14.80    3.20
   1   2 -17   21.50    2.80
  -1   2  17   19.00    2.90
   0  -2  17   52.69    4.50
   0  -2 -17   51.79    4.30
   0  -2 -17   45.80    3.50
   0  -2  17   49.40    4.30
   0   2 -17   49.00    4.00
   0   2  17   51.59    4.00
   0   2  17   49.10    4.80
   0   2  17   49.99    5.40
   0   2 -17   48.40    3.60
   1  -2  17   60.79    4.80
  -1  -2 -17   51.19    4.30
   1  -2  17   52.69    4.20
  -1  -2 -17   58.49    3.90
   1  -2  17   56.89    4.90
   1   2  17   53.79    5.10
   1   2  17   53.19    4.10
  -1   2 -17   49.30    3.80
  -1   2 -17   54.59    4.20
   1   2  17   49.20    5.40
  -2  -2 -17   67.69    4.10
   2  -2  17   66.39    4.60
   2  -2  17   75.19    5.60
  -2  -2 -17   70.39    5.00
   2  -2  17   74.99    5.30
  -2   2 -17   74.59    4.50
   2   2  17   65.89    6.00
   2   2  17   76.19    5.30
   2   2  17   75.39    4.90
   3  -2  17    2.10    1.80
   3  -2  17    2.70    2.30
  -3  -2 -17    1.50    1.80
  -3  -2 -17    0.70    1.70
   3  -2  17   -1.00    2.10
   3   2  17   -1.10    1.90
  -3   2 -17   -0.50    1.60
   3   2  17   -0.40    2.60
   3   2  17    2.10    2.60
   4  -2  17  334.57   12.50
   4  -2  17  304.87   11.80
   4  -2  17  320.47   12.80
  -4  -2 -17  318.87   11.50
  -4  -2 -17  314.67   12.60
   4   2  17  325.17   12.20
   4   2  17  304.07   12.40
   4   2  17  326.77   13.30
  -4   2 -17  292.67   11.70
   5  -2  17    7.90    3.20
  -5  -2 -17    6.10    2.10
   5  -2  17    4.70    2.10
   5  -2  17    3.10    2.50
  -5  -2 -17    4.20    2.10
   5   2  17    6.30    2.50
  -5   2 -17    3.90    2.00
   5   2  17    3.70    1.90
   5   2  17    8.40    2.90
   5   2  17    5.70    2.30
   6  -2  17    1.70    2.40
   6  -2  17   -1.10    2.70
  -6  -2 -17    4.50    2.30
   6  -2  17    3.50    3.30
  -6  -2 -17   -0.30    1.90
   6   2  17    7.50    2.70
   6   2  17    5.20    2.40
   6   2  17   -1.10    2.30
  -6   2 -17    0.10    1.60
   6   2  17    3.70    3.30
   6   2  17    5.70    2.20
   7  -2  17   25.20    4.10
   7  -2  17   18.90    3.30
   7  -2  17   28.70    4.50
  -7  -2 -17   28.40    3.30
  -7  -2 -17   19.30    3.20
   7   2  17   21.50    3.70
   7   2  17   21.20    3.40
   7   2  17   29.80    4.50
  -7   2 -17   25.00    3.40
   7   2  17   28.40    3.30
   7   2  17   30.20    4.80
   8  -2  17    5.60    3.50
  -8  -2 -17    9.00    2.40
   8  -2  17    6.70    3.80
   8  -2  17    9.10    2.80
  -8  -2 -17    3.00    2.50
   8   2  17   12.60    2.80
   8   2  17    7.10    3.20
   8   2  17   11.50    2.90
  -8   2 -17    4.60    1.90
   8   2  17    6.70    3.00
   8   2  17    2.90    3.80
   9  -2  17   16.80    5.40
   9  -2  17   19.80    4.60
  -9  -2 -17   12.60    3.40
  -9  -2 -17   20.00    3.30
   9  -2  17   18.50    3.50
   9   2  17   13.50    4.60
   9   2  17   12.00    3.10
   9   2  17   17.30    3.60
   9   2  17   19.50    3.40
   9   2  17   19.50    3.10
  -9   2 -17   20.00    3.40
  10  -2  17   16.70    3.40
  10  -2  17   13.60    3.00
  10  -2  17    8.50    5.30
  10  -2  17   19.40    5.10
 -10  -2 -17   17.50    3.40
 -10  -2 -17   22.90    3.50
  10   2  17   13.90    3.70
 -10   2 -17   17.90    3.40
  10   2  17   26.50    6.10
  10   2  17   23.80    3.40
  10   2  17   14.50    3.80
  10   2  17   17.20    3.30
 -11  -2 -17   67.79    6.20
  11  -2  17   66.59    5.70
 -11  -2 -17   73.29    5.70
  11  -2  17   80.19    8.80
  11  -2  17   84.59   11.50
  11  -2  17   67.19    5.60
  11   2  17   59.89    5.70
  11   2  17   73.79    6.30
  11   2  17   54.09    5.20
 -11   2 -17   65.89    5.50
  11   2  17   67.29    6.90
 -10  -3  17    2.70    3.60
  10  -3 -17    3.90    3.20
 -10  -3  17   10.00    4.00
  10  -3 -17    1.50    2.10
  10  -3 -17    2.10    4.30
 -10   3  17    4.40    7.00
 -10   3  17   -1.00    6.00
  10   3 -17    2.10    2.80
  10   3 -17    4.70    2.50
   9  -3 -17    2.80    2.10
  -9  -3  17    3.60    3.50
  -9  -3  17    1.50    4.00
   9  -3 -17    1.20    3.90
   9  -3 -17   -3.00    2.80
   9   3 -17    1.20    2.50
   9   3 -17   -0.10    2.60
  -9   3  17   -2.70    5.50
  -9   3  17    0.40    5.10
  -8  -3  17   -2.10    3.40
   8  -3 -17    2.60    2.30
   8  -3 -17    9.80    2.60
  -8  -3  17    1.00    2.80
   8  -3 -17    0.40    3.50
  -8   3  17   -6.60    4.70
   8   3 -17   -0.10    2.50
   8   3 -17    5.60    2.60
  -8   3  17    8.90    4.90
  -8   3  17    9.20    4.90
  -7  -3  17   29.70    3.80
  -7  -3  17   30.30    4.20
   7  -3 -17   21.50    3.40
   7  -3 -17   26.00    4.40
   7   3 -17   21.30    3.60
  -7   3  17   26.50    3.70
  -7   3  17   29.40    5.50
  -7   3  17   27.20    5.20
  -6  -3  17   18.80    3.80
   6  -3 -17   21.40    3.20
   6  -3 -17   17.90    3.70
  -6  -3  17   19.50    2.90
  -6   3  17   21.20    4.60
  -6   3  17   27.20    3.10
  -6   3  17   16.50    4.80
   6   3 -17   21.30    3.60
   5  -3 -17   32.20    3.70
  -5  -3  17   37.60    3.70
   5  -3 -17   30.10    4.40
  -5  -3  17   36.50    5.40
  -5   3  17   27.10    4.40
   5   3 -17   33.10    3.90
  -5   3  17   30.90    3.50
  -5   3  17   26.80    5.00
   4  -3 -17    2.90    3.00
   4  -3 -17    1.80    2.10
  -4  -3  17    7.60    2.90
  -4  -3  17    4.30    2.30
  -4   3  17    5.10    3.40
   4   3 -17    2.60    2.40
  -4   3  17    2.50    2.30
  -4   3  17    5.00    3.00
  -3  -3  17   53.79    4.20
  -3  -3  17   54.59    5.60
   3  -3 -17   55.09    4.40
   3  -3 -17   58.49    6.20
  -3  -3  17   55.09    3.70
  -3   3  17   51.89    6.70
   3   3 -17   58.69    4.60
  -3   3  17   52.19    4.20
  -3   3  17   65.39    6.80
  -2  -3  17    3.10    1.90
  -2  -3  17    0.40    2.20
   2  -3 -17   -2.00    1.50
  -2  -3  17   -3.00    2.60
   2   3 -17    0.80    2.00
  -2   3  17    2.70    3.10
  -2   3  17   -0.30    2.00
  -2   3  17    3.40    2.70
  -1  -3  17   48.10    3.00
  -1  -3  17   39.10    5.90
  -1  -3  17   42.20    4.00
   1  -3 -17   39.60    3.70
  -1  -3  17   41.80    3.10
  -1   3  17   44.10    4.30
   1   3 -17   35.90    3.90
  -1   3  17   47.70    6.30
  -1   3  17   52.69    5.90
   0  -3  17    8.70    3.20
   0  -3 -17   10.40    2.40
   0  -3  17    7.40    2.20
   0   3 -17    8.40    2.50
   0   3  17   12.40    2.80
   0   3 -17   10.40    2.20
   0   3  17   14.40    3.70
   0   3  17    7.20    3.50
  -1  -3 -17   41.20    3.70
   1  -3  17   42.40    4.10
   1  -3  17   36.60    4.00
   1  -3  17   46.20    6.00
   1   3  17   42.80    4.20
   1   3  17   41.00    5.00
  -1   3 -17   39.20    3.40
   1   3  17   42.20    6.20
  -1   3 -17   42.90    4.10
   2  -3  17   93.99    6.00
  -2  -3 -17   75.09    5.60
   2  -3  17   92.99    7.00
  -2  -3 -17   91.69    5.60
   2  -3  17   95.39    5.70
   2   3  17   90.49    7.10
  -2   3 -17   89.59    4.90
   2   3  17   96.39    7.20
  -2   3 -17   89.39    5.90
   2   3  17   87.99    5.80
   3  -3  17    5.20    2.60
  -3  -3 -17    7.90    2.20
   3  -3  17    2.60    2.20
   3  -3  17    5.60    3.30
  -3  -3 -17    4.70    2.30
  -3   3 -17    2.00    2.20
   3   3  17   -0.80    2.30
   3   3  17    5.70    3.30
  -3   3 -17    6.70    2.10
   3   3  17   10.10    3.60
   4  -3  17    1.00    3.30
  -4  -3 -17    5.20    2.30
  -4  -3 -17    0.30    2.10
   4  -3  17    4.00    2.90
   4  -3  17    3.10    2.10
  -4   3 -17    2.80    1.90
   4   3  17    1.20    2.50
   4   3  17    1.60    2.90
   4   3  17    5.50    3.10
   5  -3  17   -3.60    3.00
   5  -3  17   -4.60    3.10
  -5  -3 -17   -0.90    2.40
   5  -3  17    1.10    2.20
  -5  -3 -17   -0.40    2.00
   5   3  17   -1.60    2.20
   5   3  17    2.30    3.10
   5   3  17    2.20    3.50
  -5   3 -17    1.00    2.10
  -6  -3 -17    5.20    2.70
  -6  -3 -17    3.90    2.10
   6  -3  17   10.30    4.10
   6  -3  17    1.40    2.20
   6  -3  17    1.60    3.70
   6   3  17    3.00    2.60
   6   3  17    1.10    3.40
  -6   3 -17    4.90    2.40
   6   3  17    1.70    3.60
  -7  -3 -17   97.59    6.50
   7  -3  17  101.19    8.30
   7  -3  17  108.29    8.90
  -7  -3 -17  101.29    6.20
   7  -3  17   96.99    6.30
   7   3  17  104.19    7.90
   7   3  17  105.79    6.50
   7   3  17   98.29    8.70
   7   3  17   89.39    6.80
  -7   3 -17   99.29    5.90
   8  -3  17    3.70    4.60
  -8  -3 -17   -1.90    2.40
   8  -3  17   13.00    4.40
  -8  -3 -17    4.40    2.70
   8  -3  17   -2.30    2.40
   8   3  17   -0.80    4.10
   8   3  17    0.00    2.90
   8   3  17   -2.40    3.10
  -8   3 -17   -2.60    2.00
   8   3  17   -4.70    3.10
   8   3  17   -4.90    4.30
   9  -3  17    1.50    4.60
   9  -3  17   14.20    5.20
  -9  -3 -17    6.20    2.90
  -9  -3 -17    6.90    3.20
   9  -3  17    9.10    3.20
   9   3  17   10.80    3.40
   9   3  17    7.50    4.20
  -9   3 -17    8.70    2.80
   9   3  17   11.50    3.50
   9   3  17    4.20    2.80
   9   3  17    8.20    4.70
   8  -4 -17   20.70    3.70
  -8  -4  17   22.70    5.30
  -8   4  17   27.70    7.70
   8   4 -17   21.20    4.40
  -8   4  17    8.10    5.50
  -7  -4  17    6.00    2.70
   7  -4 -17    9.30    5.00
  -7  -4  17    3.60    4.50
   7  -4 -17    4.50    2.40
  -7   4  17    4.70    5.50
   7   4 -17    4.90    2.60
  -7   4  17    7.20    5.30
  -6  -4  17   34.90    4.20
  -6  -4  17   60.59    7.80
   6  -4 -17   35.90    6.10
   6  -4 -17   37.50    4.20
  -6   4  17   39.10    6.30
  -6   4  17   31.60    5.90
   6   4 -17   31.30    4.70
  -6   4  17   43.00    4.50
   5  -4 -17    0.80    2.40
   5  -4 -17   11.20    4.90
  -5  -4  17    8.50    2.70
  -5  -4  17   15.50    4.30
  -5   4  17    8.00    2.80
  -5   4  17    3.80    4.50
  -5   4  17    1.20    4.60
   5   4 -17    5.10    2.80
  -4  -4  17   46.70    7.10
  -4  -4  17   30.60    3.60
   4  -4 -17   37.70    5.30
   4  -4 -17   24.10    3.60
  -4   4  17   28.50    5.50
  -4   4  17   30.70    4.10
  -4   4  17   34.00    5.30
   4   4 -17   25.50    4.20
  -3  -4  17   14.20    3.00
   3  -4 -17   10.20    4.10
   3  -4 -17    8.40    2.20
  -3  -4  17    8.50    1.70
  -3  -4  17    6.80    4.30
  -3   4  17    6.60    4.40
  -3   4  17    2.80    2.70
   3   4 -17    8.00    3.00
  -3   4  17    2.70    4.60
  -2  -4  17    1.90    1.90
  -2  -4  17    4.40    2.60
   2  -4 -17    4.30    2.30
  -2  -4  17   -4.00    3.70
   2  -4 -17   -2.60    3.60
  -2   4  17    5.20    3.90
  -2   4  17   -2.70    3.90
   2   4 -17    0.50    2.10
  -2   4  17   -2.00    2.80
  -1  -4  17    0.70    3.90
  -1  -4  17    7.60    2.30
   1  -4 -17   10.70    4.00
   1  -4 -17    0.00    2.00
  -1  -4  17    4.30    2.10
  -1   4  17    1.50    3.70
  -1   4  17    6.10    4.80
  -1   4  17    7.10    2.80
   1   4 -17    6.00    2.30
   0  -4 -17   13.10    4.10
   0  -4  17    9.30    4.40
   0  -4  17   15.20    3.10
   0  -4  17   10.30    2.40
   0  -4 -17   10.20    3.30
   0  -4  17   11.20    5.40
   0   4  17   13.50    4.20
   0   4  17   12.20    3.30
   0   4  17   11.90    5.20
   0   4 -17   14.40    3.30
   1  -4  17   41.60    4.80
   1  -4  17   46.50    4.60
  -1  -4 -17   44.50    4.70
   1  -4  17   48.40    7.30
  -1   4 -17   54.39    3.90
   1   4  17   65.29    8.50
  -1   4 -17   42.20    4.70
   1   4  17   43.50    4.90
   1   4  17   62.89    7.50
   2  -4  17   22.40    4.70
   2  -4  17   15.50    3.20
   2  -4  17   22.50    3.40
  -2  -4 -17   20.30    3.40
   2   4  17   17.30    3.80
  -2   4 -17   18.20    3.60
   2   4  17   26.90    5.10
   2   4  17   13.70    5.20
  -2   4 -17   21.80    2.70
   3  -4  17   13.30    3.20
   3  -4  17    8.10    2.90
  -3  -4 -17   11.10    2.60
   3  -4  17    4.10    4.60
  -3   4 -17    8.90    3.20
   3   4  17   11.70    4.50
  -3   4 -17   10.10    2.60
   3   4  17   22.40    4.90
   3   4  17    9.20    2.90
   4  -4  17   69.49    6.50
   4  -4  17   65.99    5.50
   4  -4  17   94.49    8.90
  -4  -4 -17   73.79    5.90
  -4  -4 -17   72.29    5.80
  -4   4 -17   76.19    5.90
   4   4  17   71.89    8.10
   4   4  17   77.39    8.40
  -4   4 -17   80.19    5.10
   4   4  17   73.19    6.20
   5  -4  17   -7.20    4.70
   5  -4  17   -1.50    2.50
  -5  -4 -17    1.80    2.90
   5  -4  17    1.60    4.00
  -5  -4 -17    2.40    2.80
   5   4  17    5.30    4.30
   5   4  17    1.30    2.80
   5   4  17    0.80    4.20
  -5   4 -17   -0.60    2.40
   6  -4  17    2.20    2.60
  -6  -4 -17    0.90    2.50
   6  -4  17   -1.70    5.40
  -6  -4 -17    1.30    2.70
   6  -4  17   -1.40    4.20
   6   4  17    9.40    5.00
  -6   4 -17   -1.90    2.60
   6   4  17   -5.10    4.30
   6   4  17    3.60    3.00
 -13   0  18   -0.30    3.70
 -13   0  18    4.80    6.90
 -12   0  18   19.30    4.00
 -12   0  18   17.60    4.80
  12   0 -18   19.00    3.90
 -12   0  18   16.50    6.20
  12   0 -18   16.10    3.30
 -11   0  18    1.00    5.40
  11   0 -18   -4.50    2.50
 -11   0  18    1.80    4.10
  11   0 -18    3.00    2.10
  10   0 -18   79.49    5.60
  10   0 -18   79.19    5.10
 -10   0  18   68.19    7.40
 -10   0  18   72.29    8.90
   9   0 -18    4.30    2.40
   9   0 -18   -2.60    1.80
  -9   0  18   -1.50    3.80
  -9   0  18    3.00    3.00
   8   0 -18   41.00    4.00
  -8   0  18   48.60    6.70
  -8   0  18   35.30    5.30
   8   0 -18   39.80    3.60
   7   0 -18    0.70    1.80
   7   0 -18    0.90    2.10
  -7   0  18   -1.90    2.60
  -7   0  18   -2.10    2.10
   6   0 -18    0.10    2.00
   6   0 -18    0.40    1.60
  -6   0  18    1.70    2.00
  -6   0  18    1.10    2.40
   5   0 -18    2.60    1.90
   5   0 -18    2.10    1.40
  -5   0  18   -3.00    1.80
  -5   0  18    1.80    2.30
   4   0 -18    1.30    1.50
  -4   0  18    0.00    1.80
  -4   0  18    5.30    2.80
   3   0 -18   -1.90    1.40
  -3   0  18   -0.10    1.60
  -3   0  18   -2.20    2.00
  -3   0  18   -2.30    1.80
  -2   0  18   88.89    6.40
   2   0 -18   91.09    4.20
  -2   0  18   87.19    5.00
  -2   0  18   96.09    5.70
   1   0 -18   -1.70    1.30
   1   0 -18    1.00    1.60
  -1   0  18    1.00    1.50
  -1   0  18   -1.60    2.30
  -1   0  18   -0.10    1.50
  -1   0  18   -1.90    1.60
   0   0  18   21.80    2.30
   0   0 -18   21.70    2.80
   0   0  18   20.10    3.30
   0   0  18   21.30    3.10
   0   0  18   18.10    2.50
   0   0 -18   18.90    2.00
   1   0  18    0.50    2.30
   1   0  18   -1.60    1.70
  -1   0 -18    1.20    1.70
   1   0  18    0.70    1.50
  -1   0 -18   -0.20    1.20
   1   0  18   -0.10    1.50
   2   0  18  100.69    5.90
   2   0  18  103.89    4.60
   2   0  18  100.19    4.10
  -2   0 -18   96.09    5.60
   2   0  18  105.89    6.60
  -2   0 -18   99.69    3.80
  -3   0 -18   -0.50    1.10
   3   0  18   -1.20    0.90
   3   0  18   -2.30    2.20
  -3   0 -18   -0.60    1.70
   3   0  18   -1.20    1.60
   3   0  18    1.70    1.80
   4   0  18    5.50    0.90
   4   0  18    4.30    1.80
   4   0  18    2.60    2.10
  -4   0 -18    7.00    1.20
  -4   0 -18    3.70    2.10
   4   0  18    6.90    2.90
   5   0  18   -1.90    1.90
   5   0  18   -1.80    2.50
   5   0  18    1.30    2.00
  -5   0 -18   -0.10    1.80
   5   0  18   -0.60    1.80
   6   0  18  101.89    6.30
   6   0  18   90.39    5.80
   6   0  18   97.09    5.00
  -6   0 -18   93.49    5.90
   6   0  18   95.49    6.90
   7   0  18   -2.00    1.90
  -7   0 -18    4.80    2.00
   7   0  18    1.90    2.50
   7   0  18   -1.30    2.00
   7   0  18    4.40    3.20
  -8   0 -18   83.39    5.70
   8   0  18   80.19    5.90
   8   0  18   88.99    5.10
   8   0  18   89.59    6.00
   8   0  18   85.49    7.90
   9   0  18   -1.90    2.80
   9   0  18    1.40    2.50
   9   0  18   -1.10    4.70
  -9   0 -18   -2.90    1.80
  -9   0 -18   16.80    5.80
   9   0  18    1.60    2.30
  10   0  18    1.60    4.10
  10   0  18    2.90    2.50
  10   0  18    0.50    2.20
 -10   0 -18    7.10    2.70
  10   0  18    4.50    3.50
 -11   0 -18    0.30    2.60
  11   0  18   -7.50    4.10
  11   0  18   -1.60    2.50
  11   0  18    0.10    2.40
 -11   0 -18    1.20    1.90
  11   0  18   -2.60    6.40
 -12  -1  18   -2.50    5.50
 -12  -1  18    0.60    3.20
  12  -1 -18    7.00    2.80
 -12  -1  18    7.80    4.40
  12  -1 -18   14.90    4.00
 -12   1  18   10.30    6.50
  12   1 -18    6.90    2.90
 -12   1  18    3.50    5.10
  12   1 -18    5.20    2.20
  12   1 -18    4.40    2.90
  11  -1 -18    3.40    2.60
 -11  -1  18   -2.60    4.80
  11  -1 -18    4.20    3.20
 -11  -1  18    7.70    3.90
 -11  -1  18   -2.50    3.00
  11   1 -18    2.70    2.60
  11   1 -18    1.00    3.00
  11   1 -18    5.60    2.30
 -11   1  18    6.50    5.80
 -11   1  18    0.20    4.30
  10  -1 -18   37.00    4.30
 -10  -1  18   42.30    6.20
 -10  -1  18   33.20    5.00
  10  -1 -18   34.00    3.80
 -10  -1  18   43.60    5.90
  10   1 -18   39.50    4.10
 -10   1  18   40.80    6.20
 -10   1  18   33.20    5.20
  10   1 -18   35.80    4.50
  10   1 -18   31.90    3.70
  -9  -1  18    2.40    2.40
  -9  -1  18    0.10    2.80
   9  -1 -18    0.10    2.00
   9  -1 -18    5.30    2.40
  -9  -1  18    2.30    3.60
   9   1 -18    5.90    2.10
   9   1 -18    3.70    2.60
  -9   1  18    4.40    3.20
   9   1 -18    7.90    2.30
  -9   1  18    6.10    4.40
   8  -1 -18   18.10    2.90
   8  -1 -18   13.40    2.90
  -8  -1  18   15.90    2.60
  -8  -1  18   18.30    3.80
  -8  -1  18   17.90    3.40
   8   1 -18   20.50    3.10
  -8   1  18   11.20    4.10
   8   1 -18   21.00    3.60
   8   1 -18   22.00    2.90
  -8   1  18   20.40    3.80
   7  -1 -18    7.20    2.20
  -7  -1  18    9.40    2.50
  -7  -1  18    8.00    3.00
  -7  -1  18    9.80    2.60
   7  -1 -18    9.40    2.30
  -7   1  18   14.30    4.00
   7   1 -18   10.50    2.20
   7   1 -18    6.80    2.80
   7   1 -18    5.80    2.40
  -7   1  18    9.70    3.00
  -6  -1  18  235.78   10.10
  -6  -1  18  238.48   10.10
  -6  -1  18  239.18   10.90
   6  -1 -18  240.38    9.60
   6  -1 -18  267.87    8.90
  -6   1  18  244.38   11.80
  -6   1  18  233.98   11.00
   6   1 -18  243.98    9.80
   6   1 -18  243.38    9.10
   6   1 -18  236.58    9.80
  -5  -1  18    9.80    3.10
   5  -1 -18   17.90    2.80
  -5  -1  18   12.10    2.40
  -5  -1  18   14.30    2.50
   5   1 -18   15.30    2.20
  -5   1  18   11.60    3.10
   5   1 -18   12.70    2.60
  -5   1  18   12.00    2.90
  -4  -1  18   79.69    4.70
   4  -1 -18   80.09    4.50
  -4  -1  18   73.59    5.80
  -4  -1  18   72.19    5.10
  -4   1  18   74.59    5.70
   4   1 -18   78.89    5.00
   4   1 -18   80.69    4.00
  -4   1  18   74.09    6.50
  -3  -1  18  161.28    8.20
   3  -1 -18  155.38    6.60
  -3  -1  18  159.58    7.60
  -3  -1  18  144.19    6.60
  -3   1  18  156.88    8.60
  -3   1  18  164.78    7.90
   3   1 -18  154.48    5.90
   3   1 -18  167.08    7.40
  -2  -1  18  108.39    6.50
  -2  -1  18  110.89    6.30
   2  -1 -18  111.19    5.10
  -2  -1  18  110.39    5.10
   2   1 -18  115.79    4.50
  -2   1  18  108.19    6.00
  -2   1  18  106.89    6.80
  -1  -1  18   10.10    2.50
  -1  -1  18    2.00    2.30
  -1  -1  18    6.10    1.50
   1  -1 -18    8.50    1.70
   1   1 -18    6.40    1.90
  -1   1  18    8.70    2.00
   1   1 -18    9.40    1.20
  -1   1  18    4.80    2.40
   0  -1  18  155.88    5.20
   0  -1 -18  151.78    7.50
   0  -1  18  166.58    7.90
   0  -1  18  152.68    6.50
   0  -1  18  154.88    7.70
   0  -1 -18  155.78    6.30
   0   1  18  147.49    7.00
   0   1  18  163.78    7.10
   0   1  18  148.69    8.20
   0   1 -18  158.08    7.20
  -1  -1 -18   21.20    2.40
   1  -1  18   18.90    3.20
   1  -1  18   26.10    3.80
  -1  -1 -18   19.40    2.90
   1  -1  18   23.50    2.90
   1   1  18   24.70    3.70
   1   1  18   24.60    3.30
  -1   1 -18   23.60    3.30
   1   1  18   23.70    3.20
   2  -1  18   13.40    2.70
   2  -1  18   17.90    2.50
  -2  -1 -18   20.00    2.30
  -2  -1 -18   22.80    3.20
   2  -1  18   14.20    2.50
   2   1  18   15.70    2.60
   2   1  18   16.40    1.80
  -2   1 -18   17.60    2.90
   2   1  18   18.60    2.60
   2   1  18   15.90    3.40
   3  -1  18    2.60    1.60
   3  -1  18   -3.00    2.30
   3  -1  18    0.70    2.10
  -3  -1 -18   -1.60    1.80
  -3  -1 -18    0.20    1.60
   3   1  18    0.20    2.10
  -3   1 -18   -1.20    1.80
   3   1  18    3.90    2.70
   3   1  18   -2.10    1.40
   3   1  18   -2.60    1.50
   3   1  18    3.90    2.00
  -4  -1 -18    0.50    1.60
   4  -1  18    0.80    1.90
   4  -1  18   -1.50    1.90
  -4  -1 -18   -1.00    1.70
   4  -1  18   -3.50    2.30
  -4   1 -18    0.00    1.70
   4   1  18   -0.20    1.60
   4   1  18    2.30    2.00
   4   1  18    0.50    2.50
   4   1  18   -0.50    1.90
   4   1  18   -2.50    1.40
   5  -1  18   33.50    4.40
  -5  -1 -18   43.50    4.50
   5  -1  18   40.70    3.60
  -5  -1 -18   41.70    3.40
   5  -1  18   43.00    5.10
  -5   1 -18   35.90    3.80
   5   1  18   40.00    3.60
   5   1  18   39.60    4.30
   5   1  18   50.79    5.80
   5   1  18   49.10    4.70
   5   1  18   38.10    3.20
  -6  -1 -18   23.70    2.80
   6  -1  18   21.00    3.10
  -6  -1 -18   23.20    3.60
   6  -1  18   20.00    3.20
   6  -1  18   29.20    4.10
   6   1  18   23.60    3.00
   6   1  18   22.80    3.50
   6   1  18   21.30    4.40
  -6   1 -18   17.70    2.90
   6   1  18   23.70    3.00
   6   1  18   20.70    3.10
   7  -1  18   14.60    4.00
   7  -1  18    9.10    2.50
   7  -1  18   16.30    3.40
  -7  -1 -18   13.80    3.20
  -7  -1 -18   16.80    2.50
   7   1  18   13.80    2.50
   7   1  18   17.80    3.80
   7   1  18   12.90    2.30
  -7   1 -18    8.30    2.10
   7   1  18   11.60    2.80
   7   1  18   11.30    2.70
   8  -1  18    4.50    2.70
  -8  -1 -18    4.60    2.20
   8  -1  18   10.70    2.50
   8  -1  18    3.50    4.40
  -8  -1 -18    2.30    2.40
   8  -1  18    0.00    3.30
   8   1  18    9.50    2.90
   8   1  18    1.20    2.40
   8   1  18    5.40    2.30
  -8   1 -18    5.60    2.20
   8   1  18    7.40    2.30
   8   1  18    4.30    4.10
   9  -1  18    4.40    2.80
   9  -1  18    3.80    4.40
  -9  -1 -18    7.50    2.70
   9  -1  18    6.40    2.50
   9  -1  18    0.90    4.00
  -9  -1 -18    7.40    2.20
   9   1  18    4.40    4.50
   9   1  18    4.50    2.50
  -9   1 -18    2.60    2.30
   9   1  18    2.90    2.30
   9   1  18    8.80    3.10
 -10  -1 -18    3.60    2.50
  10  -1  18    0.90    5.20
  10  -1  18    1.70    2.60
 -10  -1 -18    1.40    2.40
  10  -1  18   -4.20    2.30
  10  -1  18   -1.80    3.80
  10   1  18   -3.90    5.90
  10   1  18   -2.40    2.30
  10   1  18   -4.20    2.80
  10   1  18    0.80    2.70
 -10   1 -18   -0.30    1.90
  11  -1  18   -1.40    2.50
  11  -1  18    5.20    7.80
 -11  -1 -18    4.60    2.60
  11  -1  18   -4.00    4.00
  11  -1  18   -1.60    2.70
 -11  -1 -18    1.60    2.50
  11   1  18    1.40    2.70
  11   1  18   -3.70    4.70
  11   1  18   -4.90    2.90
 -11   1 -18    0.80    2.20
  11   1  18    2.60    3.50
 -11  -2  18    7.40    4.40
 -11  -2  18    5.40    5.20
  11  -2 -18    6.20    3.10
  11  -2 -18    1.90    2.70
 -11  -2  18   -3.30    3.10
  11   2 -18    1.80    2.70
 -11   2  18   -7.30    6.70
 -11   2  18    8.90    5.00
  11   2 -18   -0.10    2.50
 -10  -2  18  153.18    8.40
 -10  -2  18  157.78   10.00
  10  -2 -18  144.89    8.00
 -10  -2  18  163.08    9.80
  10  -2 -18  161.38    7.20
 -10   2  18  153.48   12.40
  10   2 -18  147.99    8.50
  10   2 -18  161.38    8.30
 -10   2  18  164.78   11.30
  -9  -2  18   11.90    3.60
  -9  -2  18    5.20    2.70
   9  -2 -18    7.10    2.30
  -9  -2  18    4.60    3.40
   9  -2 -18    6.90    2.90
   9   2 -18    6.00    2.70
  -9   2  18    3.10    5.50
  -9   2  18    2.30    4.60
   9   2 -18    5.60    2.60
  -9   2  18    7.30    2.40
  -8  -2  18   18.20    3.70
  -8  -2  18   10.00    3.10
   8  -2 -18   13.50    2.80
  -8  -2  18   12.80    3.10
   8  -2 -18   19.30    2.80
   8   2 -18    9.00    3.00
  -8   2  18   20.60    4.70
  -8   2  18   13.80    2.60
  -8   2  18   15.60    4.70
   8   2 -18   13.90    3.00
  -7  -2  18   53.99    5.20
  -7  -2  18   56.79    5.90
   7  -2 -18   54.89    3.70
   7  -2 -18   47.60    4.40
  -7  -2  18   60.79    5.20
  -7   2  18   59.69    4.20
   7   2 -18   61.09    4.80
   7   2 -18   58.09    4.80
  -7   2  18   54.09    7.10
  -7   2  18   47.30    6.70
   6  -2 -18   92.39    4.10
   6  -2 -18   90.49    5.40
  -6  -2  18  100.19    6.40
  -6  -2  18   86.89    6.20
  -6  -2  18   90.89    5.90
  -6   2  18   92.29    5.00
  -6   2  18   88.99    7.50
   6   2 -18   86.59    5.70
  -6   2  18   90.09    8.10
  -5  -2  18   50.59    5.10
   5  -2 -18   52.49    4.00
  -5  -2  18   53.19    4.50
  -5  -2  18   50.39    5.30
  -5   2  18   50.49    3.90
  -5   2  18   53.59    6.40
   5   2 -18   49.70    4.20
  -5   2  18   55.09    6.40
  -4  -2  18   14.30    3.10
  -4  -2  18   13.80    2.20
  -4  -2  18   16.90    3.00
   4  -2 -18   16.10    2.80
  -4   2  18   16.00    2.60
  -4   2  18   19.20    3.50
  -4   2  18   12.40    3.40
   4   2 -18   15.00    2.60
  -3  -2  18  218.28    9.90
   3  -2 -18  215.38    8.90
  -3  -2  18  230.38    8.40
  -3  -2  18  217.68    9.40
   3   2 -18  225.18    9.50
  -3   2  18  222.18   10.20
  -3   2  18  228.18   11.20
  -3   2  18  218.28    8.90
  -2  -2  18    3.70    1.60
  -2  -2  18    1.50    2.10
   2  -2 -18    0.70    1.80
  -2  -2  18    4.40    2.50
   2   2 -18    4.30    2.30
  -2   2  18    1.90    2.70
  -2   2  18    3.70    2.30
  -2   2  18    5.70    2.00
  -1  -2  18   85.69    5.50
  -1  -2  18   90.19    5.90
  -1  -2  18   81.69    3.50
  -1  -2  18   84.49    3.60
   1  -2 -18   82.09    4.80
   1   2 -18   82.59    4.80
  -1   2  18   84.69    5.10
  -1   2  18   93.09    6.80
   1   2 -18   83.89    5.40
  -1   2  18   89.49    6.00
   0  -2 -18  132.59    7.20
   0  -2 -18  129.39    6.10
   0  -2  18  122.89    6.40
   0  -2  18  134.79    7.30
   0  -2  18  136.49    6.90
   0   2  18  136.09    8.10
   0   2 -18  132.39    7.00
   0   2  18  126.39    6.50
   0   2 -18  136.59    6.20
   0   2  18  133.49    7.10
   1  -2  18    0.00    1.90
   1  -2  18    3.00    2.10
  -1  -2 -18    6.70    2.00
  -1  -2 -18    2.80    2.10
   1  -2  18    3.10    2.40
  -1   2 -18    7.50    2.10
   1   2  18    6.00    2.10
   1   2  18    3.00    2.70
   1   2  18   -1.90    2.50
  -2  -2 -18    1.10    2.10
  -2  -2 -18    1.30    2.10
   2  -2  18    1.80    2.30
   2  -2  18    1.80    2.10
   2  -2  18    3.30    2.50
   2   2  18    4.10    2.10
  -2   2 -18    0.00    1.70
   2   2  18   -2.90    3.00
   2   2  18    2.70    2.60
   3  -2  18    3.80    2.70
  -3  -2 -18   -3.00    2.00
   3  -2  18   -1.50    2.30
   3  -2  18    2.20    1.80
  -3  -2 -18    1.10    1.80
   3   2  18   -1.80    2.20
  -3   2 -18    0.00    1.80
   3   2  18    1.70    2.70
   3   2  18    1.10    2.10
   4  -2  18   -0.30    2.50
   4  -2  18    4.80    2.10
  -4  -2 -18    0.10    2.00
   4  -2  18    5.20    2.60
  -4  -2 -18   -2.70    1.90
   4   2  18    5.40    2.30
   4   2  18   -3.20    2.60
  -4   2 -18    4.90    2.00
   4   2  18    5.30    2.50
   5  -2  18    9.10    3.40
  -5  -2 -18    7.90    2.60
   5  -2  18   14.50    3.00
  -5  -2 -18   15.90    2.50
   5  -2  18   14.90    3.30
   5   2  18   13.00    2.20
  -5   2 -18   12.20    2.50
   5   2  18    6.80    2.50
   5   2  18    9.50    2.50
   5   2  18   18.40    4.00
   6  -2  18   30.70    5.00
  -6  -2 -18   24.10    3.10
  -6  -2 -18   20.60    3.30
   6  -2  18   22.50    3.50
   6  -2  18   22.30    4.20
   6   2  18   25.00    4.70
   6   2  18   15.40    2.90
  -6   2 -18   15.70    2.80
   6   2  18   18.10    3.60
   6   2  18   25.60    2.70
   6   2  18   26.70    3.60
  -7  -2 -18   21.70    2.90
   7  -2  18   22.90    3.40
  -7  -2 -18   17.50    3.30
   7  -2  18   23.60    3.90
   7  -2  18   19.10    4.20
  -7   2 -18   20.90    3.20
   7   2  18   24.50    4.50
   7   2  18   36.40    5.40
   7   2  18   27.00    3.50
   7   2  18   23.40    3.70
   7   2  18   29.10    3.80
   8  -2  18   16.10    4.30
   8  -2  18   12.90    3.00
  -8  -2 -18   15.90    2.90
   8  -2  18   17.30    5.00
  -8  -2 -18   11.50    3.00
   8   2  18   14.10    3.60
   8   2  18   12.10    2.90
   8   2  18    8.90    4.40
   8   2  18   15.10    3.10
   8   2  18   14.90    3.20
  -8   2 -18   13.20    3.00
   9  -2  18   -1.90    4.00
   9  -2  18    3.60    2.50
   9  -2  18    6.40    5.30
  -9  -2 -18    4.70    2.50
  -9  -2 -18   -1.00    3.00
  -9   2 -18    1.60    2.20
   9   2  18    2.60    3.10
   9   2  18    1.00    2.70
   9   2  18    8.50    4.40
   9   2  18    0.00    3.30
   9   2  18   -2.80    2.90
 -10  -2 -18   14.50    3.70
  10  -2  18   12.40    3.10
  10  -2  18   15.00    4.80
 -10  -2 -18   10.60    3.00
  10  -2  18   12.90    3.20
  10  -2  18    9.90    5.30
  10   2  18    3.40    3.20
  10   2  18   14.60    6.90
  10   2  18   18.80    3.50
  10   2  18   20.00    3.90
  10   2  18   14.50    3.40
 -10   2 -18   11.20    2.90
 -10  -3  18    2.50    4.50
 -10  -3  18    1.40    4.10
  10  -3 -18    0.60    3.20
  10  -3 -18    0.00    2.10
 -10   3  18   -6.70    4.40
  10   3 -18    2.00    2.60
 -10   3  18    6.30    7.60
  10   3 -18    6.20    3.20
  -9  -3  18    4.40    4.30
   9  -3 -18    7.70    2.70
  -9  -3  18    9.70    4.00
   9   3 -18   10.70    3.10
  -9   3  18   -0.70    5.90
  -9   3  18   14.80    5.70
   9   3 -18    8.30    3.80
   8  -3 -18    4.60    2.20
  -8  -3  18    6.90    3.40
  -8  -3  18    2.20    3.80
   8  -3 -18    8.80    4.00
  -8   3  18    7.40    4.60
   8   3 -18    4.30    2.80
  -8   3  18   18.40    5.40
  -8   3  18    3.20    5.20
   8   3 -18    5.30    2.80
   7  -3 -18    5.20    3.60
   7  -3 -18   -0.10    2.00
  -7  -3  18    1.40    3.40
  -7  -3  18    0.50    2.90
  -7   3  18    2.80    4.40
  -7   3  18    6.00    4.60
   7   3 -18    1.90    2.50
  -7   3  18    1.10    2.70
   6  -3 -18    2.50    3.50
  -6  -3  18    5.70    3.20
   6  -3 -18    0.20    1.90
  -6  -3  18    3.60    2.50
   6   3 -18   -0.60    2.10
  -6   3  18    1.30    4.10
  -6   3  18    3.40    2.40
  -6   3  18    0.80    4.20
  -5  -3  18   84.19    6.90
   5  -3 -18   70.79    5.10
  -5  -3  18   61.99    5.20
  -5   3  18   67.39    7.80
  -5   3  18   79.89    7.90
   5   3 -18   70.19    5.50
  -5   3  18   73.89    4.80
  -4  -3  18   22.20    3.20
  -4  -3  18   29.50    4.30
   4  -3 -18   24.70    3.60
  -4   3  18   26.70    3.70
  -4   3  18   26.00    5.20
   4   3 -18   21.80    3.70
  -4   3  18   21.50    4.20
  -3  -3  18   24.50    4.20
   3  -3 -18   13.60    2.70
  -3  -3  18   21.60    3.00
  -3  -3  18   21.20    2.80
  -3  -3  18   18.00    2.60
  -3   3  18   23.70    4.30
  -3   3  18   18.30    3.20
  -3   3  18   17.00    3.80
   3   3 -18   17.00    3.10
  -2  -3  18   16.80    3.70
  -2  -3  18   16.20    3.00
  -2  -3  18   15.50    1.90
  -2  -3  18   15.10    2.40
   2  -3 -18   15.60    2.90
  -2   3  18   13.10    3.10
  -2   3  18   16.20    3.70
  -2   3  18   20.70    3.70
   2   3 -18   11.00    2.80
  -1  -3  18    3.10    2.40
  -1  -3  18    3.20    1.90
   1  -3 -18    0.50    1.80
  -1  -3  18    2.10    1.30
  -1  -3  18    3.40    3.40
   1   3 -18   -3.00    1.90
  -1   3  18    3.00    2.40
  -1   3  18    2.90    3.40
  -1   3  18   -0.60    3.00
   0  -3  18   24.30    4.40
   0  -3 -18   18.70    3.20
   0  -3  18   13.60    2.80
   0  -3  18   11.60    2.80
   0   3 -18   15.80    3.20
   0   3  18   20.00    4.10
   0   3  18   17.30    4.40
   0   3 -18   23.70    2.90
   0   3  18   19.50    3.40
   1  -3  18    3.90    3.40
   1  -3  18    5.80    2.50
  -1  -3 -18    4.50    2.70
   1  -3  18    2.70    2.30
   1   3  18    5.00    2.70
   1   3  18    1.00    3.40
  -1   3 -18    1.90    2.40
   1   3  18    8.10    3.60
  -1   3 -18    3.50    2.00
  -2  -3 -18    3.80    2.30
  -2  -3 -18    0.30    2.20
   2  -3  18    3.30    2.90
   2  -3  18    2.40    2.20
   2  -3  18    2.50    2.70
   2   3  18    3.40    2.60
  -2   3 -18    5.40    2.20
  -2   3 -18    3.70    2.10
   2   3  18    4.70    3.50
   2   3  18    7.10    3.80
   3  -3  18    2.70    2.80
  -3  -3 -18    2.70    2.40
   3  -3  18    1.90    2.20
   3  -3  18    7.50    3.50
  -3  -3 -18    0.50    2.40
  -3   3 -18    6.80    2.20
   3   3  18    1.60    3.70
   3   3  18    3.80    2.70
   3   3  18    2.00    3.40
  -4  -3 -18    3.10    2.30
   4  -3  18   -0.30    2.20
   4  -3  18    2.60    2.90
  -4  -3 -18    3.10    2.20
   4  -3  18    3.20    3.40
   4   3  18    9.10    3.50
  -4   3 -18    2.60    2.30
   4   3  18    2.30    2.70
   4   3  18    3.20    3.20
   5  -3  18    4.80    2.50
   5  -3  18   -1.80    3.50
   5  -3  18    2.60    3.60
  -5  -3 -18   -0.40    2.60
  -5  -3 -18    0.60    2.30
  -5   3 -18    1.10    2.20
   5   3  18    4.70    3.00
   5   3  18    0.20    3.30
   5   3  18    3.10    3.50
  -6  -3 -18   -2.60    2.60
   6  -3  18   -0.50    2.20
   6  -3  18   -2.90    3.80
   6  -3  18    0.30    3.80
  -6  -3 -18   -2.90    2.10
  -6   3 -18   -0.70    2.20
   6   3  18    0.90    4.10
   6   3  18    1.90    3.70
   6   3  18   -1.50    2.40
  -7  -3 -18   11.20    2.90
   7  -3  18    2.00    4.10
   7  -3  18    9.20    2.80
   7  -3  18    0.60    4.40
  -7   3 -18    3.40    2.10
   7   3  18    9.30    4.40
   7   3  18    6.70    3.40
   7   3  18   13.00    4.80
   8  -3  18   -3.20    2.70
  -8  -3 -18   -0.30    2.50
   8  -3  18    7.80    5.20
  -8  -3 -18    0.30    3.10
   8  -3  18   -1.20    4.50
   8   3  18   -2.70    4.50
   8   3  18   -4.10    4.60
   8   3  18    0.70    3.20
   8   3  18    2.80    3.00
   8   3  18    3.60    6.90
  -8   3 -18    1.00    2.30
  -7  -4  18   -0.90    2.80
  -7  -4  18   -3.90    4.80
   7  -4 -18   -4.00    4.10
   7  -4 -18   -0.10    2.20
  -7   4  18    3.80    7.60
   7   4 -18   -4.90    2.40
  -7   4  18   13.10    6.70
   6  -4 -18   -1.50    5.90
  -6  -4  18   -5.80    4.40
   6  -4 -18    1.10    2.40
  -6  -4  18    1.30    2.70
  -6   4  18   -0.80    3.00
   6   4 -18   -0.30    2.60
  -6   4  18   -5.20    5.00
  -6   4  18   -8.60    5.00
  -5  -4  18   24.90    3.00
  -5  -4  18   28.20    5.50
   5  -4 -18   18.30    4.90
   5  -4 -18   19.80    3.50
  -5  -4  18   25.40    3.30
  -5   4  18   24.50    3.60
  -5   4  18   15.90    5.20
  -5   4  18   21.90    5.70
   5   4 -18   25.10    4.10
  -4  -4  18    1.90    2.20
   4  -4 -18   -2.40    4.60
   4  -4 -18    3.20    2.30
  -4  -4  18    2.40    4.10
  -4  -4  18    2.50    2.80
   4   4 -18   -3.10    2.30
  -4   4  18    8.10    4.50
  -4   4  18    4.10    4.80
  -4   4  18   -0.40    2.70
   3  -4 -18   30.00    5.80
  -3  -4  18   37.50    4.10
  -3  -4  18   31.70    3.60
  -3  -4  18   39.10    5.60
   3  -4 -18   32.70    4.00
  -3   4  18   23.40    5.40
  -3   4  18   25.20    5.30
  -3   4  18   31.40    4.00
   3   4 -18   34.30    4.50
   2  -4 -18   29.20    3.80
  -2  -4  18   22.80    5.10
  -2  -4  18   30.40    3.40
   2  -4 -18   24.90    4.90
  -2  -4  18   32.40    3.80
  -2   4  18   24.50    5.80
  -2   4  18   23.30    5.20
   2   4 -18   28.20    4.60
  -2   4  18   27.60    4.10
   1  -4 -18   45.40    5.80
  -1  -4  18   48.70    5.30
  -1  -4  18   37.10    5.70
  -1  -4  18   35.70    4.10
   1  -4 -18   34.10    4.20
  -1   4  18   41.90    6.40
   1   4 -18   37.90    4.60
  -1   4  18   41.70    4.70
  -1   4  18   40.90    6.10
   0  -4 -18    3.20    2.70
   0  -4  18    5.00    4.50
   0  -4  18    1.30    2.60
   0  -4  18    3.90    2.70
   0   4  18   -0.80    5.20
   0   4  18    3.50    2.60
   0   4 -18    0.60    2.80
   0   4  18   -4.20    4.00
   1  -4  18   11.70    2.90
   1  -4  18   12.40    3.20
   1  -4  18   11.30    4.70
  -1  -4 -18    9.90    2.80
   1   4  18   10.40    4.60
   1   4  18    6.20    4.60
  -1   4 -18    8.10    3.10
   1   4  18   13.20    3.50
   2  -4  18   15.90    3.80
  -2  -4 -18   21.50    3.90
   2  -4  18   13.60    4.70
   2  -4  18   16.00    3.50
  -2   4 -18   15.60    3.20
  -2   4 -18   21.50    2.90
   2   4  18   20.30    3.70
   2   4  18   17.90    5.40
   2   4  18   26.40    5.50
   3  -4  18    0.70    4.80
   3  -4  18   -3.40    2.40
   3  -4  18    8.10    3.70
  -3  -4 -18    1.40    2.60
  -3   4 -18   -3.50    2.40
   3   4  18    4.80    4.40
   3   4  18   -1.10    4.30
   3   4  18   -3.60    2.40
  -3   4 -18   -0.10    2.60
   4  -4  18   27.70    5.80
  -4  -4 -18   21.80    3.80
   4  -4  18   23.60    4.00
   4  -4  18   17.90    3.70
  -4  -4 -18   12.20    3.50
   4   4  18   15.10    4.90
  -4   4 -18   21.40    3.20
   4   4  18   15.40    3.60
   4   4  18   17.10    5.30
  -5  -4 -18   23.50    4.00
  -5  -4 -18   37.80    4.90
   5  -4  18   27.10    7.50
   5  -4  18   25.50    4.10
   5  -4  18   39.40    5.40
  -5   4 -18   28.50    3.50
   5   4  18   38.90    5.10
   5   4  18   35.40    6.00
   5   4  18   20.90    5.30
 -12   0  19    2.00    3.60
  12   0 -19   -4.00    2.90
 -12   0  19   -4.70    6.20
  12   0 -19    2.70    2.40
 -12   0  19   -1.50    4.70
 -11   0  19  132.99    9.70
 -11   0  19  117.29    8.30
  11   0 -19  122.09    7.30
 -11   0  19  129.09   12.00
  11   0 -19  123.89    6.90
  10   0 -19    1.70    3.10
 -10   0  19    0.90    5.00
 -10   0  19    5.40    3.70
  10   0 -19    3.20    2.20
   9   0 -19   -1.40    2.00
   9   0 -19    1.90    2.50
  -9   0  19    0.60    3.90
  -9   0  19   -6.40    3.00
   8   0 -19   -2.00    2.00
  -8   0  19    5.10    3.90
   8   0 -19    2.20    2.20
  -8   0  19   -1.00    2.70
  -7   0  19   16.90    3.20
  -7   0  19   22.30    4.70
   7   0 -19   20.60    2.90
   7   0 -19   20.90    3.10
   6   0 -19    2.00    1.90
  -6   0  19    2.30    2.80
  -6   0  19   -2.20    2.10
   6   0 -19   -0.90    1.90
   5   0 -19   19.90    2.70
  -5   0  19   23.20    3.20
  -5   0  19   26.80    4.10
  -4   0  19    1.00    2.70
  -4   0  19   -2.90    2.20
   4   0 -19   -0.70    1.40
  -4   0  19    0.20    1.80
   3   0 -19  252.27    8.90
  -3   0  19  251.17    9.80
  -3   0  19  247.88   11.20
  -3   0  19  249.08   10.50
  -2   0  19   -0.80    1.90
   2   0 -19    0.60    1.50
  -2   0  19    1.30    2.20
  -2   0  19    0.80    1.90
   1   0 -19    5.30    2.00
  -1   0  19    3.80    1.70
  -1   0  19    2.00    2.10
   1   0 -19    5.70    1.50
  -1   0  19    3.80    1.70
  -1   0  19    0.90    2.50
   0   0 -19   -0.10    1.20
   0   0 -19    2.10    1.70
   0   0  19    0.00    1.30
   0   0  19    0.10    2.30
   0   0  19    0.50    2.00
   0   0  19    3.30    1.60
  -1   0 -19   80.19    5.20
   1   0  19   81.29    6.10
   1   0  19   73.89    5.40
   1   0  19   81.39    4.10
   1   0  19   72.39    3.90
  -1   0 -19   75.39    3.40
  -2   0 -19   -3.60    1.70
   2   0  19   -0.40    1.60
  -2   0 -19    0.50    1.20
   2   0  19   -3.30    2.40
   2   0  19    0.50    1.90
   2   0  19    0.40    1.10
   3   0  19  103.39    4.80
  -3   0 -19   95.19    5.80
   3   0  19  100.29    7.00
  -3   0 -19  107.09    3.70
   3   0  19  105.99    6.30
  -4   0 -19    0.90    1.90
   4   0  19    1.70    1.90
   4   0  19    2.90    2.30
   4   0  19    1.70    2.90
  -5   0 -19   41.50    4.10
   5   0  19   45.70    4.40
   5   0  19   42.50    3.50
   5   0  19   48.60    4.80
   5   0  19   42.50    5.70
   6   0  19   -0.10    2.60
   6   0  19   -1.40    2.90
   6   0  19    1.90    1.90
   6   0  19    4.30    2.20
  -6   0 -19    2.00    2.10
  -7   0 -19   74.49    5.40
   7   0  19   77.59    7.50
   7   0  19   81.69    6.30
   7   0  19   81.09    4.90
   7   0  19   81.49    5.60
   8   0  19    0.10    2.40
   8   0  19    1.70    2.30
   8   0  19   -1.10    2.60
   8   0  19    0.60    3.60
  -8   0 -19    3.80    2.40
  -9   0 -19   12.50    3.30
   9   0  19   12.20    2.90
   9   0  19   10.60    3.10
   9   0  19   16.20    5.50
   9   0  19   12.80    3.50
  10   0  19    2.70    2.90
  10   0  19   -0.10    3.70
 -10   0 -19    1.90    2.40
  10   0  19    7.70    5.10
  10   0  19   -0.90    2.40
 -10   0 -19   -1.00    2.00
 -12  -1  19   37.50    7.10
 -12  -1  19   24.10    5.70
  12  -1 -19   23.50    4.10
  12  -1 -19   27.70    4.30
 -12  -1  19   28.90    4.40
 -12   1  19    5.40    9.10
  12   1 -19   25.40    3.70
  12   1 -19   24.80    4.40
 -12   1  19   22.60    6.50
  12   1 -19   34.90    4.70
 -11  -1  19    6.70    4.30
 -11  -1  19   -2.60    4.80
  11  -1 -19   -1.20    3.10
 -11  -1  19    1.00    3.30
  11  -1 -19   -0.40    2.40
  11   1 -19   -0.80    2.20
  11   1 -19    1.40    2.70
  11   1 -19    5.40    2.90
 -11   1  19    0.40    5.10
 -11   1  19   18.10    6.40
  10  -1 -19   25.00    3.60
 -10  -1  19   35.10    5.80
 -10  -1  19   36.20    5.40
 -10  -1  19   31.90    5.20
  10  -1 -19   31.90    4.20
  10   1 -19   30.60    4.10
  10   1 -19   29.60    3.80
  10   1 -19   21.80    3.90
 -10   1  19   23.70    5.70
 -10   1  19   22.60    5.90
   9  -1 -19    2.20    2.60
  -9  -1  19    7.90    3.10
   9  -1 -19    6.30    2.20
  -9  -1  19   -0.30    2.60
  -9  -1  19   -4.10    3.60
  -9   1  19    2.90    3.70
   9   1 -19   -1.20    2.60
  -9   1  19   -7.10    4.10
   9   1 -19   -0.50    2.40
   9   1 -19   -0.10    1.80
   8  -1 -19    3.40    2.70
  -8  -1  19   14.60    3.00
  -8  -1  19   10.20    3.10
   8  -1 -19    6.70    2.20
  -8  -1  19    2.90    3.50
  -8   1  19    9.20    4.60
   8   1 -19    9.10    2.60
  -8   1  19    5.50    3.40
   8   1 -19    7.70    2.70
   8   1 -19    9.30    2.30
  -7  -1  19   33.50    4.60
   7  -1 -19   38.90    3.70
  -7  -1  19   36.50    4.60
  -7  -1  19   42.20    5.10
   7  -1 -19   36.60    3.50
  -7   1  19   45.60    6.80
   7   1 -19   41.50    4.00
   7   1 -19   42.30    3.70
  -7   1  19   35.70    5.80
   7   1 -19   43.70    4.10
  -6  -1  19  226.48    9.70
   6  -1 -19  232.08    8.10
  -6  -1  19  216.88   10.60
   6  -1 -19  208.98    9.00
  -6  -1  19  222.98    9.80
   6   1 -19  211.68    9.30
   6   1 -19  223.08    9.40
  -6   1  19  223.58   10.50
  -6   1  19  226.18   11.50
   6   1 -19  219.28    8.50
   5  -1 -19   32.10    3.30
  -5  -1  19   30.60    4.20
  -5  -1  19   38.60    5.20
  -5  -1  19   39.60    4.30
   5   1 -19   32.90    3.70
   5   1 -19   31.90    3.10
  -5   1  19   27.30    4.40
  -5   1  19   39.30    4.80
   4  -1 -19   62.89    4.10
  -4  -1  19   61.89    5.30
  -4  -1  19   62.39    4.50
  -4  -1  19   61.79    5.70
  -4   1  19   69.29    6.60
  -4   1  19   62.49    5.40
   4   1 -19   63.59    3.60
   4   1 -19   65.79    4.70
  -3  -1  19   -1.30    2.00
  -3  -1  19   -1.60    2.40
  -3  -1  19    2.30    1.60
   3  -1 -19    3.70    1.60
   3   1 -19    1.20    1.40
  -3   1  19    3.40    3.30
  -3   1  19   -0.10    1.50
  -3   1  19    2.40    2.00
  -2  -1  19    3.30    2.10
   2  -1 -19    4.10    1.70
  -2  -1  19    2.70    2.50
   2   1 -19    5.00    1.40
  -2   1  19    2.40    2.60
  -2   1  19    3.10    2.00
  -1  -1  19   62.39    5.00
   1  -1 -19   65.39    3.80
  -1  -1  19   57.29    5.50
  -1  -1  19   66.19    3.50
   1   1 -19   65.79    2.90
  -1   1  19   65.79    5.90
   1   1 -19   65.19    4.50
  -1   1  19   59.59    4.60
   0  -1 -19   31.10    3.70
   0  -1  19   32.80    4.20
   0  -1  19   28.40    3.00
   0  -1 -19   33.50    2.80
   0  -1  19   30.50    3.90
   0   1  19   24.50    3.30
   0   1 -19   25.90    3.10
   0   1  19   30.30    4.70
   0   1  19   30.70    3.70
   1  -1  19    5.50    2.60
   1  -1  19   10.60    2.60
  -1  -1 -19    8.90    2.20
   1  -1  19    5.00    2.10
  -1  -1 -19   11.10    1.90
   1   1  19   10.50    2.60
  -1   1 -19    8.20    2.30
   1   1  19    9.60    2.30
   1   1  19    4.80    2.90
  -2  -1 -19    1.40    1.70
  -2  -1 -19    4.90    2.20
   2  -1  19    6.60    2.90
   2  -1  19    3.60    2.40
   2  -1  19    5.20    2.00
   2   1  19    6.20    2.20
  -2   1 -19    0.70    1.70
   2   1  19    4.10    3.10
   2   1  19    4.30    1.40
   2   1  19    5.60    2.40
   3  -1  19  383.86   13.70
   3  -1  19  418.36   15.70
   3  -1  19  401.66   15.20
  -3  -1 -19  419.96   13.30
  -3  -1 -19  400.36   15.30
   3   1  19  406.06   13.80
   3   1  19  421.96   15.00
   3   1  19  391.66   14.90
   3   1  19  414.16   16.20
  -3   1 -19  377.16   14.60
   3   1  19  411.06   12.40
  -4  -1 -19    1.70    2.30
   4  -1  19    1.10    2.20
   4  -1  19   -1.00    2.90
  -4  -1 -19    1.10    1.80
   4  -1  19   -1.80    1.90
   4   1  19    1.50    2.70
   4   1  19    1.40    2.00
   4   1  19    0.60    2.10
   4   1  19   -0.70    1.70
   4   1  19    0.70    1.70
  -4   1 -19    0.00    1.80
  -5  -1 -19   86.69    4.30
  -5  -1 -19   76.49    5.40
   5  -1  19   87.69    6.70
   5  -1  19   81.99    4.80
   5  -1  19   84.09    6.20
   5   1  19   87.39    6.20
   5   1  19   81.09    4.30
   5   1  19   86.99    7.30
   5   1  19   84.79    4.70
  -5   1 -19   80.89    5.40
   5   1  19   81.09    5.70
  -6  -1 -19   25.00    4.10
  -6  -1 -19   29.50    3.30
   6  -1  19   27.80    4.20
   6  -1  19   28.30    3.50
   6  -1  19   23.90    4.00
   6   1  19   26.40    3.30
   6   1  19   25.40    4.90
   6   1  19   25.70    4.20
   6   1  19   27.80    3.30
  -6   1 -19   30.30    3.90
   6   1  19   36.20    4.80
   7  -1  19   -1.10    3.60
   7  -1  19   -0.60    2.20
  -7  -1 -19   -0.90    2.20
   7  -1  19    2.70    2.80
   7  -1  19   -0.90    2.10
  -7  -1 -19    1.60    2.00
   7   1  19   -0.50    2.70
   7   1  19    2.40    2.20
   7   1  19    5.90    2.40
  -7   1 -19    2.10    1.90
   7   1  19    4.60    3.20
   7   1  19    1.20    2.00
  -8  -1 -19   33.20    4.50
   8  -1  19   39.40    6.40
  -8  -1 -19   42.40    3.70
   8  -1  19   38.70    5.00
   8  -1  19   38.50    4.50
   8  -1  19   32.30    4.10
   8   1  19   41.50    4.00
   8   1  19   43.50    5.30
   8   1  19   32.00    4.30
  -8   1 -19   32.60    4.00
   8   1  19   33.90    4.00
   8   1  19   32.50    5.40
  -9  -1 -19   15.60    2.70
   9  -1  19   13.30    2.80
   9  -1  19   14.80    2.80
   9  -1  19   11.70    4.30
   9  -1  19   24.60    5.40
  -9  -1 -19    9.10    3.40
   9   1  19   15.10    4.80
   9   1  19   17.20    3.70
  -9   1 -19   13.40    2.70
   9   1  19   13.60    3.60
   9   1  19   16.50    2.90
  10  -1  19   43.50    7.10
  10  -1  19   42.30    4.60
  10  -1  19   60.79    7.80
 -10  -1 -19   51.09    5.20
  10  -1  19   51.59    5.00
 -10  -1 -19   50.39    4.50
 -10   1 -19   48.30    5.10
  10   1  19   51.69    4.90
  10   1  19   46.20    5.20
  10   1  19   42.80    8.70
  10   1  19   47.20    5.90
 -11  -2  19    9.50    5.40
 -11  -2  19   13.50    3.70
 -11  -2  19   14.70    5.10
  11  -2 -19    6.70    2.70
  11  -2 -19   20.50    4.30
  11   2 -19   14.00    3.40
 -11   2  19    0.50    4.50
  11   2 -19   13.60    3.80
 -11   2  19   12.50    7.70
  10  -2 -19    6.90    2.70
 -10  -2  19    6.90    3.50
  10  -2 -19    9.10    3.00
 -10  -2  19   18.30    4.80
 -10  -2  19   11.80    4.20
 -10   2  19    0.70    6.00
  10   2 -19    3.10    2.90
 -10   2  19   18.60    5.40
  10   2 -19    9.90    3.10
   9  -2 -19   63.49    4.90
   9  -2 -19   56.59    4.70
  -9  -2  19   44.40    7.20
  -9  -2  19   59.09    7.00
  -9  -2  19   62.19    6.10
  -9   2  19   58.59    8.50
  -9   2  19   55.79    4.40
   9   2 -19   55.69    5.10
   9   2 -19   56.09    5.30
  -9   2  19   57.09    7.40
   8  -2 -19   -1.70    2.10
  -8  -2  19    3.40    3.20
  -8  -2  19    3.40    3.40
  -8  -2  19    1.10    2.90
   8  -2 -19    3.90    2.60
  -8   2  19    3.90    4.20
  -8   2  19   -1.30    4.70
   8   2 -19    1.10    2.60
   8   2 -19    1.50    2.20
  -8   2  19   -2.60    2.40
   7  -2 -19   11.50    2.50
  -7  -2  19    1.30    3.10
   7  -2 -19    0.80    2.20
  -7  -2  19    4.80    2.80
  -7  -2  19    3.40    2.70
   7   2 -19    6.50    3.00
  -7   2  19    8.70    4.50
  -7   2  19    5.90    2.40
  -7   2  19    1.80    3.70
   7   2 -19    6.30    2.70
   6  -2 -19   11.40    2.40
  -6  -2  19   10.20    2.70
  -6  -2  19    7.20    2.90
  -6  -2  19   10.20    3.20
  -6   2  19   14.50    2.60
  -6   2  19    3.10    3.80
  -6   2  19   13.60    4.20
   6   2 -19   11.60    2.30
   5  -2 -19    3.40    1.70
  -5  -2  19   -2.20    2.50
  -5  -2  19    0.20    2.10
  -5  -2  19    2.10    2.50
  -5   2  19   -5.20    3.10
   5   2 -19    2.20    2.00
  -5   2  19   -1.90    1.90
  -5   2  19   -1.90    2.90
  -4  -2  19   54.39    4.40
  -4  -2  19   57.39    5.50
  -4  -2  19   55.69    5.30
   4  -2 -19   63.59    4.30
  -4   2  19   58.89    6.20
  -4   2  19   56.89    4.30
   4   2 -19   58.59    4.70
  -4   2  19   59.49    7.00
  -3  -2  19   39.40    4.80
  -3  -2  19   24.20    3.60
  -3  -2  19   38.70    3.40
   3  -2 -19   39.20    3.60
  -3   2  19   40.10    6.30
  -3   2  19   30.60    3.90
  -3   2  19   34.90    5.30
   3   2 -19   28.00    3.70
   2  -2 -19  111.09    5.80
  -2  -2  19  108.39    7.10
  -2  -2  19  122.69    6.90
  -2  -2  19  124.99    5.20
  -2   2  19  123.69    8.20
  -2   2  19  129.69    7.40
   2   2 -19  114.39    6.60
  -2   2  19  120.49    6.30
   1  -2 -19    3.10    1.80
  -1  -2  19    6.00    2.60
  -1  -2  19    5.20    2.40
  -1   2  19    5.20    3.10
  -1   2  19    3.60    2.30
   1   2 -19    3.00    1.70
  -1   2  19    8.10    2.30
   0  -2  19    6.30    2.20
   0  -2  19    9.50    2.80
   0  -2  19    7.20    2.60
   0  -2 -19    8.70    2.10
   0   2 -19    2.40    2.10
   0   2  19    0.40    2.80
   0   2  19    5.60    2.80
   0   2 -19    8.70    2.20
   0   2  19    3.80    2.20
   1  -2  19    3.40    2.10
   1  -2  19    2.00    2.50
  -1  -2 -19    1.50    2.20
  -1  -2 -19   -1.50    1.70
   1  -2  19    3.30    2.60
   1   2  19   -3.50    2.80
  -1   2 -19    0.10    1.90
   1   2  19    0.50    2.30
   1   2  19    1.50    3.00
   2  -2  19    2.20    2.50
  -2  -2 -19    6.20    2.10
  -2  -2 -19    6.10    1.90
   2  -2  19    2.00    2.10
   2  -2  19    1.10    2.60
   2   2  19    2.60    3.20
   2   2  19    4.60    2.90
   2   2  19    2.90    2.10
  -2   2 -19    5.10    2.00
  -3  -2 -19   75.19    5.60
  -3  -2 -19   73.99    4.60
   3  -2  19   88.99    6.50
   3  -2  19   77.89    5.10
   3  -2  19   80.49    6.10
   3   2  19   69.49    5.30
   3   2  19   83.69    6.00
   3   2  19   80.59    7.20
  -3   2 -19   76.69    5.00
   4  -2  19  112.29    6.20
  -4  -2 -19  112.09    6.80
   4  -2  19  120.19    7.70
  -4  -2 -19  120.49    6.00
   4  -2  19  126.29    7.40
  -4   2 -19  107.99    6.30
   4   2  19  108.49    6.60
   4   2  19  119.19    6.80
   4   2  19  112.09    8.10
   5  -2  19   -0.40    3.00
  -5  -2 -19    1.60    2.30
   5  -2  19    3.80    3.10
   5  -2  19    2.00    2.50
  -5  -2 -19    2.20    2.00
   5   2  19    4.60    2.70
  -5   2 -19    2.40    2.20
   5   2  19    3.50    2.20
   5   2  19    1.80    3.20
   6  -2  19    0.90    2.20
  -6  -2 -19    4.70    2.30
  -6  -2 -19   -1.60    2.00
   6  -2  19    0.10    3.50
   6  -2  19    0.20    4.30
   6   2  19   -0.90    3.50
   6   2  19    6.10    2.70
  -6   2 -19   -1.40    2.30
   6   2  19    5.80    3.00
   6   2  19    3.40    3.00
   6   2  19    6.60    2.50
  -7  -2 -19   14.90    3.60
   7  -2  19   29.70    4.90
  -7  -2 -19   19.90    3.20
   7  -2  19   15.00    3.70
   7  -2  19   12.90    3.10
   7   2  19   21.20    3.00
   7   2  19   21.70    4.50
   7   2  19   17.30    3.30
   7   2  19   22.70    3.80
   7   2  19   13.40    3.50
  -7   2 -19   14.40    2.70
   8  -2  19   -8.10    4.30
   8  -2  19   -0.50    4.00
  -8  -2 -19   -3.60    2.10
  -8  -2 -19    1.80    2.60
   8  -2  19   -0.20    2.20
  -8   2 -19    0.70    2.20
   8   2  19   -2.90    3.00
   8   2  19    0.10    3.20
   8   2  19   -8.90    4.30
   8   2  19    0.30    2.70
   8   2  19    5.00    3.00
   9  -2  19    7.70    4.80
   9  -2  19   -1.70    2.10
  -9  -2 -19   -1.40    2.70
  -9  -2 -19    7.50    2.60
   9  -2  19    0.50    2.70
   9  -2  19    2.00    4.50
  -9   2 -19   -0.50    2.30
   9   2  19   -2.40    3.30
   9   2  19    4.00    3.10
   9   2  19    1.70    2.60
   9   2  19    5.50    5.00
   9   2  19    6.10    3.30
  -9  -3  19   -3.70    4.50
  -9  -3  19    6.30    4.20
  -9  -3  19    5.40    3.90
   9  -3 -19    1.30    2.60
   9   3 -19    2.10    3.10
  -9   3  19   -2.90    6.50
  -9   3  19    7.20    7.50
   9   3 -19    1.70    2.80
  -8  -3  19   10.10    4.00
  -8  -3  19    7.30    4.10
   8  -3 -19    3.60    2.40
  -8  -3  19    6.80    3.70
  -8   3  19    5.00    4.50
   8   3 -19    1.10    2.90
  -8   3  19    6.10    5.20
  -8   3  19    0.30    5.40
  -7  -3  19   19.60    3.90
  -7  -3  19   19.50    4.00
  -7  -3  19   16.30    3.70
   7  -3 -19   15.10    3.00
  -7   3  19    6.40    4.90
  -7   3  19   22.60    5.50
  -7   3  19   25.60    3.60
   7   3 -19   20.30    3.80
   6  -3 -19    9.30    2.50
  -6  -3  19   11.90    3.40
  -6  -3  19    9.90    4.00
  -6  -3  19    7.70    3.30
   6   3 -19    7.30    2.60
  -6   3  19    9.80    3.10
  -6   3  19    6.30    4.40
  -6   3  19   10.50    5.00
   5  -3 -19   18.40    3.20
  -5  -3  19   18.30    3.50
  -5  -3  19   14.90    4.00
  -5  -3  19   29.20    4.70
  -5   3  19   16.00    5.30
  -5   3  19   23.60    3.40
   5   3 -19   21.40    3.40
  -5   3  19   21.70    5.10
  -4  -3  19    4.00    3.40
  -4  -3  19   -0.70    2.20
  -4  -3  19    2.70    2.70
  -4  -3  19    4.00    2.20
   4  -3 -19    1.80    2.20
   4   3 -19   -1.30    2.00
  -4   3  19   -1.60    3.60
  -4   3  19    3.40    2.60
  -4   3  19   -1.00    3.90
  -3  -3  19    5.60    3.80
  -3  -3  19    4.60    2.20
  -3  -3  19    5.00    2.10
  -3  -3  19    6.80    2.60
   3  -3 -19    2.70    2.10
   3   3 -19    3.30    2.30
  -3   3  19    2.90    3.50
  -3   3  19    1.90    2.60
  -3   3  19    1.80    3.90
   2  -3 -19   30.30    3.80
  -2  -3  19   42.00    6.20
  -2  -3  19   29.20    3.30
  -2  -3  19   30.90    3.50
  -2  -3  19   43.40    4.80
  -2   3  19   32.40    4.20
  -2   3  19   37.50    5.60
   2   3 -19   32.60    4.00
  -2   3  19   47.70    6.20
  -1  -3  19    7.50    2.60
  -1  -3  19    5.20    3.60
   1  -3 -19    3.20    1.90
  -1   3  19   10.30    4.00
   1   3 -19    7.50    2.80
  -1   3  19    5.10    3.20
  -1   3  19    5.20    2.90
   0  -3 -19   70.39    4.90
   0  -3  19   76.09    7.50
   0  -3  19   59.89    5.40
   0  -3  19   62.29    5.00
   0   3  19   72.99    7.20
   0   3 -19   67.89    5.40
   0   3  19   64.49    5.30
   0   3  19   61.69    7.30
   0   3 -19   65.29    4.50
   1  -3  19    8.10    3.70
   1  -3  19    6.00    2.40
   1  -3  19    8.10    2.90
  -1  -3 -19    5.50    2.50
   1   3  19    7.70    4.00
   1   3  19    0.20    4.00
   1   3  19    9.40    3.00
  -1   3 -19    5.80    2.00
  -1   3 -19    3.70    2.50
   2  -3  19   -1.70    4.00
   2  -3  19    0.80    2.30
  -2  -3 -19   -0.70    2.10
   2  -3  19    2.80    3.00
  -2  -3 -19    0.50    2.00
  -2   3 -19    0.30    1.90
   2   3  19   -2.40    3.50
   2   3  19   -0.60    2.50
   2   3  19    4.50    4.00
  -2   3 -19    0.80    2.10
  -3  -3 -19   12.90    2.90
  -3  -3 -19   15.30    3.20
   3  -3  19   13.50    2.60
   3  -3  19   17.70    4.20
   3  -3  19   17.80    4.30
   3   3  19   17.70    3.70
  -3   3 -19   21.70    3.20
   3   3  19   24.00    4.40
   3   3  19   18.30    4.40
   4  -3  19    0.10    3.40
  -4  -3 -19   -1.20    2.20
   4  -3  19    0.00    3.40
  -4  -3 -19   -0.20    2.20
   4  -3  19   -2.20    2.30
   4   3  19   -1.80    2.50
   4   3  19    1.90    3.70
   4   3  19   -1.50    3.40
  -4   3 -19    2.30    2.40
   5  -3  19    7.60    4.20
   5  -3  19    4.10    2.30
  -5  -3 -19    4.60    2.60
  -5  -3 -19    4.90    2.60
   5  -3  19    2.00    3.80
   5   3  19    2.20    4.00
   5   3  19    5.40    2.80
  -5   3 -19    7.70    2.60
   5   3  19    6.40    3.60
  -6  -3 -19    1.30    2.50
   6  -3  19    2.20    4.20
   6  -3  19    1.20    2.70
  -6  -3 -19   -0.60    2.90
   6  -3  19    5.60    4.30
   6   3  19   -4.70    3.80
   6   3  19    1.50    4.00
  -6   3 -19    6.00    2.50
   7  -3  19    0.30    4.50
  -7  -3 -19    5.50    2.80
   7  -3  19    1.30    4.90
   7  -3  19    7.10    2.80
  -7  -3 -19    3.60    2.70
   7   3  19    8.10    3.10
   7   3  19   12.50    5.10
   7   3  19    2.50    4.40
  -7   3 -19    0.70    2.50
   8   3  19    9.90    4.00
  -6  -4  19    1.90    6.10
  -6  -4  19   22.80    5.30
   6  -4 -19    3.60    3.00
  -6  -4  19    7.90    3.10
  -6   4  19   10.70    9.00
  -6   4  19    7.40    7.90
  -6   4  19    4.80    3.30
   6   4 -19    5.80    3.10
  -5  -4  19   -1.30    2.50
  -5  -4  19   -0.40    2.80
   5  -4 -19    1.60    2.40
  -5  -4  19    0.60    4.70
   5  -4 -19    1.50    5.60
  -5   4  19   -4.70    5.40
  -5   4  19    3.70    3.00
  -5   4  19    5.90    5.20
   5   4 -19   -1.10    3.00
   4  -4 -19   17.30    3.10
  -4  -4  19   25.80    3.60
   4  -4 -19   23.80    6.30
  -4  -4  19   18.20    2.70
  -4  -4  19   10.80    4.80
  -4   4  19   22.60    5.30
  -4   4  19   19.60    3.80
   4   4 -19   15.60    3.50
  -4   4  19    9.40    6.00
  -3  -4  19   43.00    4.50
   3  -4 -19   42.60    4.80
   3  -4 -19   42.50    6.20
  -3  -4  19   44.50    4.90
  -3  -4  19   44.30    6.20
  -3   4  19   40.90    5.00
  -3   4  19   42.50    6.80
  -3   4  19   68.09    9.00
   3   4 -19   47.10    5.10
  -2  -4  19   14.40    4.20
   2  -4 -19   15.00    2.80
  -2  -4  19   13.60    2.90
  -2  -4  19   14.40    5.10
  -2   4  19   15.50    3.70
   2   4 -19   15.00    3.40
  -2   4  19   19.70    5.80
  -2   4  19   12.10    5.50
   1  -4 -19   58.99    5.20
  -1  -4  19   60.19    8.20
  -1  -4  19   64.89    4.00
  -1  -4  19   69.09    5.10
  -1   4  19   63.09    9.80
  -1   4  19   71.49    9.20
   1   4 -19   55.89    5.70
  -1   4  19   58.69    5.30
   0  -4  19   55.19    5.20
   0  -4  19   50.79    5.40
   0  -4 -19   54.29    5.20
   0  -4  19   46.30    6.60
   0   4  19   55.69    5.20
   0   4  19   58.59    9.60
   0   4  19   61.69    8.50
   0   4 -19   56.19    5.40
   1  -4  19    1.60    2.70
   1  -4  19   -1.70    3.30
   1  -4  19    7.90    5.20
  -1  -4 -19   -1.20    2.40
   1   4  19   -2.10    2.60
  -1   4 -19    0.10    2.60
   1   4  19    5.10    5.20
   1   4  19   -1.90    5.10
   2  -4  19   -7.30    3.40
  -2  -4 -19    5.50    2.50
   2  -4  19    1.90    2.50
   2  -4  19   10.50    5.00
  -2   4 -19    2.60    2.70
   2   4  19   -3.70    5.00
  -2   4 -19    0.00    2.40
   2   4  19    1.90    2.60
   2   4  19   -3.80    5.80
   3  -4  19    1.50    3.90
   3  -4  19    9.30    6.50
  -3  -4 -19    2.00    2.50
   3  -4  19   -4.10    2.30
  -3   4 -19   -3.50    2.60
  -3   4 -19    2.90    2.70
   3   4  19    0.40    5.10
   3   4  19   -3.40    2.50
   3   4  19   -1.00    4.60
   4  -4  19   -3.90    4.20
   4  -4  19    3.40    3.10
  -4  -4 -19   -0.40    2.90
   4  -4  19    7.10    4.10
  -4  -4 -19    0.30    2.60
   4   4  19   11.30    5.40
   4   4  19    7.40    3.40
   4   4  19   -1.40    5.00
  -4   4 -19    5.80    2.80
  11   0 -20    3.30    3.20
  11   0 -20    5.90    2.70
 -11   0  20   -3.00    3.80
 -11   0  20    2.10    5.60
 -11   0  20   -2.60    4.30
 -10   0  20   86.29    8.40
 -10   0  20   90.99    7.40
  10   0 -20   95.89    6.00
 -10   0  20   99.19   10.50
  10   0 -20   91.59    6.20
   9   0 -20    4.00    2.70
  -9   0  20    2.50    3.30
   9   0 -20   -3.60    2.00
  -9   0  20    2.00    4.50
  -9   0  20   -0.70    3.40
   8   0 -20   46.80    4.40
  -8   0  20   47.10    7.30
  -8   0  20   53.89    6.10
   8   0 -20   50.79    4.20
  -8   0  20   42.60    5.40
   7   0 -20   -1.60    2.30
  -7   0  20    0.60    2.80
   7   0 -20   -2.80    1.70
  -7   0  20    2.20    2.80
  -7   0  20   -1.50    3.30
   6   0 -20    2.90    2.00
  -6   0  20    3.50    3.30
  -6   0  20    2.80    2.70
  -6   0  20    4.60    2.50
   5   0 -20    0.30    1.70
  -5   0  20    1.90    2.40
  -5   0  20   -3.20    2.80
  -5   0  20   -3.40    2.30
  -4   0  20   28.90    4.10
   4   0 -20   22.40    2.80
  -4   0  20   24.20    3.40
  -4   0  20   17.30    3.20
  -3   0  20    0.90    2.20
  -3   0  20   -0.20    2.20
   3   0 -20   -2.40    1.30
  -3   0  20   -5.80    2.50
  -2   0  20   46.40    3.50
  -2   0  20   58.29    6.00
  -2   0  20   54.49    5.10
  -2   0  20   49.50    4.20
   2   0 -20   54.19    3.40
   1   0 -20    1.10    2.00
   1   0 -20   -3.10    1.40
  -1   0  20    0.90    2.20
  -1   0  20   -0.70    1.80
  -1   0  20   -3.00    2.40
  -1   0  20   -1.00    1.60
   0   0  20   -1.20    2.10
   0   0  20   -1.20    1.80
   0   0 -20    0.90    1.50
   0   0  20    1.80    1.60
   0   0  20    4.50    3.10
   0   0 -20    2.20    1.90
   1   0  20    1.10    2.10
   1   0  20    1.00    1.50
  -1   0 -20    0.70    2.00
   1   0  20    3.20    2.90
  -1   0 -20   -0.80    1.30
   1   0  20   -2.00    1.80
  -2   0 -20   40.00    4.10
   2   0  20   38.60    3.20
   2   0  20   33.10    5.30
   2   0  20   45.00    4.60
  -2   0 -20   40.50    2.40
   2   0  20   40.50    2.60
   3   0  20    1.90    2.30
   3   0  20   -0.50    2.90
   3   0  20    1.90    2.00
  -3   0 -20   -0.50    1.70
   4   0  20    7.20    2.30
   4   0  20   13.10    2.50
   4   0  20    7.70    3.30
  -4   0 -20    8.10    2.30
   4   0  20    4.20    2.70
   5   0  20    0.50    2.00
   5   0  20    0.60    3.10
  -5   0 -20   -1.80    1.90
   5   0  20    0.30    2.40
   5   0  20    3.10    2.20
   6   0  20    7.80    2.70
   6   0  20   13.30    3.00
   6   0  20    6.90    2.50
  -6   0 -20    8.90    2.70
   6   0  20    9.70    3.50
  -7   0 -20   -0.70    2.00
   7   0  20    1.60    2.40
   7   0  20   -1.20    3.20
   7   0  20   -0.90    2.40
   7   0  20   -3.30    3.60
   8   0  20   38.70    5.90
   8   0  20   44.00    5.00
  -8   0 -20   35.20    4.60
   8   0  20   46.20    4.20
   8   0  20   32.90    6.00
   9   0  20   -0.20    5.20
   9   0  20   -0.80    2.30
  -9   0 -20    1.80    2.30
   9   0  20    0.70    2.80
   9   0  20   -0.70    3.70
 -10   0 -20   27.00    4.20
  10   0  20   38.00    5.10
  10   0  20   49.00    4.70
  10   0  20   44.30    4.90
  11  -1 -20   17.20    3.50
  11  -1 -20   18.20    3.50
 -11  -1  20    7.30    3.60
 -11  -1  20    7.90    6.60
 -11  -1  20   11.20    5.00
 -11   1  20   16.00    7.70
  11   1 -20   16.90    3.30
 -11   1  20   22.10    5.20
  11   1 -20   16.50    3.70
  11   1 -20   11.50    3.10
 -10  -1  20    3.40    4.90
  10  -1 -20    0.60    1.90
  10  -1 -20   -0.50    3.00
 -10  -1  20    4.10    3.50
 -10  -1  20   -7.60    3.70
  10   1 -20   -1.30    2.90
 -10   1  20    0.70    5.70
 -10   1  20   -1.50    4.00
  10   1 -20    0.00    2.10
  10   1 -20    0.90    2.50
  -9  -1  20   65.99    8.10
  -9  -1  20   67.39    7.40
   9  -1 -20   78.59    5.30
  -9  -1  20   75.19    6.60
   9  -1 -20   71.29    5.10
   9   1 -20   72.19    5.10
  -9   1  20   62.69   10.00
  -9   1  20   81.69    8.10
   9   1 -20   70.19    5.70
   9   1 -20   79.59    5.50
  -8  -1  20    5.60    3.00
   8  -1 -20    9.10    2.70
  -8  -1  20    7.70    3.90
   8  -1 -20    5.90    2.40
  -8  -1  20    6.80    2.90
   8   1 -20    3.10    2.40
  -8   1  20    3.50    4.70
   8   1 -20    8.70    2.90
  -8   1  20    3.70    3.80
   8   1 -20    4.00    2.00
  -7  -1  20    1.80    3.40
  -7  -1  20    5.30    2.60
   7  -1 -20    1.30    2.20
   7  -1 -20    2.50    2.20
  -7  -1  20    0.00    2.50
   7   1 -20    0.00    1.90
   7   1 -20    0.60    2.50
  -7   1  20    6.80    3.70
  -7   1  20    1.20    3.20
   7   1 -20   -0.90    2.20
   6  -1 -20   12.20    2.60
  -6  -1  20    7.30    2.90
  -6  -1  20   10.40    3.80
  -6  -1  20   12.10    2.70
   6   1 -20   14.00    2.40
   6   1 -20   11.20    2.60
  -6   1  20   12.70    3.50
  -6   1  20   10.80    3.70
   5  -1 -20    3.90    1.90
  -5  -1  20   -0.10    2.80
  -5  -1  20   -4.50    2.10
  -5  -1  20    1.20    2.30
  -5   1  20   -6.80    3.40
  -5   1  20    3.30    2.80
   5   1 -20    2.30    2.20
   5   1 -20   -1.20    1.60
   4  -1 -20  447.26   15.00
  -4  -1  20  426.46   15.20
  -4  -1  20  426.46   16.70
  -4  -1  20  437.26   16.20
  -4   1  20  440.56   16.30
  -4   1  20  438.26   17.60
   4   1 -20  436.76   14.20
  -3  -1  20   53.69    5.50
  -3  -1  20   41.80    4.10
  -3  -1  20   45.80    5.20
   3  -1 -20   44.00    3.70
  -3   1  20   39.50    5.90
   3   1 -20   47.20    3.10
  -3   1  20   53.69    5.20
  -2  -1  20    4.60    2.30
  -2  -1  20    5.40    1.80
  -2  -1  20    2.40    2.80
   2  -1 -20    8.20    1.80
  -2   1  20    4.80    3.30
   2   1 -20    5.70    1.50
  -2   1  20    4.40    2.40
  -1  -1  20   21.30    2.90
   1  -1 -20   21.70    2.70
  -1  -1  20   16.10    3.00
  -1  -1  20   20.20    2.60
  -1  -1  20   27.90    3.80
  -1   1  20   17.40    3.00
  -1   1  20   22.10    4.00
   1   1 -20   21.60    1.90
   1   1 -20   19.60    2.80
  -1   1  20   16.40    2.90
   0  -1  20    7.50    2.10
   0  -1  20   10.20    3.20
   0  -1 -20   11.10    2.00
   0  -1 -20    6.50    2.20
   0  -1  20    6.40    2.40
   0   1  20    9.30    2.60
   0   1  20    7.10    2.90
   0   1  20    6.70    2.30
   0   1 -20   11.20    2.40
   1  -1  20    6.30    2.00
   1  -1  20    7.60    2.60
   1  -1  20   10.20    3.20
  -1  -1 -20    6.50    2.20
  -1  -1 -20   11.90    2.00
   1   1  20   13.90    3.30
   1   1  20    6.40    2.30
  -1   1 -20    9.30    2.40
   1   1  20    5.60    2.50
   2  -1  20    9.40    2.30
  -2  -1 -20   11.40    2.70
   2  -1  20   13.40    3.50
  -2  -1 -20   11.70    2.10
   2  -1  20   13.40    3.40
   2   1  20    6.80    2.60
  -2   1 -20   12.70    2.90
   2   1  20   12.90    3.90
   2   1  20   11.90    2.90
   2   1  20   12.30    3.00
   3  -1  20    1.10    2.40
   3  -1  20    6.40    2.80
  -3  -1 -20    5.20    1.70
   3  -1  20    0.90    1.90
   3   1  20    4.90    1.80
   3   1  20    3.60    2.50
   3   1  20    4.90    2.20
  -3   1 -20    6.90    2.20
   3   1  20    3.40    3.10
   3   1  20    4.20    1.90
  -4  -1 -20   41.30    3.20
   4  -1  20   38.00    5.00
  -4  -1 -20   35.50    4.00
   4  -1  20   41.60    3.70
   4  -1  20   34.30    4.70
   4   1  20   39.50    5.00
   4   1  20   38.60    3.10
  -4   1 -20   37.80    4.20
   4   1  20   38.20    6.10
   4   1  20   35.40    4.20
   4   1  20   44.00    3.70
   5  -1  20   23.10    3.60
   5  -1  20   29.10    4.50
  -5  -1 -20   32.60    4.10
   5  -1  20   33.30    3.60
  -5  -1 -20   29.90    3.40
   5   1  20   37.40    5.50
   5   1  20   32.50    3.70
   5   1  20   49.10    6.60
  -5   1 -20   36.80    3.80
   5   1  20   22.00    3.40
   5   1  20   26.90    3.00
  -6  -1 -20   16.70    2.50
   6  -1  20   19.70    4.50
   6  -1  20   18.80    3.90
   6  -1  20   22.60    3.10
  -6  -1 -20   15.30    3.10
   6   1  20   14.50    4.30
   6   1  20   20.20    3.40
   6   1  20   23.30    3.70
   6   1  20   18.90    2.70
   6   1  20   18.90    2.50
  -6   1 -20   17.60    3.10
  -7  -1 -20   -0.70    2.30
   7  -1  20   -4.00    3.40
   7  -1  20    2.80    2.40
   7  -1  20   -0.70    2.30
   7  -1  20    4.00    4.70
   7   1  20   -1.70    2.20
   7   1  20    4.60    2.60
   7   1  20    3.30    3.80
  -7   1 -20    3.30    2.40
   7   1  20   -1.70    2.10
   7   1  20    3.30    3.10
   8  -1  20    4.10    4.10
  -8  -1 -20    9.10    2.60
  -8  -1 -20   10.90    2.90
   8  -1  20    6.70    2.80
   8  -1  20    6.50    6.00
   8  -1  20    5.80    2.50
   8   1  20    1.30    2.20
   8   1  20   10.70    3.30
  -8   1 -20    8.00    2.60
   8   1  20    9.10    4.50
   8   1  20   10.00    2.30
   8   1  20    4.60    2.60
  -9  -1 -20    2.80    2.80
   9  -1  20   -0.70    2.30
   9  -1  20   -2.70    5.00
   9  -1  20    2.70    2.80
  -9  -1 -20    2.20    2.80
   9  -1  20    0.70    4.70
   9   1  20    2.30    2.70
  -9   1 -20    2.00    2.60
   9   1  20   -1.70    2.50
   9   1  20   -2.70    3.60
   9   1  20   -4.60    5.70
 -10  -2  20    0.70    4.30
 -10  -2  20    0.40    3.60
  10  -2 -20    9.70    3.60
 -10  -2  20    2.20    4.90
  10  -2 -20   -0.90    2.30
  10   2 -20   -3.00    3.10
 -10   2  20   -1.00    6.60
 -10   2  20   -4.90    5.30
  10   2 -20    5.00    3.00
  -9  -2  20   80.79    7.20
  -9  -2  20   73.59    7.90
   9  -2 -20   78.09    5.40
   9  -2 -20   74.09    5.60
  -9  -2  20   85.49    8.30
  -9   2  20   77.59    5.00
  -9   2  20   74.79    9.70
   9   2 -20   81.69    6.00
   9   2 -20   79.79    6.00
  -9   2  20   75.69   10.30
   8  -2 -20   12.70    3.50
  -8  -2  20    8.10    3.80
  -8  -2  20    7.20    4.30
   8  -2 -20   11.20    3.10
  -8  -2  20   13.50    3.60
  -8   2  20   14.10    5.00
  -8   2  20   14.40    2.90
   8   2 -20    9.10    3.00
   8   2 -20    8.00    2.80
  -8   2  20    4.90    4.80
   7  -2 -20    1.90    2.30
  -7  -2  20    0.30    3.00
  -7  -2  20    0.80    3.00
  -7  -2  20    7.20    3.40
  -7   2  20    3.60    4.20
  -7   2  20    6.90    4.50
   7   2 -20    2.70    2.30
  -7   2  20    1.10    2.40
   6  -2 -20   -0.30    1.90
  -6  -2  20   -0.70    3.30
  -6  -2  20   -0.50    2.80
  -6  -2  20    4.50    2.60
  -6   2  20   -1.20    4.20
  -6   2  20    0.20    4.20
   6   2 -20   -1.00    2.20
  -6   2  20   -1.50    2.20
  -5  -2  20   82.79    6.60
   5  -2 -20   70.29    4.90
  -5  -2  20   74.79    6.40
  -5  -2  20   73.19    5.40
  -5   2  20   62.79    7.90
   5   2 -20   76.19    5.60
  -5   2  20   61.19    4.80
  -5   2  20   80.39    7.20
  -4  -2  20    2.40    2.70
   4  -2 -20    2.30    2.00
  -4  -2  20    3.60    2.20
  -4  -2  20    3.30    2.70
  -4   2  20    3.00    2.40
  -4   2  20    2.70    4.20
   4   2 -20    1.70    2.30
  -4   2  20    5.50    3.10
  -3  -2  20   -0.50    3.00
  -3  -2  20    6.90    2.70
  -3  -2  20    5.80    2.00
   3  -2 -20    3.40    1.80
  -3   2  20    3.10    2.40
  -3   2  20    6.40    3.70
  -3   2  20    1.20    3.00
   3   2 -20    5.50    2.40
   2  -2 -20  159.28    7.30
  -2  -2  20  155.28    8.30
  -2  -2  20  153.48    8.40
  -2  -2  20  160.18    6.20
  -2   2  20  158.78    9.90
  -2   2  20  159.38    7.60
   2   2 -20  147.99    8.00
  -2   2  20  161.58    8.70
  -1  -2  20    8.90    2.80
  -1  -2  20    7.40    2.90
   1  -2 -20    7.60    2.30
  -1   2  20    9.60    2.80
  -1   2  20    6.80    3.80
   1   2 -20    5.00    2.30
  -1   2  20    4.60    2.60
   0  -2  20   15.40    3.40
   0  -2 -20   16.20    2.70
   0  -2  20   20.40    3.60
   0  -2  20   18.50    2.90
   0   2  20   17.90    3.50
   0   2 -20   18.10    2.80
   0   2  20   19.80    4.00
   0   2  20   21.00    3.40
   1  -2  20   -0.60    2.10
   1  -2  20    4.70    3.10
  -1  -2 -20    2.90    2.20
   1  -2  20    5.10    2.80
  -1  -2 -20    3.80    1.90
  -1   2 -20    2.00    2.40
   1   2  20   -1.50    2.20
   1   2  20    1.00    3.10
   1   2  20    4.20    3.50
   2  -2  20    0.50    2.40
   2  -2  20   -1.10    1.90
   2  -2  20   -2.90    2.70
  -2  -2 -20   -0.80    1.90
  -2  -2 -20   -0.90    1.80
  -2   2 -20    0.60    2.20
   2   2  20   -0.10    2.10
   2   2  20   -6.00    2.80
   2   2  20   -1.00    3.60
   3  -2  20   13.20    2.80
   3  -2  20   21.00    4.00
  -3  -2 -20   16.20    2.80
   3  -2  20   15.40    3.70
  -3  -2 -20   11.50    2.90
   3   2  20   10.70    2.90
   3   2  20   20.70    4.30
   3   2  20   12.50    2.80
  -3   2 -20   11.40    2.90
  -4  -2 -20    6.70    2.30
  -4  -2 -20    6.40    2.60
   4  -2  20    8.50    3.40
   4  -2  20   -0.50    2.20
   4  -2  20    9.70    3.50
  -4   2 -20    6.10    2.20
   4   2  20    2.50    2.40
   4   2  20    4.00    2.70
   4   2  20    4.90    3.60
   5  -2  20   68.29    5.10
   5  -2  20   55.79    7.00
   5  -2  20   79.29    7.50
  -5  -2 -20   61.09    5.60
  -5  -2 -20   71.29    4.70
   5   2  20   64.39    6.50
  -5   2 -20   63.89    4.90
   5   2  20   58.29    7.60
   5   2  20   83.39    6.10
   5   2  20   62.39    5.40
  -6  -2 -20   31.50    4.00
  -6  -2 -20   31.80    4.20
   6  -2  20   26.90    3.80
   6  -2  20   38.00    5.30
   6  -2  20   37.40    5.90
   6   2  20   25.80    4.70
   6   2  20   34.90    4.60
  -6   2 -20   21.70    3.40
   6   2  20   23.80    4.20
   6   2  20   26.90    3.80
   7  -2  20   -0.30    4.20
  -7  -2 -20    7.30    2.60
  -7  -2 -20   -1.80    2.30
   7  -2  20    3.40    3.90
   7  -2  20    0.30    2.40
   7   2  20    2.50    3.60
  -7   2 -20    4.50    2.60
   7   2  20    4.80    3.00
   7   2  20    2.60    4.30
   7   2  20    9.80    5.90
   7   2  20    6.10    3.10
  -8  -2 -20   -2.20    2.60
   8  -2  20    2.60    4.70
   8  -2  20    0.40    4.50
  -8  -2 -20    2.60    2.70
   8  -2  20    0.00    2.40
   8   2  20   -2.00    2.70
   8   2  20   -5.80    3.40
   8   2  20  -10.70    4.80
  -8   2 -20    0.50    2.50
   8   2  20   -0.10    3.50
   8   2  20   -2.70    3.10
  -8  -3  20    1.40    4.30
  -8  -3  20    5.20    4.10
  -8  -3  20    6.60    4.10
   8  -3 -20   -2.60    2.00
  -8   3  20    0.50    6.30
  -8   3  20   -1.80    4.90
  -8   3  20    5.10    5.90
   8   3 -20   -1.00    2.80
  -7  -3  20   72.39    6.50
  -7  -3  20   58.29    7.70
   7  -3 -20   64.19    5.50
  -7  -3  20   66.49    7.10
  -7   3  20   62.59    5.00
  -7   3  20   63.49    9.70
   7   3 -20   61.09    5.50
  -7   3  20   43.50    6.80
  -6  -3  20   16.20    4.50
   6  -3 -20   13.40    2.50
  -6  -3  20   23.90    3.60
   6   3 -20   12.80    3.00
  -6   3  20   21.00    3.60
  -6   3  20    7.40    4.70
  -6   3  20   20.30    5.80
   5  -3 -20   38.80    4.20
  -5  -3  20   37.80    5.70
  -5  -3  20   41.10    5.20
  -5  -3  20   48.50    6.80
  -5   3  20   37.90    4.20
  -5   3  20   34.00    5.80
   5   3 -20   38.20    4.50
  -5   3  20   37.40    6.00
  -4  -3  20   11.30    3.30
  -4  -3  20    6.70    2.60
   4  -3 -20    6.00    2.20
  -4  -3  20    5.40    2.40
  -4  -3  20    9.70    4.10
  -4   3  20    1.90    2.60
   4   3 -20    2.00    2.10
  -4   3  20   11.30    4.80
  -4   3  20    7.10    4.70
  -3  -3  20    8.40    2.30
  -3  -3  20   11.30    4.20
   3  -3 -20    9.00    2.70
  -3  -3  20   10.00    3.10
  -3  -3  20   11.10    2.50
  -3   3  20   10.30    3.30
  -3   3  20    4.10    4.30
   3   3 -20   11.70    3.40
  -3   3  20    6.90    3.60
  -2  -3  20    3.70    1.80
   2  -3 -20    4.20    2.60
  -2  -3  20   -4.30    4.60
  -2  -3  20    1.40    3.50
  -2  -3  20    2.90    3.10
  -2   3  20   -2.20    4.70
  -2   3  20   -0.40    2.50
  -2   3  20    0.80    3.80
   2   3 -20   -1.60    2.10
  -1  -3  20   -0.10    2.80
  -1  -3  20    6.80    3.80
   1  -3 -20    6.80    2.30
  -1   3  20    0.10    3.50
  -1   3  20    6.60    2.70
  -1   3  20   -1.50    4.20
   1   3 -20    2.00    2.00
   0  -3  20    0.90    3.70
   0  -3 -20    1.10    2.10
   0  -3  20    3.20    2.30
   0  -3  20    4.00    2.90
   0   3 -20   -0.50    2.10
   0   3  20    9.20    3.80
   0   3  20    3.40    3.80
   0   3  20    1.40    2.50
   1  -3  20   49.50    4.50
   1  -3  20   64.99    7.30
  -1  -3 -20   58.89    4.80
   1  -3  20   47.90    5.60
   1   3  20   46.80    7.50
   1   3  20   50.69    4.90
  -1   3 -20   49.70    4.30
   1   3  20   61.19    7.60
  -1   3 -20   58.09    5.20
  -2  -3 -20   32.60    4.40
   2  -3  20   34.90    4.60
  -2  -3 -20   31.90    4.10
   2  -3  20   38.60    5.50
   2  -3  20   20.20    3.60
  -2   3 -20   28.20    3.90
   2   3  20   30.40    4.20
   2   3  20   39.00    5.70
   2   3  20   33.00    5.30
   3  -3  20    5.40    2.70
   3  -3  20   -2.50    3.60
   3  -3  20    9.70    4.60
  -3  -3 -20    2.40    2.40
  -3  -3 -20    5.90    2.50
   3   3  20   10.60    4.30
   3   3  20    5.20    2.70
   3   3  20    4.60    4.00
  -3   3 -20    3.60    2.30
   4  -3  20    2.30    4.20
  -4  -3 -20   -5.50    2.30
  -4  -3 -20    1.30    2.70
   4  -3  20    3.90    2.50
   4  -3  20   -1.30    3.60
   4   3  20   -4.10    2.70
   4   3  20    2.50    4.20
   4   3  20   -1.00    3.50
  -4   3 -20    3.60    2.40
   5  -3  20   19.00    4.90
   5  -3  20   13.80    3.00
   5  -3  20   10.20    4.60
  -5  -3 -20   20.60    4.00
  -5  -3 -20   13.00    3.40
   5   3  20   18.20    4.30
   5   3  20   13.70    3.40
   5   3  20    9.90    4.50
  -5   3 -20   16.90    3.40
   6  -3  20   20.50    5.00
  -6  -3 -20   20.40    3.60
   6  -3  20   14.10    5.10
   6  -3  20    9.40    3.20
  -6  -3 -20   10.80    3.60
  -6   3 -20   16.00    3.10
   6   3  20   12.80    4.80
   6   3  20   14.60    4.90
   6   3  20    8.20    3.60
  -7  -3 -20   11.70    3.70
   7  -3  20    4.20    7.10
   7   3  20    7.10    4.90
  -4  -4  20   45.30    6.40
  -4  -4  20   48.50    6.20
   4  -4 -20   37.20    4.80
  -4  -4  20   53.09    5.00
  -4   4  20   64.49    9.90
  -4   4  20   37.70    4.80
  -4   4  20   34.10    7.90
   4   4 -20   41.70    4.90
  -3  -4  20    4.40    5.20
  -3  -4  20    4.00    3.50
  -3  -4  20    2.90    3.40
  -3  -4  20    1.60    2.90
   3  -4 -20   -0.20    2.70
  -3   4  20   -5.30    5.20
  -3   4  20    5.40    3.10
   3   4 -20    0.30    2.70
  -3   4  20    7.60    5.60
   2  -4 -20   43.50    4.30
  -2  -4  20   40.90    4.70
  -2  -4  20   41.50    6.40
  -2  -4  20   40.20    5.00
  -2   4  20   45.10    5.00
   2   4 -20   42.40    5.00
  -2   4  20   36.50    6.70
  -2   4  20   31.00    6.10
  -1  -4  20    1.30    2.90
   1  -4 -20    0.50    2.20
  -1  -4  20    0.90    4.70
  -1  -4  20    0.20    2.90
  -1   4  20   -2.00    5.20
   1   4 -20    1.30    2.80
  -1   4  20   13.50    5.30
  -1   4  20   -5.00    2.60
   0  -4  20   66.69    6.00
   0  -4 -20   48.30    5.00
   0  -4  20   56.59    7.40
   0  -4  20   44.70    5.30
   0   4  20   47.70    6.80
   0   4 -20   59.69    5.60
   0   4  20   63.79    8.20
   0   4  20   53.79    5.20
   1  -4  20   17.30    3.60
  -1  -4 -20   17.20    3.50
   1  -4  20   18.40    7.50
   1  -4  20   18.90    4.20
   1   4  20   14.40    3.60
  -1   4 -20   20.30    3.90
   1   4  20   22.70    5.90
   1   4  20   22.40    6.60
   2  -4  20   13.00    3.90
  -2  -4 -20   12.10    3.30
   2  -4  20    9.20    3.10
  -2   4 -20   12.30    3.80
   2   4  20   21.90    6.50
  -2   4 -20   21.20    3.30
   2   4  20   14.60    6.20
   2   4  20   12.10    3.30
 -11   0  21   29.50    6.40
 -11   0  21   23.90    5.20
  11   0 -21   33.20    4.30
 -10   0  21    3.10    3.70
  10   0 -21   -1.60    2.30
 -10   0  21   -3.30    4.40
  10   0 -21   -0.10    3.00
 -10   0  21    4.50    5.10
  -9   0  21   45.90    6.80
   9   0 -21   50.59    4.80
   9   0 -21   43.90    4.40
  -9   0  21   33.30    5.20
  -9   0  21   52.79    6.90
   8   0 -21   -0.40    2.10
  -8   0  21    4.30    3.30
  -8   0  21    8.60    3.70
  -8   0  21    0.70    4.50
   8   0 -21    0.80    2.50
  -7   0  21   53.19    7.50
   7   0 -21   45.50    4.00
  -7   0  21   51.89    6.10
   7   0 -21   41.40    4.30
  -7   0  21   54.19    6.20
   6   0 -21    2.00    1.80
  -6   0  21   -1.20    3.80
  -6   0  21    7.70    3.00
  -6   0  21    3.20    2.90
   5   0 -21  197.58    8.30
  -5   0  21  223.68    9.90
  -5   0  21  211.28   11.30
  -5   0  21  214.38   10.10
  -4   0  21    2.80    2.50
   4   0 -21   -0.80    1.80
  -4   0  21    0.40    3.20
  -4   0  21   -1.50    2.40
  -3   0  21   87.09    6.00
  -3   0  21  103.29    6.80
   3   0 -21  104.99    4.80
  -3   0  21   91.79    7.50
  -2   0  21    0.40    2.10
  -2   0  21   -1.80    1.90
  -2   0  21   -1.80    2.40
  -2   0  21   -1.00    3.20
   2   0 -21   -0.20    1.50
   1   0 -21   19.20    2.40
  -1   0  21   16.90    3.60
  -1   0  21   24.10    3.60
  -1   0  21   20.10    3.10
  -1   0  21   22.50    2.70
   0   0  21    6.60    3.40
   0   0  21    0.80    1.70
   0   0 -21   -1.30    1.50
   0   0 -21   -1.40    2.00
   0   0  21   -2.00    1.90
   0   0  21   -0.10    2.40
   1   0  21  176.78    9.20
   1   0  21  179.88   10.00
   1   0  21  185.98    7.00
  -1   0 -21  164.58    8.40
  -1   0 -21  187.78    6.30
   1   0  21  178.38    6.80
   2   0  21    2.80    3.00
  -2   0 -21   -1.90    2.10
   2   0  21    3.80    2.10
   2   0  21   -1.60    1.20
   2   0  21   -1.00    2.30
  -2   0 -21   -1.40    1.40
  -3   0 -21   60.29    5.10
   3   0  21   69.69    5.90
   3   0  21   65.69    6.70
   3   0  21   62.29    4.10
   4   0  21    0.70    2.00
   4   0  21   -2.90    2.10
  -4   0 -21    2.80    2.20
   4   0  21   -1.90    2.50
   4   0  21   -1.10    3.40
   5   0  21    1.70    3.50
   5   0  21    3.20    2.50
   5   0  21    6.60    3.20
  -5   0 -21    3.90    2.10
   5   0  21    1.40    2.20
  -6   0 -21   -1.60    2.20
   6   0  21    5.10    3.80
   6   0  21   -2.70    3.10
   6   0  21   -1.90    2.00
   6   0  21   -0.10    2.30
   7   0  21  343.97   12.10
   7   0  21  315.77   13.80
  -7   0 -21  322.07   13.80
   7   0  21  357.96   14.10
   7   0  21  316.77   15.30
   8   0  21   -1.60    2.70
   8   0  21    2.90    4.90
  -8   0 -21   -0.50    2.30
   8   0  21    0.00    2.90
   8   0  21   -0.10    3.30
  -9   0 -21   16.50    4.00
   9   0  21   22.70    3.40
   9   0  21   14.10    6.80
   9   0  21   19.90    4.70
   9   0  21   17.50    3.30
 -10  -1  21    9.20    4.60
 -10  -1  21    5.00    3.70
  10  -1 -21    7.00    2.60
  10  -1 -21    2.20    3.20
 -10  -1  21    1.00    5.30
  10   1 -21    2.10    2.40
 -10   1  21   -2.10    6.10
 -10   1  21    3.10    4.90
  10   1 -21    6.10    3.00
  10   1 -21    1.80    3.10
  -9  -1  21   -4.20    3.40
  -9  -1  21   -1.10    4.20
  -9  -1  21   -3.10    3.70
   9  -1 -21    0.30    2.80
   9  -1 -21    0.40    2.00
   9   1 -21   -2.80    2.50
   9   1 -21    0.90    2.40
  -9   1  21   -6.40    4.40
   9   1 -21   -2.90    2.60
  -9   1  21   -2.40    5.50
   8  -1 -21   31.60    3.80
   8  -1 -21   29.70    3.80
  -8  -1  21   26.20    4.50
  -8  -1  21   24.40    5.00
  -8  -1  21   34.10    4.60
   8   1 -21   33.00    4.20
   8   1 -21   37.50    4.40
  -8   1  21   22.50    4.70
   8   1 -21   30.00    3.70
  -8   1  21   17.70    5.40
  -7  -1  21    4.50    4.10
  -7  -1  21    5.60    3.20
   7  -1 -21    2.40    2.10
  -7  -1  21    0.70    3.00
  -7   1  21    7.80    3.70
   7   1 -21    9.40    2.70
   7   1 -21    0.50    2.10
  -7   1  21   -1.60    4.60
  -6  -1  21    1.70    2.90
  -6  -1  21    2.10    2.70
   6  -1 -21    0.80    2.00
  -6  -1  21    7.60    3.80
  -6   1  21    4.50    3.10
   6   1 -21    1.60    2.00
   6   1 -21   -0.40    1.80
  -5  -1  21    4.50    2.70
   5  -1 -21    3.10    2.30
  -5  -1  21    6.30    3.30
  -5  -1  21    4.00    2.60
  -5   1  21    6.50    4.40
  -5   1  21    0.20    3.30
   5   1 -21    7.70    2.10
  -4  -1  21   37.70    5.30
  -4  -1  21   34.00    4.20
  -4  -1  21   31.30    4.50
   4  -1 -21   35.20    3.50
  -4   1  21   28.00    3.70
   4   1 -21   30.60    3.00
  -4   1  21   43.80    6.10
  -4   1  21   40.90    4.90
   3  -1 -21  347.97   12.50
  -3  -1  21  361.16   14.50
  -3  -1  21  352.96   14.10
  -3  -1  21  355.96   12.50
   3   1 -21  362.66   11.70
  -3   1  21  331.67   15.10
  -3   1  21  365.16   13.90
   2  -1 -21   98.99    5.00
  -2  -1  21   97.59    6.70
  -2  -1  21   90.29    7.10
  -2  -1  21   89.59    5.10
   2   1 -21   96.79    4.10
  -2   1  21   98.59    7.80
  -2   1  21   98.19    6.40
  -1  -1  21   12.30    1.80
  -1  -1  21   16.00    3.70
  -1  -1  21   11.20    2.50
   1  -1 -21   12.90    2.20
  -1  -1  21    9.00    3.00
  -1   1  21   11.80    2.80
  -1   1  21   10.50    2.50
  -1   1  21   15.60    3.90
   0  -1  21   -1.60    3.20
   0  -1  21    2.90    2.50
   0  -1 -21    2.40    1.70
   0  -1 -21    0.30    2.10
   0  -1  21    2.40    2.20
   0   1  21    9.00    3.60
   0   1 -21    3.30    1.90
   0   1  21    1.60    2.30
   0   1  21    2.30    2.00
   1  -1  21   -0.50    2.10
   1  -1  21   -3.10    2.70
  -1  -1 -21   -0.40    1.60
  -1  -1 -21   -0.60    2.30
   1  -1  21    0.10    2.50
   1   1  21    4.20    2.80
   1   1  21    0.40    3.20
  -1   1 -21   -2.30    1.90
   1   1  21    3.80    2.80
   1   1  21    1.30    2.10
   2  -1  21   58.09    6.10
  -2  -1 -21   53.29    3.50
   2  -1  21   47.20    3.90
  -2  -1 -21   50.39    4.60
   2  -1  21   36.00    4.60
   2   1  21   49.30    4.80
  -2   1 -21   47.00    4.50
   2   1  21   56.39    5.40
   2   1  21   55.09    6.70
   2   1  21   52.59    4.70
   3  -1  21   10.60    3.40
  -3  -1 -21   12.30    3.00
   3  -1  21   13.60    3.50
  -3  -1 -21   13.00    2.30
   3  -1  21   10.00    2.70
  -3   1 -21   11.60    2.60
   3   1  21   13.70    4.20
   3   1  21   16.40    3.10
   3   1  21   15.10    2.30
   3   1  21    6.50    2.40
   3   1  21   10.50    2.60
   4  -1  21   25.00    4.50
   4  -1  21   23.30    3.70
   4  -1  21   27.00    3.40
  -4  -1 -21   28.60    3.00
  -4  -1 -21   36.00    4.10
   4   1  21   24.60    4.80
  -4   1 -21   21.30    3.20
   4   1  21   25.20    3.90
   4   1  21   28.50    4.10
   4   1  21   26.40    3.00
   4   1  21   28.70    4.00
  -5  -1 -21   68.99    5.60
   5  -1  21   73.69    4.80
   5  -1  21   71.19    6.50
  -5  -1 -21   70.09    4.00
   5  -1  21   73.69    7.40
   5   1  21   76.29    6.30
   5   1  21   63.19    4.40
   5   1  21   75.09    8.30
   5   1  21   63.79    4.20
  -5   1 -21   68.39    5.10
   5   1  21   71.39    5.80
  -6  -1 -21   50.79    5.00
   6  -1  21   46.20    7.50
  -6  -1 -21   53.09    4.10
   6  -1  21   50.79    4.60
   6  -1  21   42.60    6.30
   6   1  21   41.40    5.90
   6   1  21   47.70    5.20
   6   1  21   49.80    4.00
   6   1  21   44.90    6.20
  -6   1 -21   45.50    4.70
   6   1  21   49.90    4.10
  -7  -1 -21    4.80    2.40
   7  -1  21    2.50    2.20
   7  -1  21    0.90    2.70
  -7  -1 -21   -0.20    2.10
   7  -1  21    2.10    4.80
   7  -1  21    6.20    4.00
  -7   1 -21    0.00    2.20
   7   1  21    0.90    2.60
   7   1  21    0.10    2.20
   7   1  21    4.10    2.60
   7   1  21    0.70    3.40
   7   1  21    4.90    4.00
   8  -1  21   -1.10    4.30
   8  -1  21    2.20    2.70
   8  -1  21   -5.30    6.00
  -8  -1 -21    2.30    3.20
  -8  -1 -21    0.00    2.50
   8  -1  21    2.00    2.80
   8   1  21   -5.90    2.60
  -8   1 -21    1.10    2.30
   8   1  21   -3.80    2.40
   8   1  21   -0.90    3.50
   8   1  21    2.00    5.50
   9  -1  21   -0.40    2.60
   9  -1  21   -4.20    4.80
  -9  -1 -21   -1.90    2.70
   9  -1  21    7.50    7.80
  -9   1 -21    2.00    2.50
   9   1  21   -5.50    2.30
   9   1  21   -4.30    4.10
  -9  -2  21   21.60    4.90
  -9  -2  21   24.60    4.40
   9  -2 -21   17.30    3.60
  -9  -2  21   18.00    5.60
  -9   2  21   14.00    7.80
   9   2 -21   25.40    4.20
   9   2 -21   21.70    3.70
  -9   2  21   25.10    3.40
  -9   2  21   30.20    6.30
  -8  -2  21    3.60    3.50
   8  -2 -21   -0.30    2.00
  -8  -2  21    5.90    4.50
  -8  -2  21    2.00    3.80
  -8   2  21    7.80    5.60
  -8   2  21    3.90    5.30
   8   2 -21    1.30    2.60
  -8   2  21    0.30    2.70
   7  -2 -21   10.10    2.70
  -7  -2  21   11.50    4.20
  -7  -2  21   12.10    3.90
  -7  -2  21   12.20    3.70
  -7   2  21   10.50    2.80
  -7   2  21    2.30    5.10
  -7   2  21    6.80    5.00
   6  -2 -21   -1.20    2.30
  -6  -2  21   -2.70    3.60
  -6  -2  21   -0.80    3.20
  -6  -2  21   -4.80    2.80
   6   2 -21    0.10    2.40
  -6   2  21   -2.30    4.50
  -6   2  21    1.10    2.50
  -6   2  21    1.00    3.70
  -5  -2  21   69.69    5.60
   5  -2 -21   81.49    5.20
  -5  -2  21   57.49    6.60
  -5  -2  21   79.19    7.00
  -5   2  21   75.69    9.00
  -5   2  21   88.39    7.80
   5   2 -21   69.59    5.40
  -5   2  21   58.59    4.90
  -4  -2  21    0.70    3.00
  -4  -2  21    4.90    3.30
   4  -2 -21    2.40    1.80
  -4  -2  21    2.20    2.40
  -4   2  21    4.40    3.30
   4   2 -21    0.50    2.00
  -4   2  21    6.00    4.30
  -4   2  21    0.40    2.30
  -3  -2  21    6.00    3.30
  -3  -2  21    7.00    2.20
   3  -2 -21    4.90    2.20
  -3  -2  21    4.50    3.40
  -3   2  21    6.30    3.70
   3   2 -21    5.30    2.60
  -3   2  21   13.10    3.50
  -3   2  21    1.20    2.20
  -2  -2  21  173.68    6.50
  -2  -2  21  163.18    8.90
  -2  -2  21  164.78    9.20
   2  -2 -21  167.18    7.60
  -2   2  21  186.68    9.50
  -2   2  21  166.28   10.50
  -2   2  21  165.08    8.00
   2   2 -21  164.58    8.50
   1  -2 -21   -0.90    1.80
  -1  -2  21    4.70    2.30
  -1  -2  21    2.70    2.80
  -1  -2  21   -3.40    2.90
  -1   2  21    2.30    2.30
  -1   2  21    5.90    2.90
  -1   2  21    1.30    3.90
   0  -2  21    7.10    2.80
   0  -2  21    6.30    2.50
   0  -2  21    3.40    3.10
   0  -2 -21    2.00    1.90
   0   2  21    2.50    2.40
   0   2 -21    4.70    2.20
   0   2  21    2.80    3.30
   0   2  21    0.10    3.60
   1  -2  21   50.49    6.10
   1  -2  21   61.09    4.70
  -1  -2 -21   57.79    5.00
   1  -2  21   57.79    5.90
  -1  -2 -21   58.29    4.20
   1   2  21   54.59    6.60
   1   2  21   47.80    4.90
  -1   2 -21   54.29    4.40
   1   2  21   63.09    7.40
  -2  -2 -21    9.90    2.40
   2  -2  21    9.70    3.60
   2  -2  21   12.80    2.70
  -2  -2 -21   12.00    2.70
   2  -2  21   11.00    3.20
   2   2  21    6.50    3.40
   2   2  21    7.90    4.20
  -2   2 -21    9.90    2.60
   2   2  21   11.60    3.00
   3  -2  21    9.40    3.80
  -3  -2 -21   -1.30    2.10
   3  -2  21    3.00    3.40
  -3  -2 -21    2.60    2.70
   3  -2  21   -3.40    2.10
   3   2  21    3.00    2.40
   3   2  21    1.00    4.00
   3   2  21    0.60    3.10
  -3   2 -21    1.40    2.10
  -4  -2 -21   74.89    5.90
  -4  -2 -21   84.19    5.30
   4  -2  21   90.69    7.80
   4  -2  21   91.79    7.70
   4  -2  21   83.99    5.50
   4   2  21  104.59    6.70
   4   2  21   95.69    8.60
   4   2  21   81.89    6.10
  -4   2 -21   86.19    5.60
  -5  -2 -21    0.20    2.90
   5  -2  21   -2.20    4.10
   5  -2  21   -0.10    3.70
  -5  -2 -21   -2.70    2.10
   5  -2  21    0.10    2.70
   5   2  21    1.60    2.60
  -5   2 -21    1.20    2.30
   5   2  21    0.40    3.40
   5   2  21   -4.20    3.10
   5   2  21   -3.60    4.20
   6  -2  21    2.50    4.30
  -6  -2 -21   -0.50    2.50
   6  -2  21   -1.00    5.00
   6  -2  21    0.60    2.60
  -6  -2 -21    0.60    2.40
   6   2  21    0.30    3.50
  -6   2 -21   -1.10    2.30
   6   2  21   -0.80    3.30
   6   2  21   -0.60    2.40
   6   2  21    8.70    4.90
   7  -2  21    6.90    2.70
  -7  -2 -21    5.60    3.00
  -7  -2 -21    9.00    2.80
   7  -2  21   -3.00    5.00
   7  -2  21    2.50    4.90
   7   2  21    3.20    2.30
   7   2  21    5.10    4.40
  -7   2 -21    4.50    2.80
   7   2  21   -2.10    5.50
   7   2  21    8.20    3.10
   8   2  21   10.20    4.20
  -7  -3  21   10.70    4.00
  -7  -3  21   -0.30    3.80
  -7  -3  21    5.20    4.70
   7  -3 -21    4.30    2.60
  -7   3  21    2.80    4.30
  -7   3  21    0.10    3.00
   7   3 -21    6.30    2.60
  -7   3  21   -9.00    5.20
  -6  -3  21    7.30    4.40
  -6  -3  21    6.50    3.90
  -6  -3  21   14.30    3.60
   6  -3 -21   10.70    2.70
   6   3 -21   11.90    3.60
  -6   3  21   11.80    3.60
  -6   3  21    5.30    4.60
  -6   3  21    2.50    6.00
  -5  -3  21   32.00    4.00
   5  -3 -21   27.30    4.10
  -5  -3  21   38.60    4.60
  -5  -3  21   39.10    5.30
  -5   3  21   31.70    5.80
  -5   3  21   20.80    5.50
   5   3 -21   22.60    4.20
  -5   3  21   27.00    4.00
  -4  -3  21    4.30    2.80
  -4  -3  21    6.00    2.70
  -4  -3  21    3.30    3.20
  -4  -3  21    9.30    4.40
   4  -3 -21    5.70    2.40
   4   3 -21    5.60    2.90
  -4   3  21    0.00    4.10
  -4   3  21    0.70    3.00
  -4   3  21    5.50    4.70
  -3  -3  21   50.09    7.70
  -3  -3  21   52.19    5.90
  -3  -3  21   47.90    4.30
  -3  -3  21   53.59    4.40
   3  -3 -21   50.19    4.60
  -3   3  21   61.09    8.40
   3   3 -21   52.79    5.40
  -3   3  21   46.70    5.00
  -3   3  21   47.70    7.60
  -2  -3  21    3.50    4.10
  -2  -3  21    2.70    1.70
   2  -3 -21    3.90    2.20
  -2  -3  21    4.20    3.10
   2   3 -21    5.20    2.80
  -2   3  21    9.30    2.80
  -2   3  21    9.90    4.40
  -2   3  21    6.20    4.70
   1  -3 -21   28.20    3.70
  -1  -3  21   27.60    4.90
  -1  -3  21   21.40    3.80
  -1  -3  21   20.10    3.40
  -1   3  21   22.30    3.70
  -1   3  21   20.80    4.80
   1   3 -21   17.80    3.40
  -1   3  21    9.50    4.90
   0  -3  21    5.50    4.40
   0  -3  21    0.90    3.30
   0  -3 -21    3.50    2.20
   0  -3  21    0.80    2.40
   0   3  21    4.10    2.90
   0   3  21    4.50    4.50
   0   3  21   -1.90    4.90
   0   3 -21    2.40    2.40
   1  -3  21    7.60    4.40
  -1  -3 -21    3.80    2.50
   1  -3  21    3.40    2.60
   1  -3  21   12.20    3.60
   1   3  21    7.20    4.40
   1   3  21   18.20    5.40
   1   3  21    0.40    2.90
  -1   3 -21    3.90    2.40
   2  -3  21    8.00    4.90
   2  -3  21   -6.40    3.70
  -2  -3 -21    2.40    2.80
   2  -3  21   -1.70    2.40
  -2  -3 -21    0.50    2.40
  -2   3 -21   -1.60    2.30
   2   3  21   -8.60    4.40
   2   3  21    0.80    2.70
   2   3  21   -6.10    4.70
   3  -3  21   15.40    4.90
  -3  -3 -21   13.80    3.30
  -3  -3 -21   10.20    3.10
   3  -3  21    8.10    2.90
   3  -3  21    5.20    4.00
  -3   3 -21   14.60    3.10
   3   3  21   11.50    4.20
   3   3  21    9.50    5.20
   3   3  21   15.10    3.90
   4  -3  21    5.90    4.80
   4  -3  21    2.60    2.60
  -4  -3 -21   -0.10    2.50
   4  -3  21   -3.00    4.00
  -4  -3 -21   -2.00    2.40
   4   3  21    2.00    4.10
   4   3  21   -1.00    4.80
  -4   3 -21    1.30    2.60
   4   3  21    3.80    3.00
  -5  -3 -21    4.40    3.20
   5  -3  21    3.50    2.60
  -5  -3 -21    3.70    3.10
   5  -3  21    0.20    4.80
   5  -3  21   -2.30    6.10
  -5   3 -21   -0.60    2.80
   5   3  21   -1.20    4.70
   5   3  21   -5.60    4.50
   5   3  21    4.20    3.30
 -10   0  22    3.50    5.00
  10   0 -22   11.60    3.50
 -10   0  22    3.20    5.50
  10   0 -22    3.60    2.80
 -10   0  22   -3.70    4.20
  -9   0  22   -2.00    4.70
   9   0 -22   -0.60    2.30
   9   0 -22   -2.40    2.90
  -9   0  22   -2.10    3.70
  -9   0  22    2.00    4.60
  -8   0  22   69.19    7.40
  -8   0  22   96.69    8.10
  -8   0  22   74.89    9.60
   8   0 -22  101.79    5.80
   8   0 -22   90.99    5.60
  -7   0  22   -3.80    3.30
  -7   0  22    5.10    3.40
  -7   0  22    5.40    4.50
   7   0 -22    4.70    2.20
  -6   0  22    4.70    3.50
   6   0 -22   10.10    2.30
  -6   0  22    4.30    4.60
  -6   0  22    6.00    3.20
  -5   0  22    1.50    3.80
   5   0 -22   -3.20    1.90
  -5   0  22    3.60    3.00
  -5   0  22   -1.60    2.70
  -4   0  22    0.10    3.70
   4   0 -22    5.60    1.90
  -4   0  22    0.50    3.30
  -4   0  22    4.10    3.10
  -3   0  22    0.00    2.90
   3   0 -22    2.70    1.80
  -3   0  22   -0.80    2.40
  -3   0  22   -2.70    2.20
  -3   0  22    1.00    3.50
  -2   0  22  432.86   16.80
  -2   0  22  440.66   15.40
  -2   0  22  445.56   17.60
  -2   0  22  439.56   14.30
   2   0 -22  454.55   14.30
  -1   0  22   -2.30    1.90
  -1   0  22   -1.40    2.80
  -1   0  22   -1.80    1.90
   1   0 -22    2.40    1.60
  -1   0  22   -3.40    3.20
   0   0  22   93.29    7.80
   0   0 -22   79.89    5.80
   0   0  22   88.39    5.00
   0   0  22   90.49    4.70
   0   0  22  102.39    6.90
   0   0 -22   97.89    4.10
   1   0  22    3.60    2.30
   1   0  22   -2.40    2.00
   1   0  22    4.90    3.70
   1   0  22    0.40    2.50
  -1   0 -22    0.00    1.60
  -1   0 -22   -0.30    2.10
   2   0  22  117.29    8.50
   2   0  22  110.89    5.30
   2   0  22  108.09    7.40
  -2   0 -22   98.29    6.40
  -3   0 -22   -0.10    2.20
   3   0  22   -1.60    2.70
   3   0  22   -1.50    3.70
   3   0  22   -1.00    2.30
   4   0  22   11.30    2.60
   4   0  22    3.00    4.10
  -4   0 -22    6.80    2.50
   4   0  22   11.80    3.10
   4   0  22    6.90    3.60
  -5   0 -22   -2.80    2.20
   5   0  22   -1.10    4.10
   5   0  22   -0.20    2.30
   5   0  22    0.70    3.30
   6   0  22   33.00    5.70
   6   0  22   36.90    4.10
   6   0  22   38.50    5.20
   6   0  22   38.10    4.70
  -6   0 -22   30.30    4.60
   7   0  22    0.60    2.70
   7   0  22   -4.00    4.60
   7   0  22    1.30    3.70
   7   0  22    1.40    2.70
  -7   0 -22    0.00    2.50
   8   0  22   18.30    8.30
   8   0  22   13.10    3.80
  -8   0 -22   18.10    3.60
   8   0  22   18.10    3.50
  -9  -1  22   37.00    6.40
  -9  -1  22   39.00    5.10
   9  -1 -22   53.39    4.90
   9  -1 -22   42.90    4.40
  -9  -1  22   46.70    5.90
  -9   1  22   33.70    6.70
  -9   1  22   37.60    6.50
   9   1 -22   37.60    5.10
   9   1 -22   42.90    4.30
   9   1 -22   45.40    4.90
   8  -1 -22  194.48    8.80
  -8  -1  22  198.08   11.90
  -8  -1  22  194.58   10.50
   8  -1 -22  205.78    8.30
  -8  -1  22  177.08   10.70
  -8   1  22  193.28   12.90
   8   1 -22  202.08    8.60
  -8   1  22  195.48   11.50
  -7  -1  22   -4.70    3.10
  -7  -1  22    6.60    3.50
   7  -1 -22   -2.80    2.20
  -7  -1  22    1.00    4.00
   7   1 -22   -0.80    2.20
  -7   1  22    2.30    4.60
  -7   1  22    6.50    4.20
  -6  -1  22    5.90    3.50
  -6  -1  22    1.40    2.90
   6  -1 -22    4.60    2.30
  -6   1  22    7.50    4.00
  -6   1  22    8.10    5.10
   6   1 -22    6.60    2.20
  -5  -1  22   18.70    3.20
  -5  -1  22   15.20    4.60
   5  -1 -22   19.50    3.00
  -5  -1  22   18.00    3.80
  -5   1  22   12.40    4.00
   5   1 -22   21.40    2.80
  -5   1  22    8.40    4.80
  -4  -1  22   80.49    6.90
  -4  -1  22   65.99    5.50
  -4  -1  22   76.99    7.30
   4  -1 -22   65.59    4.50
  -4   1  22   66.69    6.60
  -4   1  22   68.89    8.00
   4   1 -22   74.79    4.20
  -3  -1  22    8.60    3.30
  -3  -1  22   11.50    3.50
   3  -1 -22   13.50    2.50
  -3  -1  22   12.40    2.50
  -3   1  22    8.20    3.20
  -3   1  22    9.30    4.60
   3   1 -22   12.40    2.00
  -2  -1  22   19.80    3.60
  -2  -1  22   23.90    4.30
  -2  -1  22   26.00    3.10
   2  -1 -22   22.60    3.10
  -2  -1  22   21.50    3.50
  -2   1  22   27.60    5.20
   2   1 -22   24.50    2.40
  -2   1  22   27.50    3.80
  -2   1  22   24.50    3.60
  -1  -1  22   23.00    4.10
  -1  -1  22   20.30    2.90
  -1  -1  22   15.70    2.50
   1  -1 -22   23.90    3.00
  -1  -1  22   27.30    4.50
  -1   1  22   19.00    4.70
  -1   1  22   14.90    3.00
  -1   1  22   19.60    3.40
   0  -1 -22    7.40    2.10
   0  -1  22    7.30    3.20
   0  -1  22    5.10    2.40
   0  -1  22   12.40    3.90
   0  -1 -22    9.10    3.10
   0   1  22    6.80    2.40
   0   1  22   12.80    4.10
   0   1 -22   11.00    2.80
   0   1  22   13.80    3.20
   1  -1  22   91.79    5.20
   1  -1  22   90.99    7.60
   1  -1  22   99.39    7.20
  -1  -1 -22   90.49    6.20
  -1  -1 -22   99.59    4.80
   1   1  22   96.79    7.20
  -1   1 -22  101.49    5.90
   1   1  22   91.59    6.10
   1   1  22  107.19    8.50
   1   1  22   88.79    5.90
   2  -1  22   -1.80    2.90
   2  -1  22    1.00    2.00
   2  -1  22    5.50    3.90
  -2  -1 -22    2.90    1.90
  -2  -1 -22    2.90    2.20
   2   1  22    0.30    3.90
   2   1  22    2.20    2.40
  -2   1 -22    4.40    2.40
   2   1  22   -2.50    2.80
   2   1  22    1.10    2.40
  -3  -1 -22   25.80    3.20
  -3  -1 -22   24.10    3.70
   3  -1  22   27.00    3.50
   3  -1  22   30.20    4.80
   3  -1  22   27.80    4.10
   3   1  22   23.40    4.50
  -3   1 -22   31.10    4.30
   3   1  22   27.90    4.20
   3   1  22   35.50    4.00
   3   1  22   30.00    4.10
  -4  -1 -22    5.60    2.20
   4  -1  22   10.50    4.30
   4  -1  22    5.70    2.40
   4  -1  22    6.10    3.30
  -4  -1 -22    5.00    2.40
   4   1  22    3.80    2.20
   4   1  22    9.90    2.60
   4   1  22   10.30    5.20
  -4   1 -22    7.30    2.40
   4   1  22    3.30    3.90
   4   1  22    6.70    3.30
  -5  -1 -22    6.00    2.60
   5  -1  22    5.10    4.20
   5  -1  22    6.80    3.20
  -5  -1 -22   12.00    2.50
   5  -1  22    8.10    2.60
   5   1  22    8.20    2.20
   5   1  22    7.30    3.60
  -5   1 -22    8.70    2.70
   5   1  22    6.60    4.60
   5   1  22    3.10    2.90
   5   1  22   10.40    2.50
  -6  -1 -22   23.30    2.90
   6  -1  22   14.70    5.00
   6  -1  22    8.10    2.80
  -6  -1 -22   16.30    3.40
   6  -1  22   17.00    4.20
   6   1  22   17.70    2.90
   6   1  22   18.80    2.50
   6   1  22   17.60    5.20
   6   1  22   13.80    3.40
  -6   1 -22   13.70    3.10
   6   1  22   12.60    3.90
   7  -1  22   14.10    5.60
   7  -1  22   34.20    5.30
   7  -1  22   18.10    3.30
  -7  -1 -22   23.00    4.20
   7  -1  22   21.60    3.80
   7   1  22   16.80    4.30
   7   1  22   14.60    3.20
   7   1  22   31.60    3.40
   7   1  22   35.30    6.70
  -7   1 -22   25.80    3.90
   7   1  22   23.90    2.80
   8  -1  22   44.90    6.30
   8  -1  22   57.09    9.40
   8  -1  22   49.40    4.50
   8  -1  22   45.80    4.80
  -8  -1 -22   32.30    4.70
  -8   1 -22   42.00    4.90
   8   1  22   32.40    4.80
   8   1  22   35.20    5.30
   8   1  22   34.80    4.50
   8  -2 -22    3.60    2.30
  -8  -2  22    9.40    3.90
  -8  -2  22   -6.50    4.80
  -8  -2  22    1.90    4.10
  -8   2  22    5.00    3.00
  -8   2  22    2.20    6.50
   8   2 -22    6.20    3.10
  -8   2  22    8.80    5.80
  -7  -2  22   29.10    5.70
  -7  -2  22   42.80    6.40
   7  -2 -22   31.20    4.20
  -7  -2  22   31.50    4.90
  -7   2  22   29.80    6.70
   7   2 -22   22.40    3.80
  -7   2  22   36.10    6.60
  -7   2  22   33.10    3.80
  -6  -2  22    7.40    4.30
  -6  -2  22    4.20    3.10
  -6  -2  22    6.40    3.70
   6  -2 -22    5.90    2.40
   6   2 -22    9.70    2.80
  -6   2  22    0.60    5.00
  -6   2  22    6.80    4.70
  -6   2  22    7.70    2.80
  -5  -2  22   11.60    3.30
  -5  -2  22   15.70    4.20
  -5  -2  22   10.70    4.00
   5  -2 -22   14.40    2.90
  -5   2  22   24.40    4.60
  -5   2  22   12.50    3.10
  -5   2  22   20.70    6.00
   5   2 -22   11.70    3.00
  -4  -2  22   10.60    3.80
  -4  -2  22   13.20    2.80
  -4  -2  22   19.00    4.40
   4  -2 -22   11.90    2.80
  -4   2  22    5.00    4.70
  -4   2  22   15.20    3.20
  -4   2  22   17.10    4.20
   4   2 -22   15.60    3.20
  -3  -2  22   27.00    4.60
   3  -2 -22   29.70    3.80
  -3  -2  22   13.50    3.60
  -3  -2  22   26.30    3.80
  -3   2  22   21.80    4.70
  -3   2  22   18.40    5.20
  -3   2  22   20.50    3.40
   3   2 -22   20.10    3.70
  -2  -2  22   -0.80    3.40
   2  -2 -22    0.20    1.90
  -2  -2  22   -2.00    1.80
  -2  -2  22   -1.90    3.30
  -2   2  22   -0.90    2.30
  -2   2  22    0.70    3.30
  -2   2  22   -3.40    4.40
   1  -2 -22   15.90    2.80
  -1  -2  22   17.70    3.10
  -1  -2  22   15.20    3.80
  -1  -2  22   20.60    4.00
  -1   2  22   19.20    4.60
  -1   2  22   15.90    3.40
  -1   2  22   18.70    3.90
   0  -2  22    9.70    2.60
   0  -2  22   10.60    3.60
   0  -2 -22    9.30    2.50
   0  -2  22   12.80    3.10
   0   2  22    0.60    4.60
   0   2  22    7.90    2.90
   0   2 -22    8.90    2.50
   0   2  22   13.90    3.90
  -1  -2 -22    3.00    2.80
   1  -2  22    3.10    3.20
   1  -2  22    9.20    3.50
   1  -2  22    6.40    2.80
  -1  -2 -22    8.00    2.50
   1   2  22    4.20    2.50
   1   2  22   12.50    4.40
   1   2  22   14.70    3.80
  -1   2 -22    4.40    2.40
   2  -2  22   16.20    4.10
   2  -2  22   13.70    3.50
  -2  -2 -22   10.60    3.10
   2  -2  22   11.50    2.80
  -2  -2 -22   16.40    2.80
  -2   2 -22   17.00    3.10
   2   2  22   11.00    4.00
   2   2  22   13.50    3.40
   2   2  22   15.60    5.20
  -3  -2 -22    3.90    2.30
   3  -2  22    5.40    3.80
   3  -2  22    5.10    3.90
  -3  -2 -22    8.60    2.40
   3  -2  22    9.30    2.60
   3   2  22    9.10    3.30
   3   2  22    7.40    4.70
  -3   2 -22   10.70    2.90
   3   2  22    8.40    3.00
  -4  -2 -22   19.00    3.80
   4  -2  22   22.30    3.40
   4  -2  22   27.10    5.00
   4  -2  22   20.20    4.50
  -4  -2 -22   23.70    3.30
   4   2  22   21.20    4.10
   4   2  22   26.00    5.00
   4   2  22   24.50    4.50
  -4   2 -22   17.70    3.30
   4   2  22   21.20    3.90
  -5  -2 -22   60.59    5.90
   5  -2  22   50.09    4.80
   5  -2  22   75.09    8.70
   5  -2  22   54.29    8.30
  -5  -2 -22   65.79    4.90
   5   2  22   56.79    5.80
  -5   2 -22   60.79    5.00
   5   2  22   74.59    7.40
   5   2  22   64.79    9.00
   5   2  22   55.19    6.40
  -6  -2 -22    2.00    2.40
   6  -2  22   -1.60    6.00
   6  -2  22    5.50    2.80
  -6  -2 -22   -1.40    2.40
   6  -2  22    2.30    4.60
   6   2  22    2.20    3.70
   6   2  22   11.50    6.10
   6   2  22    6.10    4.30
   6   2  22    3.90    2.60
  -6   2 -22    0.30    2.60
  -6  -3  22    6.80    3.80
  -6  -3  22    6.90    5.00
   6  -3 -22    2.20    2.40
  -6   3  22   13.70    6.00
  -5  -3  22    4.70    4.00
   5  -3 -22    8.10    2.90
  -5  -3  22    5.30    4.40
  -5  -3  22    6.80    3.50
   5   3 -22    2.40    2.70
  -5   3  22    5.20    7.90
  -5   3  22    9.10    5.50
  -5   3  22    2.10    3.20
  -4  -3  22   16.00    3.00
  -4  -3  22   17.00    3.20
  -4  -3  22   18.70    5.00
   4  -3 -22   12.70    2.90
  -4  -3  22   21.70    4.00
  -4   3  22    4.40    5.20
  -4   3  22   15.70    3.80
   4   3 -22   15.90    3.50
  -4   3  22   10.80    6.50
   3  -3 -22    1.90    2.10
  -3  -3  22    0.20    4.60
  -3  -3  22    8.70    3.50
  -3  -3  22    3.90    2.30
  -3   3  22   -4.00    4.10
  -3   3  22   -1.30    4.90
   3   3 -22   -0.80    2.30
  -3   3  22    4.90    2.90
   2  -3 -22   -1.40    2.30
  -2  -3  22    5.90    4.50
  -2  -3  22    1.50    3.20
  -2   3  22   -4.40    5.40
  -2   3  22    2.50    2.50
  -2   3  22   -0.10    4.30
   2   3 -22    1.60    2.40
  -1  -3  22  101.19    6.60
   1  -3 -22  107.09    6.50
  -1  -3  22  111.49    9.50
  -1  -3  22  124.59    7.90
  -1   3  22  118.79   10.20
  -1   3  22  115.19   10.10
   1   3 -22  106.69    7.50
  -1   3  22   88.99    6.20
   0  -3  22   -1.40    4.40
   0  -3  22    3.90    2.70
   0  -3 -22   -1.60    2.20
   0  -3  22    4.10    3.70
   0   3  22    3.90    3.00
   0   3  22    8.00    5.20
   0   3  22   -6.60    4.60
   0   3 -22    1.30    2.50
   1  -3  22   46.90    6.80
   1  -3  22   32.60    4.60
   1  -3  22   40.60    6.10
  -1  -3 -22   46.90    4.50
   1   3  22   37.40    6.00
   1   3  22   43.70    6.70
   1   3  22   39.20    5.10
  -1   3 -22   49.99    4.60
   2  -3  22   20.50    6.10
   2  -3  22    5.50    4.40
  -2  -3 -22    4.90    2.70
   2  -3  22    6.30    2.80
  -2   3 -22    5.50    2.70
   2   3  22    4.50    5.20
   2   3  22    2.10    3.10
   3  -3  22    2.30    5.60
  -3  -3 -22    1.80    3.00
   3  -3  22   -2.10    2.70
  -3  -3 -22   -3.50    2.60
   3  -3  22   -4.10    5.10
   3   3  22   -4.20    5.00
   3   3  22    3.80    4.50
  -3   3 -22   -4.30    2.50
   3   3  22    0.90    3.20
  -4  -3 -22   -2.80    2.90
   4  -3  22   -1.90    4.70
  -4  -3 -22    2.80    2.80
   4  -3  22    0.10    3.80
   4  -3  22   -1.20    2.60
  -4   3 -22    3.10    2.60
   4   3  22   -2.80    2.70
   4   3  22    4.00    6.00
   4   3  22   12.30    4.50
   9   0 -23   13.40    3.40
  -9   0  23    6.90    5.30
  -9   0  23    6.90    4.90
  -9   0  23   11.60    4.90
   9   0 -23    7.60    3.30
  -8   0  23    0.10    4.30
  -8   0  23   11.70    5.20
  -8   0  23   -1.10    3.80
   8   0 -23   -4.50    2.40
   7   0 -23  119.69    6.30
  -7   0  23  107.89   10.70
  -7   0  23  115.39    9.00
  -7   0  23  107.89    8.90
  -6   0  23    5.70    4.80
  -6   0  23   -0.30    3.40
   6   0 -23    0.20    2.10
  -6   0  23   -6.50    3.50
  -5   0  23    1.00    4.10
   5   0 -23    4.70    2.10
  -5   0  23   -4.40    3.50
  -5   0  23    0.40    3.20
   4   0 -23   -3.00    1.90
  -4   0  23    7.60    4.30
  -4   0  23   -1.00    3.20
  -4   0  23   -0.60    3.40
  -3   0  23   24.50    3.10
  -3   0  23   24.10    3.60
   3   0 -23   27.30    3.10
  -3   0  23   21.40    4.50
  -3   0  23   22.40    4.30
  -2   0  23   -3.20    3.80
  -2   0  23   -0.90    3.00
  -2   0  23    0.00    2.40
  -2   0  23   -2.20    2.50
   2   0 -23    4.10    1.80
  -1   0  23    6.10    2.90
  -1   0  23   12.20    2.60
  -1   0  23    8.20    4.00
  -1   0  23   14.90    2.80
   1   0 -23   15.50    2.20
   0   0 -23    6.10    2.30
   0   0  23    4.80    2.70
   0   0 -23   -1.50    1.80
   0   0  23    6.70    2.40
   0   0  23    2.10    3.80
   0   0  23    1.60    2.40
   1   0  23   68.59    3.80
   1   0  23   70.59    4.30
   1   0  23   67.79    6.70
   1   0  23   78.99    8.00
  -1   0 -23   59.09    5.10
   2   0  23    1.00    3.30
  -2   0 -23   -0.20    2.30
   2   0  23    2.30    3.60
   2   0  23   -2.70    2.30
   3   0  23    7.30    4.10
   3   0  23    8.50    3.80
   3   0  23   14.80    2.80
   3   0  23   11.10    3.00
  -3   0 -23    8.70    3.00
   4   0  23   -0.10    3.30
   4   0  23   -5.30    4.50
  -4   0 -23   -1.90    2.30
   4   0  23   -4.80    2.30
   4   0  23    0.20    2.20
   5   0  23   85.59    5.20
  -5   0 -23   75.39    5.90
   5   0  23   88.99    9.40
   5   0  23   85.39    6.40
   5   0  23   94.99    7.90
   6   0  23   -0.20    2.90
   6   0  23   -1.70    2.50
  -6   0 -23   -1.90    2.40
   6   0  23   -2.80    4.50
   7   0  23  115.79    7.60
   7   0  23  125.69    6.40
   7   0  23   82.89   11.70
   7   0  23  126.09    9.10
  -7   0 -23  123.79    7.60
   8  -1 -23    4.20    2.50
  -8  -1  23   -5.70    5.10
  -8  -1  23    2.20    4.30
  -8  -1  23    3.20    4.30
  -8   1  23   10.30    5.60
  -8   1  23    4.60    5.10
   8   1 -23    4.60    2.50
   7  -1 -23   55.59    4.80
  -7  -1  23   50.69    7.10
  -7  -1  23   54.09    7.10
  -7  -1  23   59.09    8.30
  -7   1  23   43.90    6.70
  -7   1  23   57.19    8.20
   7   1 -23   57.79    4.50
   6  -1 -23    2.10    2.40
  -6  -1  23    1.90    3.30
  -6  -1  23    6.70    4.10
  -6  -1  23    5.70    4.60
   6   1 -23    3.00    2.20
  -6   1  23    1.90    5.70
  -6   1  23    4.20    4.60
   5  -1 -23   -2.20    2.20
  -5  -1  23   -0.30    4.20
  -5  -1  23    2.50    3.70
  -5  -1  23    1.00    3.30
   5   1 -23    2.20    2.00
  -5   1  23    1.70    4.20
  -5   1  23    3.80    4.60
  -4  -1  23   98.89    9.20
  -4  -1  23  118.79    7.00
  -4  -1  23  116.89    8.40
   4  -1 -23  113.59    6.10
  -4   1  23  129.39    8.40
   4   1 -23  122.99    5.50
  -4   1  23  114.99    9.90
  -3  -1  23   18.30    4.20
  -3  -1  23   21.60    4.70
   3  -1 -23   18.20    2.60
  -3  -1  23   11.90    3.00
  -3   1  23    9.10    3.40
  -3   1  23   12.70    2.90
  -3   1  23   17.40    5.10
   3   1 -23   18.20    2.20
  -2  -1  23   13.50    3.00
  -2  -1  23   18.30    4.60
  -2  -1  23   11.20    3.70
   2  -1 -23    8.40    2.20
  -2  -1  23   14.00    2.30
  -2   1  23   22.20    5.10
  -2   1  23   15.30    3.30
  -2   1  23   10.80    3.00
  -1  -1  23    1.50    2.50
  -1  -1  23    1.20    3.10
  -1  -1  23    1.00    3.70
   1  -1 -23    3.60    2.20
  -1   1  23    4.30    2.90
  -1   1  23    2.70    2.20
   0  -1  23   43.50    5.50
   0  -1  23   42.40    5.50
   0  -1  23   40.70    4.00
   0  -1 -23   49.99    3.80
   0   1  23   44.30    6.50
   0   1  23   44.70    4.70
   0   1  23   57.59    7.90
   0   1  23   50.79    5.60
   0   1 -23   45.70    4.60
  -1  -1 -23   11.40    2.20
   1  -1  23   13.00    4.20
   1  -1  23   11.10    2.80
  -1  -1 -23   10.80    3.00
   1  -1  23    5.30    3.30
  -1   1 -23   11.80    2.60
   1   1  23   12.60    5.00
   1   1  23   11.50    3.60
   1   1  23   11.00    3.00
   1   1  23   14.90    3.50
   2  -1  23    2.80    3.70
  -2  -1 -23    0.00    1.90
  -2  -1 -23    0.40    2.50
   2  -1  23   -0.60    3.70
   2  -1  23    0.90    2.40
   2   1  23    4.30    4.50
   2   1  23   -1.20    2.20
  -2   1 -23   -0.40    2.20
   2   1  23   -1.30    2.30
   2   1  23   -1.80    3.50
   3  -1  23   -0.90    4.20
   3  -1  23   -2.70    2.30
   3  -1  23    3.60    3.70
  -3  -1 -23    0.40    2.10
  -3  -1 -23   -2.60    2.00
  -3   1 -23    0.20    2.20
   3   1  23    0.70    2.20
   3   1  23    0.80    3.80
   3   1  23    1.40    2.50
   3   1  23    1.20    3.20
   4  -1  23    2.90    2.50
   4  -1  23    7.40    4.70
  -4  -1 -23    3.20    2.40
  -4  -1 -23    1.20    2.50
   4  -1  23   -6.70    3.40
   4   1  23    0.10    2.40
   4   1  23    2.50    2.60
   4   1  23    0.80    4.10
  -4   1 -23    2.80    2.30
   4   1  23    1.80    3.70
   5  -1  23   71.89    5.30
  -5  -1 -23   78.69    6.00
   5  -1  23   72.29    7.50
   5  -1  23   89.19    9.20
   5   1  23   59.79    6.00
  -5   1 -23   60.79    5.60
   5   1  23   75.59    7.80
   5   1  23   78.49    4.90
   5   1  23   76.09    8.80
   6  -1  23   32.60    4.30
   6  -1  23   48.90    7.10
   6  -1  23   33.50    6.00
  -6  -1 -23   34.60    4.70
  -6   1 -23   33.40    4.60
   6   1  23   46.20    5.60
   6   1  23   23.10    7.00
   6   1  23   22.10    7.90
   6   1  23   32.40    4.00
   6   1  23   28.40    4.90
   7  -1  23   25.10    5.40
   7   1  23   21.00    4.30
   7  -2 -23    2.00    2.40
  -7  -2  23   -1.30    3.80
  -7  -2  23    7.20    5.00
  -7  -2  23   -2.70    4.00
  -7   2  23    5.60    5.10
  -7   2  23    4.00    3.00
   7   2 -23    0.10    2.50
  -7   2  23    4.10    4.50
   6  -2 -23   18.80    3.50
  -6  -2  23   16.20    4.90
  -6  -2  23   20.20    4.40
  -6  -2  23   22.70    4.20
  -6   2  23   25.60    5.50
  -6   2  23   25.90    3.60
  -6   2  23   12.50    7.50
   6   2 -23   20.40    3.90
  -5  -2  23    4.20    3.80
  -5  -2  23    1.50    3.20
   5  -2 -23   -0.60    2.50
  -5  -2  23    4.50    4.20
  -5   2  23   -7.40    4.20
  -5   2  23   -6.50    5.40
   5   2 -23   -0.10    2.80
  -5   2  23    3.70    2.60
   4  -2 -23   39.30    4.20
  -4  -2  23   48.70    7.00
  -4  -2  23   39.00    4.80
  -4  -2  23   37.30    5.80
  -4   2  23   35.00    5.60
   4   2 -23   39.80    4.70
  -4   2  23   34.50    4.20
  -4   2  23   47.90    6.90
  -3  -2  23   32.30    4.20
  -3  -2  23   24.10    4.30
   3  -2 -23   24.90    3.70
  -3   2  23   24.00    4.50
  -3   2  23   30.90    6.40
  -3   2  23   31.80    3.90
   2  -2 -23  189.08    8.30
  -2  -2  23  176.28   10.50
  -2  -2  23  173.48    8.40
  -2  -2  23  186.38   10.40
  -2   2  23  179.68   11.60
  -2   2  23  182.48   10.30
  -2   2  23  179.88    8.80
  -1  -2  23    1.90    3.60
  -1  -2  23    2.30    2.60
   1  -2 -23   -0.80    2.10
  -1  -2  23    3.50    3.90
  -1   2  23    0.20    3.80
  -1   2  23   -1.50    4.60
  -1   2  23   -0.20    2.40
   0  -2  23    8.00    3.60
   0  -2  23   -0.70    2.50
   0  -2 -23   -1.80    2.30
   0  -2  23   -4.40    3.80
   0   2  23    4.00    2.90
   0   2  23    3.00    3.90
   0   2  23   -3.70    4.30
   1  -2  23    0.50    3.90
   1  -2  23    2.10    2.50
   1  -2  23    3.80    3.80
  -1  -2 -23   -0.40    2.30
  -1   2 -23   -0.50    2.20
   1   2  23   -0.30    2.30
   1   2  23   -6.90    3.70
   1   2  23    8.60    5.30
   2  -2  23    8.10    3.90
  -2  -2 -23    8.40    3.60
  -2  -2 -23   10.60    2.60
   2  -2  23    8.50    2.90
   2   2  23    8.10    3.10
   2   2  23   19.80    5.00
   2   2  23    9.20    4.00
  -2   2 -23    8.60    3.00
  -3  -2 -23   -1.80    2.20
   3  -2  23   -0.10    3.90
   3  -2  23   -1.90    2.30
  -3  -2 -23   -1.80    2.70
   3  -2  23    2.90    4.10
  -3   2 -23   -0.80    2.60
   3   2  23    0.70    2.60
   3   2  23   -3.20    4.30
   3   2  23    2.10    3.30
   4  -2  23   34.60    5.40
  -4  -2 -23   22.70    2.90
   4  -2  23   16.60    5.30
   4  -2  23   22.10    3.50
  -4  -2 -23   19.60    4.10
   4   2  23   22.20    4.00
   4   2  23   28.90    4.90
  -4   2 -23   19.60    3.50
   4   2  23   26.90    7.20
   4   2  23   20.10    3.60
  -5  -2 -23   -3.70    3.00
   5  -2  23   -6.50    5.30
  -5  -2 -23    8.00    2.80
   5  -2  23   -0.50    5.60
   5  -2  23    2.50    2.70
  -5   2 -23   -1.60    2.40
   5   2  23    1.40    5.00
   5   2  23   -1.70    2.80
   5   2  23    2.60    4.00
   5   2  23   -0.10    4.10
  -3  -3  23   -1.30    5.70
  -3  -3  23    4.30    4.10
   3  -3 -23    2.50    2.40
  -3  -3  23   10.70    6.10
   3   3 -23    7.00    3.30
  -3   3  23    3.50    5.00
  -3   3  23   -7.30    4.50
  -3   3  23    0.20    3.00
  -2  -3  23   10.10    6.10
  -2  -3  23    6.10    3.90
  -2  -3  23   -1.10    2.80
   2  -3 -23    1.60    2.30
  -2   3  23   -0.90    2.40
  -2   3  23    2.10    6.40
   2   3 -23    0.20    2.40
  -2   3  23   -4.30    5.30
  -1  -3  23   39.80    7.90
   1  -3 -23   42.00    4.70
  -1  -3  23   39.90    4.80
  -1  -3  23   42.80    5.40
  -1   3  23   61.29    9.60
  -1   3  23   40.60    4.70
  -1   3  23   28.70    7.50
   1   3 -23   37.00    5.20
   0  -3  23    7.60    6.00
   0  -3  23   17.10    4.30
   0  -3  23   13.60    3.20
   0  -3 -23   11.90    3.20
   0   3  23   10.70    3.60
   0   3  23    7.40    7.20
   0   3  23   19.10    6.40
  -1  -3 -23    7.40    2.60
   1  -3  23   11.50    3.20
   1  -3  23    0.80    4.10
   1  -3  23    1.60    4.20
  -1   3 -23    6.60    3.00
   1   3  23   -0.20    6.40
   1   3  23    3.70    3.30
   1   3  23   10.30    5.90
  -2   3 -23  117.49    6.90
   2   3  23  116.79   10.40
  -8   0  24    1.90    5.00
  -8   0  24    6.90    4.60
  -7   0  24    4.70    5.70
  -7   0  24    0.70    4.20
   7   0 -24   -2.20    2.40
  -7   0  24   10.20    4.60
   6   0 -24   -3.80    2.30
  -6   0  24   -4.10    4.00
  -6   0  24    4.70    5.10
  -6   0  24    5.80    4.10
  -5   0  24    0.30    3.90
  -5   0  24   -0.30    4.80
   5   0 -24    0.30    2.20
  -5   0  24    3.00    4.00
   4   0 -24   29.90    3.70
  -4   0  24   31.40    3.50
  -4   0  24   34.90    4.60
  -4   0  24   40.40    6.10
  -4   0  24   33.80    5.00
  -3   0  24   -8.90    4.10
  -3   0  24   -0.70    2.60
  -3   0  24    1.50    3.00
  -3   0  24   -0.70    3.60
   3   0 -24    0.70    2.20
  -2   0  24   85.29    4.90
  -2   0  24   98.49    9.10
   2   0 -24   85.49    4.70
  -2   0  24   89.69    8.10
  -2   0  24   91.29    5.90
  -1   0  24   -0.10    2.40
  -1   0  24   -0.60    4.40
  -1   0  24   -0.40    3.40
   1   0 -24   -0.70    2.10
  -1   0  24    1.70    2.50
   0   0  24   28.50    3.90
   0   0 -24   24.60    3.70
   0   0 -24   33.10    3.20
   0   0  24   33.00    4.00
   0   0  24   31.50    6.00
   0   0  24   28.40    4.80
   1   0  24    0.70    2.50
   1   0  24    3.60    3.50
   1   0  24   -1.80    1.60
   1   0  24    1.10    4.30
  -1   0 -24    2.70    2.20
  -2   0 -24   32.20    4.20
   2   0  24   35.10    5.20
   2   0  24   26.50    4.90
   2   0  24   34.20    3.80
   3   0  24   -1.30    2.70
   3   0  24   -2.90    2.10
   3   0  24   -1.70    4.40
   3   0  24    0.90    3.70
  -3   0 -24    3.10    2.20
  -4   0 -24   11.80    3.10
   4   0  24   21.30    2.90
   4   0  24   21.30    4.30
   4   0  24   13.10    3.50
   4   0  24   17.90    4.90
  -5   0 -24    4.40    2.60
   5   0  24    4.20    4.20
   5   0  24   -3.10    2.30
   5   0  24   -0.80    2.70
   5   0  24    0.40    5.40
   6   0  24   50.99    4.70
   6   0  24   49.20    6.40
   6   0  24   36.80    5.10
   7  -1 -24   32.70    4.00
  -7  -1  24   29.70    5.30
  -7  -1  24   47.70    7.20
  -7  -1  24   40.90    6.50
  -7   1  24   37.80    6.40
   7   1 -24   36.00    4.00
  -7   1  24   31.50    8.70
  -6  -1  24    3.60    5.30
  -6  -1  24    7.10    3.90
  -6  -1  24   16.80    4.70
   6  -1 -24   12.00    3.10
   6   1 -24    8.90    2.50
  -6   1  24    5.70    5.20
  -6   1  24    5.60    5.70
   5  -1 -24   29.30    3.90
  -5  -1  24   19.70    4.60
  -5  -1  24   19.10    5.00
  -5  -1  24   24.10    4.10
  -5   1  24   15.80    5.70
   5   1 -24   24.50    3.30
  -5   1  24   15.70    4.70
  -4  -1  24    3.90    3.80
  -4  -1  24    7.50    4.50
   4  -1 -24   -2.20    2.00
  -4  -1  24    1.20    3.40
   4   1 -24    5.30    2.10
  -4   1  24   -7.90    5.40
  -4   1  24    3.80    3.80
  -4   1  24    3.30    2.50
  -3  -1  24   -4.40    2.70
  -3  -1  24    4.90    4.40
  -3  -1  24    6.90    4.00
   3  -1 -24    3.70    2.00
  -3  -1  24    2.90    2.50
  -3   1  24   -2.80    4.70
   3   1 -24    2.90    2.00
  -3   1  24   -1.80    3.50
  -3   1  24    0.50    2.40
  -2  -1  24   31.80    4.10
  -2  -1  24   25.80    3.10
  -2  -1  24   17.90    4.40
   2  -1 -24   27.00    3.50
  -2  -1  24   27.50    5.50
  -2   1  24   21.10    3.60
  -2   1  24   24.30    4.10
  -2   1  24   33.40    5.90
  -1  -1  24   23.60    5.10
  -1  -1  24   30.00    4.60
   1  -1 -24   28.40    3.40
  -1  -1  24   33.90    4.20
  -1   1  24   30.70    4.10
  -1   1  24   25.40    4.80
  -1   1  24   24.50    3.80
  -1   1  24   29.60    5.70
   0  -1  24    3.30    4.10
   0  -1  24    0.40    2.40
   0  -1 -24    1.10    2.20
   0  -1  24   -0.50    3.40
   0   1 -24    2.50    2.60
   0   1  24    3.40    2.40
   0   1  24    1.70    3.50
   0   1  24    4.70    3.70
   0   1  24   -0.60    4.50
  -1  -1 -24    4.40    2.20
   1  -1  24    2.70    4.00
  -1  -1 -24    2.50    2.40
   1  -1  24   -2.90    3.40
   1  -1  24    8.20    2.60
   1   1  24    5.20    5.20
   1   1  24    1.40    3.30
  -1   1 -24    3.70    2.30
   1   1  24    9.40    4.00
   1   1  24    3.10    2.60
  -2  -1 -24   36.20    4.70
   2  -1  24   35.50    5.60
   2  -1  24   41.90    5.60
   2  -1  24   33.20    4.10
  -2  -1 -24   36.80    3.60
   2   1  24   39.70    4.50
   2   1  24   35.50    4.90
  -2   1 -24   33.90    4.10
   2   1  24   33.60    4.80
   2   1  24   55.29    8.70
  -3  -1 -24   15.90    3.40
  -3  -1 -24   13.20    2.70
   3  -1  24    6.70    3.80
   3  -1  24   12.20    4.80
   3  -1  24   16.10    3.20
   3   1  24   12.80    5.20
   3   1  24    9.10    2.70
  -3   1 -24   12.10    3.00
   3   1  24   10.70    3.30
   3   1  24   10.30    3.90
   4  -1  24   -6.70    4.10
  -4  -1 -24   -1.90    2.30
   4  -1  24   -2.40    2.60
   4  -1  24    4.50    4.50
   4   1  24    0.50    2.60
   4   1  24   -1.30    5.60
  -4   1 -24    4.20    2.70
   4   1  24    0.40    2.70
   4   1  24    2.40    3.60
   5  -1  24   33.70    4.50
   5  -1  24   24.70    4.70
  -5  -1 -24   20.30    4.00
   5  -1  24   30.10    6.20
   5   1  24   24.20    4.50
   5   1  24   27.60    3.30
  -5   1 -24   22.30    3.80
   5   1  24   24.50    5.30
   5  -2 -24   35.20    4.30
  -5  -2  24   30.80    5.10
  -5  -2  24   34.50    6.10
  -5  -2  24   43.80    6.10
  -5   2  24   33.20    6.00
  -5   2  24   31.50    4.40
  -4  -2  24    1.80    4.00
   4  -2 -24    3.30    2.60
  -4  -2  24   -1.60    3.00
  -4   2  24   -0.10    2.80
  -4   2  24   -6.00    7.20
  -4   2  24   -9.90    4.60
   3  -2 -24    2.80    2.50
  -3  -2  24   -0.50    2.70
  -3  -2  24   -5.30    4.20
  -3  -2  24    2.10    4.00
  -3   2  24    1.10    5.80
  -3   2  24   -7.80    3.70
  -3   2  24   -2.20    2.40
   2  -2 -24   95.99    5.70
  -2  -2  24   89.79    6.00
  -2  -2  24   90.19    8.80
  -2  -2  24   95.99    8.60
  -2   2  24   95.29    6.50
  -2   2  24   84.09   11.10
  -2   2  24  107.59    8.80
   1  -2 -24   16.10    2.80
  -1  -2  24   13.60    4.20
  -1  -2  24    6.70    4.30
  -1  -2  24   10.50    3.00
  -1   2  24   10.10    4.90
  -1   2  24    8.00    5.50
  -1   2  24   18.70    3.80
   0  -2  24    6.30    2.80
   0  -2 -24    7.50    2.60
   0  -2  24    8.70    4.40
   0  -2  24   -0.60    4.50
   0   2  24    5.40    2.80
   0   2  24    6.80    6.10
   0   2  24   16.50    5.30
  -1  -2 -24    8.20    2.70
   1  -2  24    4.30    2.80
   1  -2  24    3.40    4.40
   1  -2  24    2.30    4.50
   1   2  24   -0.40    4.40
   1   2  24    5.50    2.80
   1   2  24   14.50    6.60
  -1   2 -24    8.80    2.90
   2  -2  24    7.30    4.70
   2  -2  24   -2.10    4.70
  -2  -2 -24    3.50    2.40
  -2  -2 -24    3.50    2.60
   2  -2  24    5.00    2.80
   2   2  24    8.20    7.10
  -2   2 -24    2.50    2.40
   2   2  24    5.30    3.10
   2   2  24    1.40    4.20
   3  -2  24    0.80    5.30
  -3  -2 -24    7.40    3.00
  -3  -2 -24    3.50    2.60
   3  -2  24    6.20    3.00
   3  -2  24   -5.80    5.00
  -3   2 -24   10.10    2.90
   3   2  24    7.30    3.90
   3   2  24   -4.20    4.20
   3   2  24   -2.80    2.60
   3   2  24   -1.90    4.70
  -6   0  25   -8.30    5.40
  -6   0  25    3.60    4.80
  -6   0  25    6.00    5.10
   6   0 -25   -1.60    2.60
   5   0 -25    3.90    2.50
  -5   0  25    4.50    5.60
  -5   0  25   -2.10    4.00
  -5   0  25   -0.40    4.60
  -4   0  25   -0.20    3.60
  -4   0  25    0.30    2.90
  -4   0  25    1.30    4.30
  -4   0  25    4.40    5.30
   4   0 -25    1.20    2.30
  -3   0  25   18.10    5.80
  -3   0  25   22.50    3.40
  -3   0  25   19.30    4.50
  -3   0  25   24.60    4.10
   3   0 -25   21.70    3.10
  -2   0  25    0.50    2.80
  -2   0  25   -3.10    2.90
  -2   0  25    2.30    5.20
   2   0 -25   -2.10    2.30
  -2   0  25    2.00    4.10
  -1   0  25   11.50    3.10
  -1   0  25   14.50    3.00
   1   0 -25   16.40    2.90
  -1   0  25    9.60    4.30
  -1   0  25   28.30    6.20
   0   0  25   -2.70    5.60
   0   0  25   -3.00    3.60
   0   0  25    1.60    2.80
   0   0  25    0.70    2.70
   1   0  25   26.70    6.00
   1   0  25   30.60    3.40
   1   0  25   28.40    4.60
  -1   0 -25   30.30    4.40
   2   0  25   10.60    5.40
   2   0  25   -2.40    2.70
  -2   0 -25   -0.60    2.50
   2   0  25   -4.30    3.80
   3   0  25    5.40    2.70
   3   0  25   -4.20    4.20
  -3   0 -25    7.40    3.00
   3   0  25    1.80    2.70
   3   0  25   -3.60    5.00
   4   0  25   -1.40    3.00
  -4   0 -25   -4.10    2.50
   4   0  25    1.50    6.40
   4   0  25    1.00    4.50
   4   0  25    2.20    3.00
  -5  -1  25    3.90    4.70
  -5  -1  25  -10.50    5.50
  -5  -1  25    5.20    3.80
   5  -1 -25    0.90    2.60
  -5   1  25    6.40    4.70
   5   1 -25    0.10    2.20
  -5   1  25   -7.70    6.70
  -5   1  25    3.60    2.50
  -4  -1  25   14.40    5.40
  -4  -1  25    1.70    3.90
  -4  -1  25    1.90    4.30
   4  -1 -25    8.90    2.80
  -4   1  25    1.50    2.60
   4   1 -25    6.20    2.40
  -4   1  25   15.00    5.90
  -4   1  25   -0.30    4.40
  -3  -1  25    6.80    3.00
   3  -1 -25    9.30    2.80
  -3  -1  25    9.20    4.50
  -3  -1  25    7.30    5.40
  -3  -1  25    8.70    2.90
  -3   1  25    9.00    3.10
  -3   1  25    3.00    4.50
  -3   1  25   13.90    3.90
  -3   1  25    4.40    5.60
  -2  -1  25    3.80    2.80
  -2  -1  25   -1.90    2.20
  -2  -1  25   -3.70    4.10
   2  -1 -25   -0.40    2.50
  -2  -1  25   -9.10    5.00
  -2   1  25    4.30    3.30
  -2   1  25    8.00    4.60
  -2   1  25    2.90    2.70
  -2   1  25    6.30    4.90
  -1  -1  25   31.60    5.90
  -1  -1  25   18.70    4.60
  -1  -1  25   22.60    3.30
   1  -1 -25   27.70    3.60
  -1   1  25   15.70    5.80
  -1   1  25   18.40    3.60
  -1   1  25   29.20    4.40
  -1   1  25   24.40    4.70
   0  -1 -25   24.90    3.00
   0  -1  25   18.90    3.30
   0  -1  25   14.60    5.10
   0  -1  25   22.40    5.30
   0   1  25   24.80    4.40
   0   1  25   17.00    3.30
   0   1  25   22.60    6.30
   0   1  25   30.10    4.40
   1  -1  25   45.60    4.40
  -1  -1 -25   43.90    3.90
   1  -1  25   55.39    6.90
   1  -1  25   31.40    5.60
  -1  -1 -25   40.30    5.10
   1   1  25   37.20    6.70
   1   1  25   43.40    4.80
   1   1  25   41.30    5.50
   1   1  25   46.50    6.40
  -1   1 -25   36.90    5.00
  -2  -1 -25   55.79    4.60
   2  -1  25   59.99    5.10
  -2  -1 -25   62.09    5.80
   2  -1  25   68.09    9.00
   2  -1  25   47.10    6.70
   2   1  25   59.69    8.30
   2   1  25   71.59    5.50
   2   1  25   53.69    5.60
   2   1  25   41.20    7.60
  -2   1 -25   53.79    5.00
   3  -1  25    5.90    5.70
  -3  -1 -25    3.90    2.60
   3  -1  25    9.60    5.00
   3  -1  25   -0.60    2.80
  -3   1 -25    1.20    2.60
   3   1  25    2.30    2.80
   3   1  25   10.50    5.90
   3   1  25    2.20    3.20
   3   1  25   -3.80    4.20
  -2  -2  25   30.10    4.20
  -2  -2  25   34.60    5.90
   2  -2 -25   31.80    4.20
  -2   2  25   31.80    5.40
  -2   2  25   30.80    4.30
  -1  -2  25   34.20    6.10
   1  -2 -25   49.70    4.60
  -1  -2  25   44.80    5.00
  -1   2  25   46.00    5.40
  -1   2  25   49.30    6.20
   0  -2  25    9.10    5.40
   0  -2 -25    0.90    2.50
   0  -2  25    1.10    3.10
   0   2  25   16.20    5.60
   0   2  25    0.10    2.70
   4   0 -26    3.70    2.90
  -4   0  26   -0.30    3.00
  -4   0  26    0.60    3.90
  -3   0  26   -0.20    4.00
  -3   0  26    4.70    6.60
  -3   0  26    7.00    5.70
  -3   0  26   -2.90    3.90
   3   0 -26   -0.20    2.80
  -2   0  26    7.30    4.90
   2   0 -26   30.80    3.40
  -2   0  26   19.70    3.60
  -2   0  26   18.70    6.30
  -1   0  26    1.60    4.80
  -1   0  26    4.50    6.10
  -1   0  26   -2.50    3.50
   0   0  26  114.19    8.00
   0   0  26  124.49   11.60
   1   0  26   -8.90    5.70
   1   0  26   -0.30    4.20
  -1   0 -26   -1.10    2.50
   2   0  26    1.90    3.60
  -2   0 -26   19.20    4.00
   2   0  26    8.90    2.80
  -2  -1  26   37.70    6.30
  -2  -1  26   33.90    4.10
   2  -1 -26   29.10    3.60
  -2   1  26   24.10    3.90
  -2   1  26   39.10    5.50
  -1  -1  26    7.80    3.10
  -1  -1  26    0.70    5.40
  -1  -1  26    0.10    3.00
   1  -1 -26    9.10    2.70
  -1   1  26   10.00    4.40
  -1   1  26    5.00    5.70
  -1   1  26    9.80    3.40
   0  -1 -26   37.90    4.20
   0  -1  26   38.60    4.50
   0  -1  26   27.90    5.80
   0   1  26   27.60    4.60
   0   1  26   31.70    4.80
   0   0   0    0.00    0.00

_computing_structure_solution     'SHELXT 2014/5 (Sheldrick, 2014)'
;
_shelx_hkl_checksum              32823
_olex2_submission_special_instructions 'No special instructions were received'
loop_
_space_group_symop_operation_xyz
'x, y, z'
'-x+1/2, y+1/2, -z+1/2'
'-x, -y, -z'
'x-1/2, -y-1/2, z-1/2'
loop_
_atom_site_label
_atom_site_type_symbol
_atom_site_fract_x
_atom_site_fract_y
_atom_site_fract_z
_atom_site_U_iso_or_equiv
_atom_site_adp_type
_atom_site_occupancy
_atom_site_site_symmetry_order
_atom_site_calc_flag
_atom_site_refinement_flags_posn
_atom_site_refinement_flags_adp
_atom_site_refinement_flags_occupancy
_atom_site_disorder_assembly
_atom_site_disorder_group
O1 O 0.40380(8) 0.7089(2) 0.47808(5) 0.0283(2) Uani 1 1 d . . . . .
O2 O 0.21154(8) 0.7037(2) 0.36214(5) 0.0280(2) Uani 1 1 d . . . . .
O3 O 0.12355(7) 0.5160(2) 0.44206(5) 0.0281(2) Uani 1 1 d . . . . .
O4 O 0.96264(7) 1.1445(2) 0.29623(5) 0.0266(2) Uani 1 1 d . . . . .
H4 H 0.9674(16) 1.077(5) 0.2560(12) 0.060(6) Uiso 1 1 d . . . . .
N1 N 0.38031(8) 0.3887(2) 0.39688(5) 0.0215(3) Uani 1 1 d . . . . .
N2 N 0.51293(8) 0.4749(2) 0.33365(5) 0.0205(2) Uani 1 1 d . . . . .
C1 C 0.43288(10) 0.5985(3) 0.42902(6) 0.0216(3) Uani 1 1 d . . . . .
C2 C 0.52252(10) 0.6453(3) 0.38926(6) 0.0200(3) Uani 1 1 d . . . . .
C3 C 0.42938(10) 0.3337(3) 0.33948(6) 0.0204(3) Uani 1 1 d . . . . .
C4 C 0.38627(11) 0.1371(3) 0.29057(7) 0.0266(3) Uani 1 1 d . . . . .
H4A H 0.369288 -0.029412 0.313059 0.040 Uiso 1 1 calc GR . . . .
H4B H 0.437611 0.100008 0.258267 0.040 Uiso 1 1 calc GR . . . .
H4C H 0.323411 0.210761 0.268041 0.040 Uiso 1 1 calc GR . . . .
C5 C 0.27918(10) 0.3058(3) 0.41618(7) 0.0234(3) Uani 1 1 d . . . . .
H5A H 0.282936 0.259795 0.463587 0.028 Uiso 1 1 calc R . . . .
H5B H 0.256137 0.144773 0.390918 0.028 Uiso 1 1 calc R . . . .
C6 C 0.20234(10) 0.5325(3) 0.40289(6) 0.0219(3) Uani 1 1 d . . . . .
C7 C 0.04647(12) 0.7267(4) 0.43192(10) 0.0401(4) Uani 1 1 d . . . . .
H7A H 0.019070 0.724888 0.385950 0.060 Uiso 1 1 calc GR . . . .
H7B H 0.078595 0.900956 0.442061 0.060 Uiso 1 1 calc GR . . . .
H7C H -0.010179 0.696299 0.460907 0.060 Uiso 1 1 calc GR . . . .
C8 C 0.59625(10) 0.8257(3) 0.40821(6) 0.0208(3) Uani 1 1 d . . . . .
H8 H 0.582709 0.924118 0.446705 0.025 Uiso 1 1 calc R . . . .
C9 C 0.69275(10) 0.8938(3) 0.37945(6) 0.0198(3) Uani 1 1 d . . . . .
C10 C 0.73134(10) 0.7504(3) 0.32688(6) 0.0201(3) Uani 1 1 d . . . . .
H10 H 0.694667 0.597842 0.309982 0.024 Uiso 1 1 calc R . . . .
C11 C 0.82184(10) 0.8274(3) 0.29926(6) 0.0213(3) Uani 1 1 d . . . . .
H11 H 0.847057 0.727715 0.263834 0.026 Uiso 1 1 calc R . . . .
C12 C 0.87605(10) 1.0520(3) 0.32355(6) 0.0210(3) Uani 1 1 d . . . . .
C13 C 0.84197(11) 1.1874(3) 0.37823(7) 0.0238(3) Uani 1 1 d . . . . .
H13 H 0.881025 1.333213 0.396703 0.029 Uiso 1 1 calc R . . . .
C14 C 0.75145(10) 1.1093(3) 0.40546(6) 0.0227(3) Uani 1 1 d . . . . .
H14 H 0.728583 1.203304 0.442485 0.027 Uiso 1 1 calc R . . . .
loop_
_atom_site_aniso_label
_atom_site_aniso_U_11
_atom_site_aniso_U_22
_atom_site_aniso_U_33
_atom_site_aniso_U_23
_atom_site_aniso_U_13
_atom_site_aniso_U_12
O1 0.0300(5) 0.0326(6) 0.0240(5) -0.0063(4) 0.0150(4) -0.0035(4)
O2 0.0302(5) 0.0261(5) 0.0280(5) 0.0056(4) 0.0036(4) -0.0036(4)
O3 0.0216(5) 0.0295(5) 0.0342(6) 0.0062(4) 0.0083(4) 0.0009(4)
O4 0.0259(5) 0.0320(6) 0.0232(5) -0.0021(4) 0.0121(4) -0.0061(4)
N1 0.0229(5) 0.0219(6) 0.0207(5) 0.0004(4) 0.0100(4) -0.0006(4)
N2 0.0237(5) 0.0214(6) 0.0173(5) 0.0004(4) 0.0073(4) 0.0021(4)
C1 0.0234(6) 0.0227(6) 0.0194(6) 0.0012(5) 0.0079(5) 0.0015(5)
C2 0.0219(6) 0.0224(6) 0.0165(6) 0.0015(5) 0.0085(5) 0.0031(5)
C3 0.0242(6) 0.0192(6) 0.0183(6) 0.0030(5) 0.0067(5) 0.0038(5)
C4 0.0318(7) 0.0257(7) 0.0230(7) -0.0014(6) 0.0077(6) -0.0029(6)
C5 0.0245(7) 0.0218(7) 0.0249(7) 0.0025(5) 0.0099(5) -0.0024(5)
C6 0.0216(6) 0.0229(7) 0.0212(6) -0.0019(5) 0.0027(5) -0.0056(5)
C7 0.0242(7) 0.0365(9) 0.0609(11) 0.0119(8) 0.0122(7) 0.0068(7)
C8 0.0240(6) 0.0224(6) 0.0167(6) 0.0003(5) 0.0076(5) 0.0033(5)
C9 0.0215(6) 0.0215(6) 0.0169(6) 0.0033(5) 0.0058(5) 0.0018(5)
C10 0.0232(6) 0.0197(6) 0.0180(6) 0.0003(5) 0.0047(5) 0.0013(5)
C11 0.0246(6) 0.0227(6) 0.0175(6) 0.0002(5) 0.0080(5) 0.0031(5)
C12 0.0201(6) 0.0250(7) 0.0185(6) 0.0039(5) 0.0068(5) 0.0009(5)
C13 0.0265(7) 0.0241(7) 0.0215(6) -0.0015(5) 0.0058(5) -0.0024(5)
C14 0.0268(7) 0.0245(7) 0.0178(6) -0.0019(5) 0.0087(5) 0.0014(5)
loop_
_atom_type_symbol
_atom_type_description
_atom_type_scat_dispersion_real
_atom_type_scat_dispersion_imag
_atom_type_scat_source
C C 0.0033 0.0016 'International Tables Vol C Tables 4.2.6.8 and 6.1.1.4'
H H 0.0000 0.0000 'International Tables Vol C Tables 4.2.6.8 and 6.1.1.4'
N N 0.0061 0.0033 'International Tables Vol C Tables 4.2.6.8 and 6.1.1.4'
O O 0.0106 0.0060 'International Tables Vol C Tables 4.2.6.8 and 6.1.1.4'
loop_
_geom_angle_atom_site_label_1
_geom_angle_atom_site_label_2
_geom_angle_atom_site_label_3
_geom_angle
_geom_angle_site_symmetry_1
_geom_angle_site_symmetry_3
_geom_angle_publ_flag
C6 O3 C7 114.34(11) . . ?
C12 O4 H4 110.7(14) . . ?
C1 N1 C3 108.00(10) . . ?
C1 N1 C5 120.75(11) . . ?
C3 N1 C5 129.58(12) . . ?
C3 N2 C2 106.56(10) . . ?
O1 C1 N1 123.99(12) . . ?
O1 C1 C2 132.14(13) . . ?
N1 C1 C2 103.86(11) . . ?
N2 C2 C1 108.12(11) . . ?
C8 C2 N2 130.92(11) . . ?
C8 C2 C1 120.96(12) . . ?
N1 C3 C4 121.53(12) . . ?
N2 C3 N1 113.19(12) . . ?
N2 C3 C4 125.26(12) . . ?
C3 C4 H4A 109.5 . . ?
C3 C4 H4B 109.5 . . ?
C3 C4 H4C 109.5 . . ?
H4A C4 H4B 109.5 . . ?
H4A C4 H4C 109.5 . . ?
H4B C4 H4C 109.5 . . ?
N1 C5 H5A 109.8 . . ?
N1 C5 H5B 109.8 . . ?
N1 C5 C6 109.29(11) . . ?
H5A C5 H5B 108.3 . . ?
C6 C5 H5A 109.8 . . ?
C6 C5 H5B 109.8 . . ?
O2 C6 O3 124.60(13) . . ?
O2 C6 C5 124.14(12) . . ?
O3 C6 C5 111.26(11) . . ?
O3 C7 H7A 109.5 . . ?
O3 C7 H7B 109.5 . . ?
O3 C7 H7C 109.5 . . ?
H7A C7 H7B 109.5 . . ?
H7A C7 H7C 109.5 . . ?
H7B C7 H7C 109.5 . . ?
C2 C8 H8 114.7 . . ?
C2 C8 C9 130.60(12) . . ?
C9 C8 H8 114.7 . . ?
C10 C9 C8 122.85(12) . . ?
C14 C9 C8 119.14(12) . . ?
C14 C9 C10 118.01(12) . . ?
C9 C10 H10 119.4 . . ?
C11 C10 C9 121.12(12) . . ?
C11 C10 H10 119.4 . . ?
C10 C11 H11 120.1 . . ?
C10 C11 C12 119.88(12) . . ?
C12 C11 H11 120.1 . . ?
O4 C12 C11 122.37(12) . . ?
O4 C12 C13 117.99(12) . . ?
C13 C12 C11 119.64(12) . . ?
C12 C13 H13 120.0 . . ?
C14 C13 C12 119.98(13) . . ?
C14 C13 H13 120.0 . . ?
C9 C14 H14 119.4 . . ?
C13 C14 C9 121.18(12) . . ?
C13 C14 H14 119.4 . . ?
loop_
_geom_bond_atom_site_label_1
_geom_bond_atom_site_label_2
_geom_bond_distance
_geom_bond_site_symmetry_2
_geom_bond_publ_flag
O1 C1 1.2196(16) . ?
O2 C6 1.2015(17) . ?
O3 C6 1.3339(16) . ?
O3 C7 1.4548(18) . ?
O4 H4 0.89(2) . ?
O4 C12 1.3606(15) . ?
N1 C1 1.3896(18) . ?
N1 C3 1.3903(16) . ?
N1 C5 1.4485(16) . ?
N2 C2 1.4149(17) . ?
N2 C3 1.3010(17) . ?
C1 C2 1.4721(17) . ?
C2 C8 1.3502(19) . ?
C3 C4 1.4820(19) . ?
C4 H4A 0.9800 . ?
C4 H4B 0.9800 . ?
C4 H4C 0.9800 . ?
C5 H5A 0.9900 . ?
C5 H5B 0.9900 . ?
C5 C6 1.5189(19) . ?
C7 H7A 0.9800 . ?
C7 H7B 0.9800 . ?
C7 H7C 0.9800 . ?
C8 H8 0.9500 . ?
C8 C9 1.4505(17) . ?
C9 C10 1.4039(17) . ?
C9 C14 1.4010(19) . ?
C10 H10 0.9500 . ?
C10 C11 1.3832(18) . ?
C11 H11 0.9500 . ?
C11 C12 1.3960(19) . ?
C12 C13 1.3960(18) . ?
C13 H13 0.9500 . ?
C13 C14 1.3815(18) . ?
C14 H14 0.9500 . ?
loop_
_geom_hbond_atom_site_label_D
_geom_hbond_atom_site_label_H
_geom_hbond_atom_site_label_A
_geom_hbond_distance_DH
_geom_hbond_distance_HA
_geom_hbond_distance_DA
_geom_hbond_angle_DHA
_geom_hbond_site_symmetry_A
_geom_hbond_publ_flag
O4 H4 N2 0.89(2) 1.93(2) 2.8116(15) 173(2) 2_655 yes
loop_
_geom_torsion_atom_site_label_1
_geom_torsion_atom_site_label_2
_geom_torsion_atom_site_label_3
_geom_torsion_atom_site_label_4
_geom_torsion
_geom_torsion_site_symmetry_1
_geom_torsion_site_symmetry_2
_geom_torsion_site_symmetry_3
_geom_torsion_site_symmetry_4
_geom_torsion_publ_flag
O1 C1 C2 N2 -174.21(15) . . . . ?
O1 C1 C2 C8 5.9(2) . . . . ?
O4 C12 C13 C14 176.62(12) . . . . ?
N1 C1 C2 N2 4.39(14) . . . . ?
N1 C1 C2 C8 -175.46(12) . . . . ?
N1 C5 C6 O2 25.56(18) . . . . ?
N1 C5 C6 O3 -154.66(11) . . . . ?
N2 C2 C8 C9 -3.7(3) . . . . ?
C1 N1 C3 N2 4.55(15) . . . . ?
C1 N1 C3 C4 -174.03(12) . . . . ?
C1 N1 C5 C6 64.43(15) . . . . ?
C1 C2 C8 C9 176.14(13) . . . . ?
C2 N2 C3 N1 -1.57(15) . . . . ?
C2 N2 C3 C4 176.94(13) . . . . ?
C2 C8 C9 C10 -7.1(2) . . . . ?
C2 C8 C9 C14 173.86(14) . . . . ?
C3 N1 C1 O1 173.55(13) . . . . ?
C3 N1 C1 C2 -5.20(14) . . . . ?
C3 N1 C5 C6 -99.00(16) . . . . ?
C3 N2 C2 C1 -1.83(14) . . . . ?
C3 N2 C2 C8 178.00(14) . . . . ?
C5 N1 C1 O1 6.9(2) . . . . ?
C5 N1 C1 C2 -171.84(11) . . . . ?
C5 N1 C3 N2 169.61(12) . . . . ?
C5 N1 C3 C4 -9.0(2) . . . . ?
C7 O3 C6 O2 0.0(2) . . . . ?
C7 O3 C6 C5 -179.80(12) . . . . ?
C8 C9 C10 C11 177.68(12) . . . . ?
C8 C9 C14 C13 -177.71(13) . . . . ?
C9 C10 C11 C12 -0.28(19) . . . . ?
C10 C9 C14 C13 3.2(2) . . . . ?
C10 C11 C12 O4 -176.73(12) . . . . ?
C10 C11 C12 C13 4.0(2) . . . . ?
C11 C12 C13 C14 -4.1(2) . . . . ?
C12 C13 C14 C9 0.4(2) . . . . ?
C14 C9 C10 C11 -3.27(19) . . . . ?
