#------------------------------------------------------------------------------
#$Date: 2020-02-12 01:53:42 +0200 (Wed, 12 Feb 2020) $
#$Revision: 248050 $
#$URL: file:///home/coder/svn-repositories/cod/cif/4/13/41/4134161.cif $
#------------------------------------------------------------------------------
#
# This file is available in the Crystallography Open Database (COD),
# http://www.crystallography.net/
#
# All data on this site have been placed in the public domain by the
# contributors.
#
data_4134161
loop_
_publ_author_name
'Hou, Jingwei'
'Rios, Laura'
'Krajnc, Andra\<z'
'McCaul, Aoife'
'Li, Shichun'
'Bumstead, Alice'
'Sapnik, Adam'
'Deng, Zeyu'
'Lin, Rijia'
'Chater, Philip A.'
'Keeble, Dean S.'
'Keen, David A.'
'Appadoo, Dominique'
'Chan, Bun'
'Chen, Vicki'
'Mali, Gregor'
'Bennett, Thomas D.'
_publ_section_title
;
 Halogenated Metal-Organic Framework Glasses and Liquids.
;
_journal_name_full               'Journal of the American Chemical Society'
_journal_paper_doi               10.1021/jacs.9b11639
_journal_year                    2020
_chemical_formula_moiety         'C13.04 H12 Cl0.26 F0.26 N8 Zn2'
_chemical_formula_sum            'C13.04 H12 Cl0.26 F0.26 N8 Zn2'
_chemical_formula_weight         425.71
_chemical_melting_point          '679 K (onset)'
_chemical_name_common            ZIF-UC-2
_chemical_name_systematic        Zn(Im)1.87(ClFbIm)0.13
_space_group_crystal_system      orthorhombic
_space_group_IT_number           61
_space_group_name_Hall           '-P 2ac 2ab'
_space_group_name_H-M_alt        'P b c a'
_symmetry_cell_setting           orthorhombic
_symmetry_space_group_name_H-M   'P b c a'
_atom_sites_solution_hydrogens   geom
_audit_creation_method           SHELXL-2018/3
_cell_angle_alpha                90
_cell_angle_beta                 90
_cell_angle_gamma                90
_cell_formula_units_Z            8
_cell_length_a                   15.5560(5)
_cell_length_b                   15.6538(5)
_cell_length_c                   18.0875(6)
_cell_measurement_reflns_used    4413
_cell_measurement_temperature    293(2)
_cell_measurement_theta_max      63.9874
_cell_measurement_theta_min      2.4428
_cell_volume                     4404.5(2)
_computing_cell_refinement
;
CrysAlisPro, Agilent Technologies,
Version 1.171.37.34i (release 04-08-2014 CrysAlis171 .NET)
(compiled Aug  4 2014,14:34:23)
;
_computing_data_collection
;
CrysAlisPro, Agilent Technologies,
Version 1.171.37.34i (release 04-08-2014 CrysAlis171 .NET)
(compiled Aug  4 2014,14:34:23)
;
_computing_data_reduction
;
CrysAlisPro, Agilent Technologies,
Version 1.171.37.34i (release 04-08-2014 CrysAlis171 .NET)
(compiled Aug  4 2014,14:34:23)
;
_computing_structure_refinement  'SHELXL-2018/3 (Sheldrick, 2018)'
_computing_structure_solution    'SUPERFLIP (Palatinus & Chapuis, 2007)'
_diffrn_ambient_temperature      293(2)
_diffrn_detector                 'CCD plate'
_diffrn_detector_area_resol_mean 16.1183
_diffrn_detector_type            Eos
_diffrn_measured_fraction_theta_full 0.9281
_diffrn_measured_fraction_theta_max 0.9966
_diffrn_measurement_details
;
#__ type_ start__ end____ width___ exp.time_
  1 omega  -36.00   30.00   1.0000   14.4400
omega____ theta____ kappa____ phi______ frames
    -      -51.2500   30.0000  -30.0000 66

#__ type_ start__ end____ width___ exp.time_
  2 omega   47.00   72.00   1.0000    3.6100
omega____ theta____ kappa____ phi______ frames
    -        0.0000   57.0000 -180.0000 25

#__ type_ start__ end____ width___ exp.time_
  3 omega  -30.00   29.00   1.0000    3.6100
omega____ theta____ kappa____ phi______ frames
    -        0.0000   57.0000 -180.0000 59

#__ type_ start__ end____ width___ exp.time_
  4 omega   53.00  109.00   1.0000   14.4400
omega____ theta____ kappa____ phi______ frames
    -       51.2500   45.0000 -180.0000 56

#__ type_ start__ end____ width___ exp.time_
  5 omega  136.00  162.00   1.0000   14.4400
omega____ theta____ kappa____ phi______ frames
    -      102.5000  -21.0000  -90.0000 26

#__ type_ start__ end____ width___ exp.time_
  6 omega  144.00  177.00   1.0000   14.4400
omega____ theta____ kappa____ phi______ frames
    -      102.5000   24.0000  -34.8564 33

#__ type_ start__ end____ width___ exp.time_
  7 omega  147.00  172.00   1.0000   14.4400
omega____ theta____ kappa____ phi______ frames
    -      102.5000  104.0000   90.0000 25

#__ type_ start__ end____ width___ exp.time_
  8 omega  100.00  132.00   1.0000   14.4400
omega____ theta____ kappa____ phi______ frames
    -      102.5000  104.0000   90.0000 32

#__ type_ start__ end____ width___ exp.time_
  9 omega   82.00  108.00   1.0000   14.4400
omega____ theta____ kappa____ phi______ frames
    -      102.5000   77.0000   60.0000 26

#__ type_ start__ end____ width___ exp.time_
 10 omega  112.00  176.00   1.0000   14.4400
omega____ theta____ kappa____ phi______ frames
    -      102.5000  -21.0000  120.0000 64

#__ type_ start__ end____ width___ exp.time_
 11 omega   59.00   85.00   1.0000   14.4400
omega____ theta____ kappa____ phi______ frames
    -      102.5000  -54.0000   60.0000 26

#__ type_ start__ end____ width___ exp.time_
 12 omega   41.00   72.00   1.0000   14.4400
omega____ theta____ kappa____ phi______ frames
    -      102.5000 -104.0000  120.0000 31

#__ type_ start__ end____ width___ exp.time_
 13 omega   22.00   56.00   1.0000   14.4400
omega____ theta____ kappa____ phi______ frames
    -      102.5000  -32.0000   30.0000 34

#__ type_ start__ end____ width___ exp.time_
 14 omega   34.00   68.00   1.0000   14.4400
omega____ theta____ kappa____ phi______ frames
    -      102.5000  -43.0000    0.0000 34

#__ type_ start__ end____ width___ exp.time_
 15 omega   32.00   65.00   1.0000   14.4400
omega____ theta____ kappa____ phi______ frames
    -      102.5000  -32.0000  -30.0000 33

#__ type_ start__ end____ width___ exp.time_
 16 omega   25.00   75.00   1.0000   14.4400
omega____ theta____ kappa____ phi______ frames
    -      102.5000  -43.0000  -90.0000 50

#__ type_ start__ end____ width___ exp.time_
 17 omega   28.00   54.00   1.0000   14.4400
omega____ theta____ kappa____ phi______ frames
    -      102.5000  -32.0000 -150.0000 26

#__ type_ start__ end____ width___ exp.time_
 18 omega   24.00   75.00   1.0000   14.4400
omega____ theta____ kappa____ phi______ frames
    -      102.5000  -43.0000 -150.0000 51

#__ type_ start__ end____ width___ exp.time_
 19 omega   21.00   59.00   1.0000   14.4400
omega____ theta____ kappa____ phi______ frames
    -      102.5000  -32.0000  -60.0000 38

#__ type_ start__ end____ width___ exp.time_
 20 omega   25.00   51.00   1.0000   14.4400
omega____ theta____ kappa____ phi______ frames
    -      102.5000  -32.0000    0.0000 26

#__ type_ start__ end____ width___ exp.time_
 21 omega   33.00   58.00   1.0000   14.4400
omega____ theta____ kappa____ phi______ frames
    -      102.5000   24.0000  -34.8564 25

#__ type_ start__ end____ width___ exp.time_
 22 omega   84.00  125.00   1.0000   14.4400
omega____ theta____ kappa____ phi______ frames
    -       51.2500  125.0000 -180.0000 41

#__ type_ start__ end____ width___ exp.time_
 23 omega   73.00  130.00   1.0000   14.4400
omega____ theta____ kappa____ phi______ frames
    -       51.2500  125.0000 -150.0000 57

#__ type_ start__ end____ width___ exp.time_
 24 omega   69.00   94.00   1.0000   14.4400
omega____ theta____ kappa____ phi______ frames
    -      102.5000  138.0000  -90.0000 25

#__ type_ start__ end____ width___ exp.time_
 25 omega   35.00   60.00   1.0000    3.6100
omega____ theta____ kappa____ phi______ frames
    -        0.0000 -178.0000  -30.0000 25
;
_diffrn_measurement_device       'four-circle diffractometer'
_diffrn_measurement_device_type  'Xcalibur, Eos, Gemini ultra'
_diffrn_measurement_method       '\w scans'
_diffrn_orient_matrix_UB_11      -0.0056584000
_diffrn_orient_matrix_UB_12      -0.0982359000
_diffrn_orient_matrix_UB_13      0.0000663000
_diffrn_orient_matrix_UB_21      -0.0773059000
_diffrn_orient_matrix_UB_22      0.0044068000
_diffrn_orient_matrix_UB_23      -0.0531500000
_diffrn_orient_matrix_UB_31      0.0616213000
_diffrn_orient_matrix_UB_32      -0.0035333000
_diffrn_orient_matrix_UB_33      -0.0665850000
_diffrn_radiation_monochromator  mirror
_diffrn_radiation_type           CuK\a
_diffrn_radiation_wavelength     1.54184
_diffrn_reflns_av_R_equivalents  0.0171
_diffrn_reflns_av_sigmaI/netI    0.0252
_diffrn_reflns_limit_h_max       18
_diffrn_reflns_limit_h_min       -16
_diffrn_reflns_limit_k_max       18
_diffrn_reflns_limit_k_min       -17
_diffrn_reflns_limit_l_max       21
_diffrn_reflns_limit_l_min       -20
_diffrn_reflns_number            10790
_diffrn_reflns_theta_full        66.9682
_diffrn_reflns_theta_max         63.9874
_diffrn_reflns_theta_min         2.4428
_diffrn_source                   'sealed X-ray tube'
_diffrn_source_type              'Enhance Ultra (Cu) X-ray Source'
_exptl_absorpt_coefficient_mu    3.06584
_exptl_absorpt_correction_T_max  1.00000
_exptl_absorpt_correction_T_min  0.82537
_exptl_absorpt_correction_type   multi-scan
_exptl_absorpt_process_details
;
CrysAlisPro, Agilent Technologies,
Version 1.171.37.34i (release 04-08-2014 CrysAlis171 .NET)
(compiled Aug  4 2014,14:34:23)
Empirical absorption correction using spherical harmonics,
 implemented in SCALE3 ABSPACK scaling algorithm.
;
_exptl_crystal_colour            white
_exptl_crystal_density_diffrn    1.283
_exptl_crystal_description       tetrahedral
_exptl_crystal_F_000             1892.48
_exptl_crystal_size_max          0.1
_exptl_crystal_size_mid          0.07
_exptl_crystal_size_min          0.05
_refine_diff_density_max         0.757
_refine_diff_density_min         -0.482
_refine_diff_density_rms         0.072
_refine_ls_extinction_method     none
_refine_ls_goodness_of_fit_ref   1.074
_refine_ls_hydrogen_treatment    constr
_refine_ls_matrix_type           full
_refine_ls_number_parameters     251
_refine_ls_number_reflns         3641
_refine_ls_number_restraints     10
_refine_ls_restrained_S_all      1.077
_refine_ls_R_factor_all          0.0535
_refine_ls_R_factor_gt           0.0459
_refine_ls_shift/su_max          0.001
_refine_ls_shift/su_mean         0.000
_refine_ls_structure_factor_coef Fsqd
_refine_ls_weighting_details
'w=1/[\s^2^(Fo^2^)+(0.0925P)^2^+1.6961P] where P=(Fo^2^+2Fc^2^)/3'
_refine_ls_weighting_scheme      calc
_refine_ls_wR_factor_gt          0.1408
_refine_ls_wR_factor_ref         0.1511
_reflns_Friedel_coverage         0.000
_reflns_number_gt                3021
_reflns_number_total             3641
_reflns_threshold_expression     'I > 2\s(I)'
_cod_data_source_file            ja9b11639_si_001.cif
_cod_data_source_block           shelx
_cod_database_code               4134161
_shelx_shelxl_version_number     2018/3
_shelx_space_group_comment
;
The symmetry employed for this shelxl refinement is uniquely defined
by the following loop, which should always be used as a source of
symmetry information in preference to the above space-group names.
They are only intended as comments.
;
_symmetry_space_group_name_h-m_alt 'P b c a'
_reflns_odcompleteness_completeness 92.81
_reflns_odcompleteness_theta     66.97
_reflns_odcompleteness_iscentric 1
_shelx_res_file
;
TITL exp_566_JW_6Chl-5F_1 in Pbca
    shelx.res
    created by SHELXL-2018/3 at 17:17:16 on 28-Aug-2019
CELL  1.54184  15.5560  15.6538  18.0875   90.000   90.000   90.000
ZERR    21.00   0.0005   0.0005   0.0006    0.000    0.000    0.000
LATT   1
SYMM  1/2 - X, - Y, 1/2 + Z
SYMM  1/2 + X, 1/2 - Y, - Z
SYMM  - X, 1/2 + Y, 1/2 - Z
SFAC  C    H    N    F    CL   ZN   O
UNIT  56 0 80 8 0 24 0
MERG   2
EXYZ  N7a N7b
EXYZ  N8a N8b
EADP  N7a N7b
EADP  N8a N8b
FLAT  C11a C12a C10a N7a N8a
FLAT  C11b C12b C10b N7b N8b C13 C14 C15 C16 Cl F
FMAP   2
PLAN   20
ACTA    50.00
L.S.  50
WGHT    0.092500    1.696100
FVAR       2.47036   0.25960
ZN1   6    0.698417    0.145088    0.094624    11.00000    0.06513    0.07257 =
         0.06748   -0.00642   -0.00077   -0.00684
ZN2   6    1.001153    0.341605    0.187283    11.00000    0.06148    0.07327 =
         0.06711    0.00533   -0.00618   -0.00133
N4    3    0.821573    0.168563    0.111233    11.00000    0.06628    0.07367 =
         0.08677   -0.00911   -0.00305   -0.00588
N1    3    0.556679    0.316700    0.216618    11.00000    0.08113    0.07689 =
         0.06566   -0.00265    0.00657    0.00276
N5    3    0.663146    0.045035    0.155224    11.00000    0.07172    0.07324 =
         0.08088    0.00156   -0.00943   -0.00590
N2    3    0.631827    0.244178    0.133598    11.00000    0.07796    0.07758 =
         0.06400   -0.00391    0.01012   -0.00029
N3    3    0.936637    0.241703    0.147957    11.00000    0.06422    0.07326 =
         0.08759   -0.00090   -0.00744   -0.00383
N6    3    0.582278   -0.062864    0.194841    11.00000    0.07170    0.07378 =
         0.07065    0.00639   -0.00485   -0.00430
C7    1    0.598965   -0.008102    0.141639    11.00000    0.07337    0.07914 =
         0.06864    0.00318   -0.00857   -0.01129
AFIX  43
H7    2    0.567937   -0.006823    0.097704    11.00000   -1.20000
AFIX   0
C4    1    0.852225    0.240838    0.138476    11.00000    0.06301    0.07903 =
         0.08231   -0.00498   -0.00374   -0.00460
AFIX  43
H4    2    0.817364    0.287222    0.150020    11.00000   -1.20000
AFIX   0
C1    1    0.591505    0.243749    0.198122    11.00000    0.08989    0.07217 =
         0.07145    0.00284    0.01416    0.00461
AFIX  43
H1    2    0.588236    0.195412    0.227884    11.00000   -1.20000
AFIX   0
C6    1    0.962037    0.165024    0.122216    11.00000    0.06768    0.09461 =
         0.18627   -0.03088   -0.01283    0.01018
AFIX  43
H6    2    1.018639    0.146142    0.119591    11.00000   -1.20000
AFIX   0
C8    1    0.690264    0.021051    0.222750    11.00000    0.11810    0.12024 =
         0.10893    0.03298   -0.05741   -0.03863
AFIX  43
H8    2    0.736120    0.045209    0.248268    11.00000   -1.20000
AFIX   0
C3    1    0.575764    0.367730    0.159676    11.00000    0.18304    0.08155 =
         0.10820    0.02237    0.06109    0.03132
AFIX  43
H3    2    0.560992    0.425129    0.155855    11.00000   -1.20000
AFIX   0
C2    1    0.619310    0.323265    0.109285    11.00000    0.19204    0.09161 =
         0.09535    0.02326    0.06766    0.03016
AFIX  43
H2    2    0.638076    0.344364    0.064010    11.00000   -1.20000
AFIX   0
C9    1    0.640538   -0.043580    0.247739    11.00000    0.11838    0.11339 =
         0.09628    0.03482   -0.04003   -0.03224
AFIX  43
H9    2    0.645537   -0.070232    0.293491    11.00000   -1.20000
AFIX   0
C5    1    0.892595    0.120009    0.100884    11.00000    0.08617    0.08550 =
         0.18264   -0.03692   -0.02412    0.01173
AFIX  43
H5    2    0.893289    0.064694    0.082134    11.00000   -1.20000
AFIX   0

PART    1
C10A  1    0.594898    0.145283   -0.042884   -21.00000    0.05087    0.07874 =
         0.06286    0.00395    0.01587   -0.00843
AFIX  43
H10A  2    0.550036    0.172077   -0.018037   -21.00000   -1.20000
AFIX   0
N7A   3    0.666814    0.122942   -0.009370   -21.00000    0.07159    0.10042 =
         0.06824   -0.01611   -0.00492    0.01592
N8A   3    0.590944    0.127117   -0.113742   -21.00000    0.07486    0.10162 =
         0.06827   -0.01409   -0.00138    0.02006
C12A  1    0.672076    0.102017   -0.129829   -21.00000    0.10058    0.35541 =
         0.07881   -0.06914   -0.01416    0.10697
AFIX  43
H12A  2    0.693010    0.089661   -0.176788   -21.00000   -1.20000
AFIX   0
C11A  1    0.717575    0.097902   -0.066326   -21.00000    0.09076    0.36864 =
         0.10293   -0.06024   -0.00785    0.09165
AFIX  43
H11A  2    0.774594    0.080655   -0.062311   -21.00000   -1.20000
AFIX   0

PART    2
C10B  1    0.612709    0.161427   -0.053031    21.00000    0.03993    0.03873 =
         0.06344    0.00942    0.02235   -0.01460
AFIX  43
H10B  2    0.589977    0.214166   -0.039684    21.00000   -1.20000
AFIX   0
N7B   3    0.666814    0.122942   -0.009370    21.00000    0.07159    0.10042 =
         0.06824   -0.01611   -0.00492    0.01592
N8B   3    0.590944    0.127117   -0.113742    21.00000    0.07486    0.10162 =
         0.06827   -0.01409   -0.00138    0.02006
C12B  1    0.623255    0.040592   -0.106806    21.00000    0.05345    0.07396 =
         0.04622   -0.01199    0.00973    0.01831
C11B  1    0.672281    0.038545   -0.042297    21.00000    0.05608    0.06451 =
         0.06117   -0.01782   -0.00741    0.02448
C13   1    0.617017   -0.031741   -0.151756    21.00000    0.08399
AFIX  43
H13   2    0.584561   -0.030954   -0.194931    21.00000   -1.20000
AFIX   0
C15   1    0.715172   -0.115057   -0.069589    21.00000    0.10055
C16   1    0.717549   -0.035377   -0.021933    21.00000    0.09413
AFIX  43
H16   2    0.749531   -0.035492    0.021508    21.00000   -1.20000
AFIX   0
C14   1    0.665520   -0.112741   -0.127597    21.00000    0.12332
CL    5    0.666054   -0.192972   -0.183295    21.00000    0.15524
F     4    0.758394   -0.182932   -0.058019    21.00000    0.13473
PART    0
HKLF    4




REM  exp_566_JW_6Chl-5F_1 in Pbca
REM wR2 = 0.1511, GooF = S = 1.074, Restrained GooF = 1.077 for all data
REM R1 = 0.0459 for 3021 Fo > 4sig(Fo) and 0.0535 for all 3641 data
REM 251 parameters refined using 10 restraints

END

WGHT      0.0929      1.5183

REM Highest difference peak  0.757,  deepest hole -0.482,  1-sigma level  0.072
Q1    1   0.8053 -0.1506 -0.0716  11.00000  0.05    0.76
Q2    1   0.6754 -0.1751 -0.1015  11.00000  0.05    0.68
Q3    1   0.8489 -0.0345 -0.0521  11.00000  0.05    0.59
Q4    1   1.0016  0.0499  0.0088  11.00000  0.05    0.46
Q5    1   0.7186 -0.2043 -0.0374  11.00000  0.05    0.40
Q6    1   0.6330 -0.2234 -0.1528  11.00000  0.05    0.33
Q7    1   0.6508 -0.0937 -0.1405  11.00000  0.05    0.26
Q8    1   1.0554  0.0661  0.0688  11.00000  0.05    0.26
Q9    1   0.6000 -0.1520 -0.0532  11.00000  0.05    0.25
Q10   1   0.6995 -0.2485 -0.1400  11.00000  0.05    0.23
Q11   1   0.9374  0.1519  0.1721  11.00000  0.05    0.23
Q12   1   0.6006  0.1607 -0.1204  11.00000  0.05    0.21
Q13   1   0.9014  0.0570  0.0480  11.00000  0.05    0.21
Q14   1   1.0425  0.1525  0.1043  11.00000  0.05    0.19
Q15   1   0.5410  0.3350  0.1935  11.00000  0.05    0.18
Q16   1   0.6878 -0.0664 -0.0134  11.00000  0.05    0.17
Q17   1   0.7028  0.0890  0.2797  11.00000  0.05    0.17
Q18   1   0.6155 -0.1524 -0.1922  11.00000  0.05    0.17
Q19   1   0.8048  0.1756  0.1501  11.00000  0.05    0.17
Q20   1   0.7149 -0.1989 -0.1786  11.00000  0.05    0.16
;
_shelx_res_checksum              2276
_shelx_hkl_file
;
   0   0   1 8.91597 15.5544   3
   0   0   2 142611. 924.238   3
   0   0   3 9.98350 34.2658   3
   0   0   4 999999. 3503.43   3
   0   0   5 12.0103 49.1894   3
   0   0  -6 2452.11 101.773  23
   0   0  -6 2719.10 105.779  22
   0   0  -7 3534.37 134.612  23
   0   0  -7 20.3485 28.5506  22
   0   0  -8 4582.77 160.914  22
   0   0  -8 4367.40 161.553  23
   0   0  -9 30.5346 35.5595  23
   0   0  -9 58.3223 33.1259  22
   0   0 -10 149584. 1090.28  23
   0   0 -11 48.3240 43.5933  23
   0   0 -12 50.5995 55.2329  23
   0   0 -13-25.2572 48.6580  23
   0   0 -14 17252.3 479.288  23
   0   0 -16 260.317 71.1006  12
   0   0 -17 30.8395 63.4371  12
   0   0 -18 6058.83 288.334  12
   0   0 -19 57.4475 62.4429  12
   0   0 -20 3313.95 189.948  12
   0   0 -21 30.5821 39.5352  12
   0  -1   0 585.842 45.3167   2
   0  -1   1 6.10131 21.4224   3
   0  -1   2 31.7844 27.4711   3
   0  -1   3 69.3256 50.1539   3
   0  -1   4 16.2374 52.5408   3
   0  -1  -5 6.92081 20.8034  22
   0  -1  -5 46.7415 24.2724  23
   0  -1  -6 0.76310 25.2052  23
   0   1  -6 1.28960 26.1504  23
   0   1  -7-8.09418 26.3984  23
   0  -1  -7 8.30840 29.8489  23
   0   1  -7 12.5200 25.6792  22
   0  -1  -7 14.5306 27.5216  22
   0   1  -8-41.3504 40.1185  23
   0  -1  -8 27.9696 33.6331  22
   0  -1  -8-1.98697 31.9920  23
   0   1  -9 25.8610 31.3990  23
   0  -1  -9 31.2781 32.3251  22
   0  -1  -9 39.6337 29.5717  23
   0   1 -10 18.2170 38.6006  23
   0  -1 -10-7.39662 40.2706  23
   0  -1 -10 27.3984 42.0718  22
   0   1 -11 20.8818 34.6999  23
   0  -1 -11 151.180 53.3534  23
   0  -1 -12-57.2653 53.4000  23
   0   1 -12-95.2717 66.5720  23
   0  -1 -13-35.0586 49.7147  23
   0   1 -13-104.888 66.5123  23
   0   1 -14-60.9976 54.6682  23
   0  -1 -14 63.1036 52.8950  23
   0  -1 -15-54.9196 78.9400  14
   0   1 -15-18.8640 49.9411  12
   0   1 -16 1.81180 56.8013  12
   0  -1 -16 23.0191 52.4739  12
   0  -1 -17 4.93921 61.9454  12
   0   1 -17 108.203 74.7401  12
   0  -1 -18-3.41596 58.1280  12
   0   1 -18 69.4763 76.6231  12
   0  -1 -19-19.5298 59.9093  12
   0   1 -19 64.8555 49.9679  12
   0   1 -20 29.5616 49.7295  12
   0  -1 -20-16.9828 49.8801  12
   0   1 -21 13.7453 41.1814  12
   0  -2   0 284113. 1310.67   2
   0  -2   1 77808.9 510.327  25
   0  -2   2 2478.36 150.138   3
   0  -2   3 552488. 2511.02   3
   0  -2   4 185266. 1633.92   3
   0  -2  -5 8350.65 171.030  23
   0  -2  -5 8348.73 179.324  22
   0   2  -6 5777.30 156.900  23
   0  -2  -6 5873.59 164.838  22
   0  -2  -6 5859.67 159.079  23
   0  -2  -7 473328. 1583.26  22
   0  -2  -7 472790. 1541.12  23
   0   2  -7 472704. 1535.48  23
   0  -2  -8 6476.81 202.300  22
   0  -2  -8 6423.61 196.674  23
   0   2  -8 6759.62 200.286  23
   0  -2  -9 85.2418 35.9079  22
   0   2  -9 60.0938 35.1927  23
   0  -2  -9 76.2919 32.2800  23
   0  -2 -10 30981.3 506.807  22
   0  -2 -10 32138.5 505.763  23
   0   2 -10 31687.8 507.726  23
   0  -2 -11 6780.35 253.819  22
   0  -2 -11 6710.52 250.935  23
   0   2 -11 6706.50 254.038  23
   0  -2 -12 1825.39 144.447  23
   0   2 -12 1833.26 145.691  23
   0  -2 -13 12015.7 378.629  23
   0   2 -13 12214.2 385.085  23
   0  -2 -14 1101.16 126.756  23
   0   2 -15 30078.1 646.852  12
   0  -2 -15 28845.9 653.132  14
   0  -2 -16 541.160 102.991  14
   0  -2 -16 486.544 89.8599  12
   0   2 -16 632.476 110.236  12
   0  -2 -17 14743.6 440.471  12
   0   2 -17 15287.5 468.430  12
   0  -2 -18 827.497 112.789  12
   0   2 -18 847.543 122.268  12
   0  -2 -19 1697.14 144.484  12
   0   2 -19 1570.86 141.158  12
   0   2 -20 17.7536 45.5105  12
   0  -2 -20-66.4787 49.4565  12
   0   2 -20-7.92455 47.3053  11
   0  -3   0 165.203 58.2597   2
   0  -3   1-11.7978 40.5902   2
   0   3   1-6.99670 35.8177   2
   0  -3   2 23.3802 29.1763  25
   0  -3   3 159.926 65.7925   3
   0  -3  -4 4.58572 23.9373  22
   0   3  -4-31.8133 62.1524   3
   0  -3  -5 812.003 60.9771  22
   0  -3  -5 5.10586 24.4038  23
   0  -3  -6 14.5117 24.6330  23
   0  -3  -6 23.0146 26.4388  22
   0  -3  -7 11.4833 27.4201  23
   0  -3  -7 26.4493 27.9238  22
   0  -3  -8-0.49410 30.4536  23
   0  -3  -8 1.01674 32.3023  22
   0   3  -8 76.2630 29.1745  23
   0   3  -9 0.84336 38.0265  23
   0  -3  -9-28.3374 35.2553  23
   0  -3  -9-49.9014 44.0619  22
   0  -3 -10 50.0122 40.7225  22
   0   3 -10 11.3362 34.1684  23
   0  -3 -10 4.41594 37.3770  23
   0  -3 -11-21.9927 46.2250  22
   0   3 -11 89.1285 50.8726  23
   0  -3 -11 186.169 67.2621  23
   0  -3 -12 13.6519 46.9549  23
   0   3 -12 2.57727 46.5291  23
   0  -3 -12-25.8777 47.3434  22
   0  -3 -13 2.50393 46.0257  23
   0  -3 -14 28.6054 63.1455  23
   0  -3 -15 27.3035 64.7358  14
   0  -3 -15 43.4333 67.3981  12
   0   3 -15 10.6428 62.5743  12
   0  -3 -16 2.61938 69.8529  14
   0   3 -16 38.7595 63.8915  12
   0  -3 -16 76.7456 61.3297  12
   0  -3 -17 77.2140 60.1938  12
   0   3 -17 66.1781 68.0836  12
   0   3 -18 57.7231 69.6723  12
   0  -3 -18 24.4742 48.5736  12
   0   3 -19-14.9694 60.1394  12
   0   3 -20-6.28911 47.2915  11
   0   3 -20-17.5327 46.5031  12
   0  -4   0 524922. 2618.20   2
   0   4   0 532083. 1743.21  25
   0   4   1 2015.64 170.376   2
   0  -4   1 2093.28 173.359   2
   0   4   2 115946. 1304.45   2
   0   4  -2 117537. 1317.28   3
   0  -4   2 115912. 876.834  25
   0  -4   3 142926. 1109.31  25
   0  -4  -4 54997.3 458.390  22
   0  -4  -5 7990.06 190.190  22
   0  -4  -5 8227.55 172.653  23
   0  -4  -6 63237.7 527.899  23
   0  -4  -6 63453.5 577.076  22
   0  -4  -7 150420. 957.303  22
   0  -4  -7 150212. 885.665  23
   0  -4  -8 32892.1 451.573  23
   0   4  -8 31897.4 446.223  23
   0  -4  -8 33591.6 484.391  22
   0  -4  -9 359.009 60.7172  22
   0  -4  -9 297.635 52.1387  23
   0   4  -9 263.927 47.9593  23
   0   4 -10 187570. 1252.00  23
   0  -4 -10 186521. 1301.27  22
   0  -4 -10 187807. 1237.56  23
   0  -4 -11 10.4488 37.9419  22
   0  -4 -11 69.4702 46.7812  23
   0  -4 -12 13439.2 379.951  23
   0  -4 -12 13183.0 390.175  22
   0  -4 -13 1801.81 152.592  23
   0   4 -14 29514.5 629.903  12
   0  -4 -14 30092.0 656.492  14
   0  -4 -15 2150.40 187.450  14
   0   4 -15 2210.82 183.789  12
   0   4 -16 5.34393 59.4027  12
   0  -4 -16 0.54943 60.5014  14
   0  -4 -17 860.283 123.102  14
   0   4 -17 838.956 114.701  12
   0   4 -18-98.3748 68.8804  12
   0   4 -19 511.539 92.9555  11
   0   4 -19 407.366 81.5728  12
   0   4 -20 310.926 67.6537  12
   0   4 -20 479.310 80.3912  11
   0  -5   0 32.3671 28.5798   4
   0   5   0 42.9217 28.2036  25
   0  -5   1 42.5203 30.5051   4
   0  -5  -1 304.451 43.2380   4
   0  -5  -2 868.722 63.4995   4
   0  -5  -3 33.7121 26.1534   4
   0  -5  -4 44.8709 27.1560  22
   0  -5  -5-11.4589 27.1329  22
   0  -5  -6-27.4914 32.9616  22
   0  -5  -7 267.496 50.9029  22
   0  -5  -8 20.2709 33.3061  22
   0  -5  -9-15.4622 36.3940  22
   0  -5 -10-16.6201 36.8745  23
   0  -5 -10 82.2484 52.1222  22
   0  -5 -11 98.9257 53.1186  23
   0  -5 -11 42.1791 42.0792  22
   0  -5 -12-53.5861 57.5551  22
   0  -5 -13-13.8435 55.3781  22
   0   5 -14 122.569 79.2541  12
   0  -5 -14-19.4146 75.0444  14
   0   5 -15-35.5019 52.2465  12
   0  -5 -15-56.8968 70.9060  14
   0   5 -16-83.5758 73.4732  12
   0  -5 -16 52.3766 60.4130  14
   0   5 -17-83.0293 56.7470  12
   0  -5 -17-41.6780 62.2293  14
   0   5 -18 94.3732 72.7969  11
   0   5 -18 33.9852 58.2101  12
   0   5 -19 28.7248 56.1697  11
   0   5 -19-45.3942 55.2749  12
   0   5 -20-69.7070 50.6351  11
   0   5 -20-43.2805 48.1235  12
   0  -6   0 473253. 1572.67   4
   0  -6   1 2437.21 116.330   4
   0  -6  -1 2343.62 113.046   4
   0  -6  -2 2709.37 122.414   4
   0  -6   2 2646.74 124.589   4
   0  -6  -3 30243.1 412.298   4
   0  -6   3 29772.2 424.142   4
   0  -6  -3 29845.8 353.790  22
   0  -6   4 17270.2 338.377   4
   0  -6  -4 18019.9 293.691  22
   0  -6  -5 39594.1 463.911  22
   0  -6  -6 21748.5 369.664  22
   0  -6  -7 114816. 903.985  22
   0  -6  -8 37217.5 547.886  22
   0  -6  -9 21292.9 438.960  22
   0  -6 -10 78125.2 886.988  22
   0  -6 -11 2015.32 154.606  22
   0  -6 -12 3077.80 196.470  22
   0  -6 -13 5578.14 288.264  14
   0  -6 -14 21461.1 569.556  14
   0  -6 -15 844.256 126.650  14
   0   6 -16 19.4362 66.1112  11
   0   6 -16 123.735 71.8263  12
   0  -6 -16 97.2197 65.3743  14
   0  -6 -17 2286.61 183.257  14
   0   6 -17 2464.02 192.527  11
   0   6 -17 2542.05 183.314  12
   0   6 -18 222.106 71.4585  11
   0   6 -18 200.733 59.1740  12
   0   6 -19 1145.36 118.650  11
   0   6 -19 950.515 102.840  12
   0  -7   0 101.059 36.0609   4
   0  -7  -1 10.8434 32.4731   4
   0  -7   1 26.4472 37.1289   4
   0  -7  -2 28.0128 35.6330   4
   0  -7   2 37.6645 38.2935   4
   0  -7  -3 79.0912 38.1744   4
   0  -7   3 65.8330 37.0429   4
   0  -7   4 85.0018 43.5150   4
   0  -7  -4 4.61711 24.7774  22
   0  -7   5 15.8654 41.9801   4
   0  -7  -5-9.43082 28.2620  22
   0  -7  -6-4.46489 30.8020  22
   0  -7  -7 19.5470 39.1629  22
   0  -7  -8 24.3133 38.1560  22
   0  -7  -9 32.0777 36.3112  22
   0  -7 -10-19.1475 48.9869  22
   0  -7 -11 12.9341 41.8393  22
   0  -7 -12-30.3348 59.6020  22
   0   7 -13 34.1024 71.9487  11
   0  -7 -13 108.348 75.2870  15
   0   7 -14-1.93861 72.9792  11
   0  -7 -14-1.23663 65.3746  14
   0   7 -15-6.50013 62.6486  11
   0  -7 -15 110.393 77.1594  14
   0  -7 -16-81.3954 74.7710  14
   0   7 -16 100.624 67.0844  11
   0  -7 -17-24.5388 60.0850  14
   0   7 -17-29.0373 65.4951  11
   0   7 -18 55.2325 59.9726  11
   0   7 -19-13.8637 45.8956  11
   0  -8   0 48954.8 607.083   4
   0  -8  -1 21119.6 397.817   4
   0  -8   1 21724.1 407.317   4
   0  -8   2 21703.9 413.307   4
   0  -8  -2 20990.4 399.230   4
   0  -8   3 95466.1 899.583   4
   0  -8  -3 98827.6 878.663   4
   0  -8   4 57683.4 716.336   4
   0  -8   5 10787.5 321.489   4
   0  -8   6 582.651 91.0271   4
   0  -8   7 129688. 1203.67   4
   0  -8  -7 127341. 1034.61  22
   0  -8  -8 16599.2 393.568  22
   0  -8   8 17453.0 464.093   4
   0  -8  -9-25.8958 49.1027  22
   0  -8   9 21.4263 55.6284   4
   0  -8 -10 483.930 80.9620  22
   0  -8 -11 239.106 64.4294  22
   0  -8 -12 333.196 87.8523  15
   0   8 -12 459.462 101.949  11
   0   8 -13 3508.25 235.173  11
   0  -8 -13 3157.53 223.488  15
   0  -8 -14 935.551 130.584  15
   0   8 -14 872.220 122.527  11
   0  -8 -14 896.383 128.862  14
   0   8 -15 13220.8 442.522  11
   0  -8 -15 13118.4 437.327  14
   0   8 -16 1139.27 137.217  11
   0  -8 -16 1012.05 127.587  14
   0   8 -17 6080.69 281.518  11
   0  -8 -17 6638.06 282.753  14
   0   8 -18 381.786 74.2244  11
   0  -9   0 109.627 51.8532   4
   0  -9   1 14.9269 43.2857   4
   0  -9  -1 28.0134 39.4060   4
   0  -9  -2-10.7405 44.0113   4
   0  -9   2-66.7693 53.3414   4
   0  -9   3-36.2923 43.2290   4
   0  -9  -3-19.9972 54.6748   4
   0  -9   4 60.6127 44.9046   4
   0  -9   5 28.8289 45.7896   4
   0  -9   6-24.2169 51.7559   4
   0  -9   7-41.8080 48.3182   4
   0  -9   8-16.2471 48.2629   4
   0  -9   9 31.4245 50.4295   4
   0  -9  10-82.0988 78.8251   4
   0  -9 -10-29.7704 51.3676  22
   0  -9 -11-37.7046 61.0865  15
   0   9 -11 67.5690 74.4200  11
   0   9 -12-67.4752 68.5540  11
   0  -9 -12 19.4817 58.4140  15
   0   9 -13 6.54464 58.7876  11
   0  -9 -13-26.4352 67.2922  15
   0  -9 -14 85.7650 70.5165  14
   0   9 -14 64.3455 73.4302  11
   0  -9 -14 149.549 83.2839  15
   0   9 -15 24.7381 62.4563  11
   0  -9 -15-31.2557 56.8307  14
   0   9 -16-50.2245 60.4307  11
   0  -9 -16-136.308 73.5031  14
   0   9 -17-67.2849 58.1247  11
   0  -9 -17-51.6334 48.1127  14
   0   9 -18-39.6369 46.9940  11
   0 -10   0 310258. 1777.32   4
   0 -10   1 36675.3 619.192   4
   0 -10  -1 37069.4 614.707   4
   0 -10  -2 6203.69 254.921   4
   0 -10   2 6245.87 263.558   4
   0 -10  -3 1267.23 118.464   4
   0 -10   3 1174.62 121.656   4
   0 -10   4 36589.8 653.543   4
   0 -10   5 1400.58 134.436   4
   0 -10   6 65.6313 53.8293   4
   0 -10   7 2762.99 201.887   4
   0 -10   8 8320.87 355.833   4
   0  10  -9 10346.1 375.104  11
   0 -10  -9 10066.5 389.375  19
   0 -10 -10 15264.9 489.477  19
   0  10 -10 15735.8 476.689  11
   0 -10 -11 613.251 109.150  15
   0  10 -11 474.043 95.7364  11
   0  10 -12 818.649 124.500  11
   0 -10 -12 901.788 129.007  15
   0 -10 -13 111.037 67.5468  15
   0  10 -13 94.8309 70.0811  11
   0  10 -14 4625.34 257.823  11
   0 -10 -14 5185.02 275.456  14
   0 -10 -14 4879.74 262.604  15
   0 -10 -15 87.8356 53.9526  14
   0  10 -15 95.1752 51.3979  11
   0 -10 -15 28.7190 57.7541  15
   0  10 -16 44.2439 50.5057  11
   0 -10 -16-2.79333 49.8173  14
   0  10 -17-114.400 56.8110  11
   0 -10 -17 0.77462 40.8956  14
   0 -11   0 16.1730 44.9824   4
   0 -11  -1-12.5207 47.8333   4
   0 -11   1 30.6211 48.0066   4
   0 -11   2 96.8527 57.8205   4
   0 -11  -2 15.7428 51.7664   4
   0 -11   3 23.9623 47.7231   4
   0 -11   4 52.8543 60.1685   4
   0 -11   5 47.4923 52.8847   4
   0 -11   6 42.4728 64.4969   4
   0 -11   7 20.7125 58.7031   4
   0 -11  -7-73.0823 70.3122  19
   0 -11  -8 51.2013 72.5366  19
   0  11  -8 109.545 73.2780  11
   0  11  -9 63.2901 59.7211  11
   0 -11  -9 35.7137 66.1547  19
   0  11 -10 129.857 74.8621  11
   0 -11 -10-36.8166 77.4171  15
   0 -11 -11-7.23497 69.2553  15
   0  11 -11 19.5981 61.0703  11
   0 -11 -12-17.9701 63.1544  15
   0  11 -12 49.4616 70.5903  11
   0  11 -13 32.4088 57.7233  11
   0 -11 -13-31.4156 56.5645  15
   0  11 -14-73.5022 72.7273  11
   0 -11 -14 66.9064 61.3161  14
   0 -11 -14 33.1060 59.3137  15
   0  11 -15-30.5625 56.5088  11
   0 -11 -15 85.8073 61.6114  14
   0 -11 -15 19.1734 48.6869  15
   0 -11 -16-29.0621 52.1219  14
   0 -12   0 16912.6 475.896   4
   0 -12   1 86.8855 64.9884   4
   0 -12  -1-7.87812 53.3579   4
   0 -12  -2 9317.21 356.403   4
   0 -12   2 10011.7 373.025   4
   0 -12   3 28496.6 636.367   4
   0 -12   4 2948.52 214.576   4
   0  12  -5 47.6006 54.8816  24
   0 -12  -5 9.71588 69.7854  19
   0 -12  -6 4903.80 285.520  19
   0  12  -6 4337.47 239.007  24
   0 -12  -7 29630.1 683.301  19
   0  12  -7 27860.1 610.422  24
   0 -12  -8 5567.13 305.986  19
   0 -12  -9-114.548 87.2270  19
   0 -12 -10 1552.73 170.152  15
   0 -12 -11 130.138 64.4459  15
   0 -12 -12 1720.35 164.083  15
   0 -12 -13 1320.98 142.304  15
   0 -12 -14-48.6878 47.7114  14
   0 -12 -14-82.9326 59.4543  15
   0 -12 -15 2890.60 173.485  15
   0 -12 -15 3273.46 185.131  14
   0  13   0-38.4897 83.9954   6
   0  13   1-126.666 93.6902   6
   0 -13  -1-11.8585 63.9169  19
   0 -13  -2-83.1383 78.5693  19
   0  13   2 62.1492 81.0081   6
   0 -13  -3 17.3188 69.8918  19
   0 -13  -4 51.0177 62.7391  19
   0  13  -5-48.0409 67.8202  24
   0 -13  -5 62.6801 77.6740  19
   0 -13  -6 10.3176 73.8014  19
   0  13  -6 35.8373 54.5586  24
   0 -13  -7-56.0373 66.8789  19
   0 -13  -8 41.0090 77.8578  19
   0 -13  -9-36.1670 72.3595  19
   0 -13 -10 16.0158 57.4639  15
   0 -13 -11 88.1118 72.4069  15
   0 -13 -12 194.063 74.7210  15
   0 -13 -13 38.8043 57.9331  15
   0 -13 -14 51.3146 53.2275  15
   0 -13 -14-7.67872 44.5209  14
   0  14   0 1241.41 160.972   6
   0  14  -1 592.060 126.503   6
   0  14   1 687.765 135.036   6
   0  14   2 1106.98 151.568   6
   0 -14  -2 1010.01 141.809  19
   0  14  -2 1025.76 146.464   6
   0 -14  -3 1946.13 185.214  19
   0  14  -3 2121.26 211.528   6
   0 -14  -4 1330.47 157.463  19
   0  14  -4 1050.44 152.240   6
   0 -14  -5 478.708 116.189  19
   0  14  -5 521.793 117.226   6
   0  14  -6 2451.85 219.108   6
   0 -14  -6 2716.45 218.260  19
   0 -14  -7 6862.43 333.239  19
   0  14  -7 7310.79 358.135   6
   0 -14  -8 1272.39 154.491  19
   0  14  -8 1344.69 161.686   6
   0 -14  -9 2206.97 188.426  15
   0 -14 -10 2805.79 203.067  15
   0 -14 -11 27.7620 54.6809  15
   0 -14 -12 857.880 107.432  15
   0 -14 -13 164.358 58.3835  15
   0 -14 -13 216.707 69.4184  14
   0  15   0-2.92938 74.4218   6
   0  15  -1 69.8259 77.1177   6
   0  15   1-20.0076 72.6499   6
   0 -15  -2-0.69203 72.7480  19
   0  15  -2-42.2665 76.8759   6
   0  15   2-1.56352 67.6970   6
   0  15  -3-42.8826 81.2653   6
   0 -15  -3-57.1832 67.4927  19
   0 -15  -4-40.1958 67.8222  19
   0  15  -4-149.775 94.8141   6
   0  15  -5-61.0192 81.0510   6
   0 -15  -5-3.59459 62.0163  19
   0 -15  -6 5.03159 61.5591  19
   0  15  -6 81.2922 82.5016   6
   0 -15  -7-29.2938 60.9342  19
   0  15  -7 34.2876 81.6593   6
   0  15  -8-78.4520 75.8031   6
   0 -15  -9-63.3625 58.9499  15
   0 -15 -10 7.55277 44.8044  15
   0 -15 -11-6.18963 44.0140  15
   0  16   0 1422.69 163.791   6
   0  16   1 195.517 79.0997   6
   0  16  -1 154.171 78.8062   6
   0  16   2-84.1074 74.5646   6
   0  16  -2-17.7263 70.8548   6
   0  16  -3 324.873 100.947   6
   0 -16  -3 388.044 87.4251  19
   0  16  -4 23.0177 67.4206   6
   0 -16  -4 16.8435 60.8669  19
   0 -16  -5 1246.27 140.017  19
   0  16  -5 884.588 127.467   6
   0  16  -6 0.27042 59.1588   6
   0 -16  -6 1.54459 53.0933  19
   0  16  -7 787.465 112.474   6
   0 -16  -8 1749.97 149.191  15
   0  16  -8 1578.65 149.833   6
   0 -16  -9 2478.56 167.449  15
   0 -16 -10 378.950 73.1897  15
   0  17   0 51.2267 61.8638   6
   0  17   1-35.8903 68.7754   6
   0  17  -1-44.1658 64.1760   6
   0  17  -2 10.7073 58.8879   6
   0  17  -3 20.1136 66.6726   6
   0 -17  -4-49.4986 52.4315  19
   0  17  -4-60.9154 67.8191   6
   0  17  -5 10.8717 58.8613   6
   0  17  -6-32.3161 54.1807   6
   0  17  -7 30.7426 57.7296   6
   0 -17  -7 30.9958 52.5893  15
   0  18   0 38.4442 58.9316   6
   0  18  -1-21.0830 51.2694   6
   0  18  -2 92.8229 58.7952   6
   0  18  -3 610.918 92.3203   6
   1   0   0 11.5705 14.9172  25
   1   0  -1 28.7657 16.3577   3
  -1   0   1-1.72279 12.8205   3
  -1   0   2 601264. 1812.35   3
   1   0  -2 616515. 1820.87   3
  -1   0   3 59.2633 44.1967   3
   1   0   3 38.5827 43.2721   3
  -1   0   4 43094.1 722.858   3
   1   0   4 43298.1 755.677   3
  -1   0  -5 78.4564 28.5313  23
   1   0  -5 153.799 35.5153  23
   1   0   5 41.6722 64.1534   3
  -1   0   5 13.5458 50.3926   3
   1   0  -6 171100. 836.937  22
  -1   0  -6 168411. 847.209  23
  -1   0  -6 168524. 821.827  22
   1   0  -6 171855. 847.475  23
   1   0  -7-6.74936 30.0902  23
  -1   0  -7 9.16291 25.9519  22
  -1   0  -7-13.6251 31.3761  23
  -1   0  -8 139479. 879.493  22
   1   0  -8 139802. 917.165  23
  -1   0  -9 11.4335 29.1712  22
  -1   0  -9-25.4539 33.2945  23
   1   0  -9-13.6706 30.6365  23
   1   0 -10-16.2530 37.9755  23
  -1   0 -10 67.1097 36.6171  22
  -1   0 -10-20.9699 37.8575  23
  -1   0 -11-24.7742 40.0208  22
  -1   0 -11 9.79652 35.2027  23
   1   0 -11-27.5176 34.3712  23
  -1   0 -12 5960.23 252.136  23
   1   0 -12 6388.22 262.030  23
  -1   0 -13 19.5166 49.3712  23
  -1   0 -14 17621.3 488.379  23
   1   0 -15 77.7651 58.2889  12
  -1   0 -15-147.971 88.8008  14
   1   0 -16 99.8436 65.1583  12
   1   0 -17 55.4092 61.9662  12
  -1   0 -17 49.2721 61.2652  12
  -1   0 -18 7911.48 328.545  12
   1   0 -18 7572.53 317.845  12
  -1   0 -19 21.2504 56.6952  12
   1   0 -19-0.54606 57.8725  12
   1   0 -20 1310.25 123.611  12
  -1   0 -20 1377.70 125.405  12
   1  -1   0 18.2942 15.0824   2
   1   1   0 7.71223 19.9370   2
  -1  -1   0-1.89425 19.8269   2
   1   1  -1 132366. 780.828   3
  -1  -1   1 130889. 813.868  25
   1  -1   1 130611. 734.939   3
   1  -1   2 120559. 921.835   3
   1   1  -2 123318. 903.350   3
  -1  -1   2 121965. 907.674   3
  -1   1  -2 121932. 924.694   3
   1  -1   3 125984. 1129.01   3
  -1   1  -3 127032. 1130.69   3
   1   1  -3 127637. 1087.40   3
  -1  -1   3 127304. 1102.76   3
  -1  -1   4 55945.7 847.233   3
   1  -1   4 54576.6 856.058   3
   1   1  -4 54747.9 819.641   3
   1  -1   5 56232.3 977.061   3
  -1   1  -5 58334.4 446.779  23
  -1   1   5 56308.5 948.593   3
  -1  -1  -5 58493.4 450.540  23
  -1  -1  -5 58134.1 449.618  22
   1  -1  -5 58123.7 454.087  22
   1  -1  -5 57903.3 451.001  23
  -1  -1   5 58254.4 980.803   3
   1   1  -5 59214.4 451.941  23
   1   1  -5 58487.0 956.186   3
   1  -1  -6 8684.99 193.587  23
  -1  -1  -6 8580.23 191.867  23
  -1   1  -6 8532.92 192.869  23
  -1   1  -6 8164.79 173.686  22
  -1  -1  -6 8831.65 194.888  22
   1  -1  -6 8710.94 195.302  22
   1   1  -6 9037.32 196.239  23
   1  -1  -7 3187.86 129.091  23
   1   1  -7 3064.57 128.766  23
  -1   1  -7 3198.36 118.859  22
  -1  -1  -7 3621.54 137.406  22
  -1   1  -7 3163.65 130.295  23
  -1  -1  -7 3085.37 128.574  23
   1  -1  -7 3371.04 132.695  22
  -1   1  -8 30093.2 393.751  22
   1  -1  -8 29799.9 422.582  23
  -1  -1  -8 30083.2 419.384  22
  -1  -1  -8 29840.7 424.228  23
   1  -1  -8 30541.0 427.487  22
   1   1  -8 30394.6 429.260  23
  -1   1  -8 30276.6 428.620  23
  -1   1  -9 1198.93 89.6843  22
   1  -1  -9 1092.16 93.4951  23
   1  -1  -9 1169.82 93.9204  22
  -1  -1  -9 1275.56 96.7190  22
  -1  -1  -9 1349.97 101.319  23
   1   1  -9 1172.10 95.8548  23
  -1   1  -9 1185.08 95.5722  23
  -1  -1 -10 10703.3 294.264  23
  -1  -1 -10 10763.9 291.872  22
   1  -1 -10 10930.7 299.642  23
   1   1 -10 10666.5 297.573  23
  -1   1 -10 10643.2 294.328  23
   1   1 -11 18757.2 421.699  23
   1  -1 -11 18773.1 421.821  23
  -1  -1 -11 18575.6 407.412  22
  -1   1 -11 18726.2 417.241  23
  -1  -1 -11 19012.5 421.071  23
  -1  -1 -12 19743.0 445.474  22
   1  -1 -12 19720.0 457.459  23
  -1   1 -12 19418.9 454.194  23
  -1  -1 -12 19294.8 449.963  23
   1   1 -12 19640.7 460.751  23
  -1  -1 -13 9778.37 341.436  23
  -1   1 -13 9549.20 340.027  23
  -1  -1 -14 14607.7 441.837  23
  -1   1 -14 14392.4 441.427  23
   1   1 -15 562.270 103.119  12
  -1  -1 -15 286.209 76.9054  14
   1  -1 -15 477.743 96.3936  12
  -1  -1 -16 61.4099 74.3904  14
  -1   1 -16 213.912 77.4162  12
   1  -1 -16 60.8415 60.1816  12
   1   1 -16 50.7111 62.5453  12
   1  -1 -17 18.1420 59.8320  12
  -1  -1 -17 55.4260 65.0787  12
  -1   1 -17 6.72566 56.9978  12
   1   1 -17-11.4566 59.7028  12
  -1  -1 -18 4182.46 235.555  12
  -1   1 -18 4159.34 241.787  12
   1  -1 -18 4026.27 230.870  12
   1   1 -18 3966.36 239.222  12
  -1  -1 -19 634.309 99.0704  12
  -1   1 -19 831.206 114.263  12
   1   1 -19 759.483 109.728  12
   1  -1 -19 587.011 95.0426  12
  -1   1 -20 1206.14 118.700  12
  -1  -1 -20 1089.52 111.254  12
   1  -1 -20 1138.70 115.067  12
   1   1 -20 1121.36 113.701  12
  -1   1 -21 1471.83 116.940  12
   1  -2   0 43.9275 26.9919   2
  -1  -2   0 15.7898 35.2141   2
  -1   2  -1 411219. 1628.76   3
  -1  -2   1 413370. 1592.20  25
  -1   2   1 412616. 1531.18   2
   1  -2   2 74578.2 792.162   3
   1   2  -2 74762.3 820.212   3
  -1   2  -2 72478.4 796.491   3
   1  -2   3 770.918 99.5159   3
   1   2  -3 708.978 94.8750   3
  -1  -2   3 671.662 95.0320   3
  -1   2  -3 838.631 104.868   3
   1  -2   4 27308.2 629.836   3
  -1   2  -4 27579.0 626.713   3
   1   2  -4 26548.4 607.819   3
  -1  -2   4 26169.5 615.181   3
   1  -2  -5 237820. 910.694  23
  -1  -2  -5 238226. 959.144  22
  -1  -2  -5 236096. 923.402  23
   1  -2  -5 240116. 947.027  22
   1   2  -5 235906. 919.485  23
   1   2  -6 37063.6 403.520  23
   1  -2  -6 36547.0 408.313  22
  -1  -2  -6 36766.8 397.130  23
   1  -2  -6 36579.9 394.786  23
  -1  -2  -6 36532.6 408.826  22
  -1   2  -6 36049.1 393.961  23
  -1  -2  -7 1995.65 103.646  23
   1  -2  -7 1799.73 98.0187  23
  -1   2  -7 1796.25 100.397  23
  -1  -2  -7 1908.50 104.919  22
   1   2  -7 2027.25 106.634  23
   1  -2  -7 2005.94 106.566  22
  -1  -2  -8 6161.69 199.139  22
   1   2  -8 5841.89 191.034  23
  -1  -2  -8 6075.46 193.513  23
   1  -2  -8 6020.75 196.653  22
   1  -2  -8 6014.42 191.538  23
  -1   2  -8 6274.52 195.312  23
   1  -2  -9 55537.7 632.608  22
   1  -2  -9 54896.6 626.269  23
  -1   2  -9 54689.6 622.216  23
  -1  -2  -9 54003.8 620.356  23
   1   2  -9 54944.3 630.729  23
  -1  -2  -9 55023.3 627.237  22
   1   2 -10 2431.42 145.686  23
  -1  -2 -10 2591.06 147.695  23
   1  -2 -10 2532.82 148.648  22
   1  -2 -10 2688.59 152.461  23
  -1   2 -10 2503.24 146.139  23
  -1  -2 -10 2754.94 152.271  22
   1  -2 -11 32370.7 549.569  23
  -1  -2 -11 32306.3 546.403  23
   1   2 -11 31692.2 550.590  23
  -1  -2 -11 31729.9 545.016  22
  -1   2 -11 30896.5 538.168  23
   1  -2 -12 1650.42 137.694  23
  -1  -2 -12 1565.22 132.971  23
  -1  -2 -12 1862.56 145.032  22
  -1   2 -12 1552.11 133.391  23
  -1  -2 -13 210.020 61.5692  23
  -1  -2 -13 309.490 63.2069  22
  -1  -2 -14 38.5932 51.3268  23
  -1   2 -14 63.2413 53.6563  23
  -1  -2 -15 8934.54 372.834  14
   1  -2 -15 8795.32 335.425  12
   1   2 -15 9510.65 367.349  12
   1   2 -16 150.198 76.9489  12
  -1  -2 -16 214.872 85.5372  14
  -1   2 -16 118.813 67.2571  12
   1  -2 -16 158.297 69.6916  12
  -1   2 -17 1864.14 170.997  12
  -1  -2 -17 1906.37 181.636  14
   1  -2 -17 1769.73 157.010  12
  -1  -2 -17 1807.63 164.063  12
   1   2 -17 1947.09 176.440  12
  -1   2 -18 212.875 69.8593  12
   1  -2 -18 188.755 66.3774  12
  -1  -2 -18 251.210 76.5619  12
   1   2 -18 222.968 75.9950  12
   1  -2 -19 556.883 87.1466  12
   1   2 -19 473.198 86.6885  12
  -1   2 -19 518.645 88.8155  12
  -1  -2 -19 474.061 87.5136  12
  -1   2 -20 82.1830 53.3477  12
   1  -2 -20 39.3405 46.1780  12
   1   2 -20-23.9211 52.8654  12
  -1  -2 -20 57.1173 51.0948  12
  -1  -3   0 30.5786 35.3177   2
   1   3   0 85.5947 33.3391  25
  -1   3  -1 20067.8 436.846   3
   1   3  -1 19838.0 384.596  25
  -1  -3   1 19437.6 463.611   2
  -1   3   1 19522.6 410.591   2
  -1   3  -2 22709.2 506.692   3
  -1  -3   2 23772.3 453.608  25
  -1   3  -3 1620.25 155.480   3
   1  -3   3 1886.13 164.269   3
   1   3  -3 1651.81 157.589   3
   1   3  -4 3396.87 240.085   3
   1  -3  -4 3068.43 104.970  22
  -1   3  -4 3387.54 237.104   3
   1  -3   4 3335.73 235.373   3
   1  -3  -5 101183. 648.236  22
  -1  -3  -5 100243. 655.524  22
   1  -3  -5 100548. 603.327  23
   1   3  -5 101204. 605.188  23
  -1  -3  -5 103186. 608.238  23
   1  -3  -6 32185.2 373.490  23
  -1  -3  -6 31541.3 374.399  23
  -1  -3  -6 31523.9 395.350  22
   1  -3  -6 31161.1 389.840  22
   1   3  -6 30843.8 369.406  23
  -1   3  -6 30490.5 362.692  23
  -1   3  -7 34467.3 419.379  23
   1   3  -7 34907.8 430.668  23
  -1  -3  -7 35289.5 451.218  22
   1  -3  -7 34190.2 443.648  22
  -1  -3  -7 35194.8 431.020  23
   1  -3  -7 34277.8 424.972  23
  -1   3  -8 17038.4 321.299  23
  -1  -3  -8 17043.1 339.766  22
   1  -3  -8 17418.8 338.346  22
   1  -3  -8 17456.4 328.423  23
  -1  -3  -8 16996.0 324.342  23
   1   3  -8 17209.3 327.565  23
   1  -3  -9 15596.4 344.418  22
  -1  -3  -9 16039.1 350.743  22
   1   3  -9 15291.5 334.665  23
   1  -3  -9 16108.3 342.222  23
  -1  -3  -9 15792.3 337.906  23
  -1   3  -9 15220.3 329.908  23
  -1  -3 -10 1066.14 101.334  22
  -1   3 -10 996.482 93.5846  23
   1  -3 -10 1157.08 105.783  23
   1   3 -10 1092.80 101.704  23
  -1  -3 -10 1217.00 104.462  23
   1  -3 -10 1018.19 99.1192  22
  -1  -3 -11 79127.5 862.206  23
   1  -3 -11 79911.5 870.277  23
  -1   3 -11 80516.4 870.622  23
   1  -3 -11 78844.5 887.729  22
  -1  -3 -11 80546.1 886.463  22
  -1   3 -12 9302.79 319.395  23
   1  -3 -12 9278.19 315.892  23
  -1  -3 -12 9438.03 322.259  22
  -1  -3 -12 8965.94 308.959  23
  -1   3 -13 29351.1 597.786  23
  -1  -3 -13 28974.4 593.078  22
  -1  -3 -13 28803.1 585.482  23
  -1   3 -14 8170.14 332.261  23
  -1  -3 -14 8098.80 331.060  23
   1   3 -15 402.022 93.1047  12
  -1   3 -15 416.252 96.8573  12
  -1  -3 -15 418.570 98.0122  14
  -1  -3 -16-30.3231 71.1165  14
  -1   3 -16 4.58849 62.9146  12
   1   3 -16 35.9700 61.8328  12
  -1  -3 -17 1303.20 136.165  12
   1   3 -17 1354.46 150.604  12
  -1   3 -17 1331.51 144.817  12
  -1  -3 -17 1311.34 152.467  14
  -1   3 -18 555.614 99.7307  12
  -1  -3 -18 551.176 101.455  14
  -1  -3 -18 700.370 101.716  12
   1   3 -18 522.754 95.3771  12
  -1  -3 -19 3244.51 188.683  12
   1   3 -19 2970.65 194.052  12
   1   3 -19 3224.91 199.668  11
  -1   3 -19 3395.51 204.165  12
  -1   3 -20 72.4920 58.7974  11
   1   3 -20 3.73861 47.8776  12
  -1   3 -20 103.373 49.7724  12
   1   3 -20 36.1527 42.8612  11
  -1  -4   0 102.965 58.3114   2
  -1   4   0 65.7212 16.1457  25
   1   4   0 10.6661 30.9978  25
   1  -4   0 102.073 55.3965   2
  -1  -4   1 9020.01 361.154   2
  -1   4   1 8985.97 336.283   2
   1  -4   1 9550.19 352.713   2
  -1   4  -1 9052.42 342.219   3
  -1   4   2 1267.71 133.308   2
   1  -4   2 1144.93 64.4643  25
  -1  -4   2 1114.73 109.156  25
  -1  -4   2 1078.47 68.6403   4
   1   4  -2 1110.95 131.993   3
  -1   4  -2 1287.05 142.522   3
   1   4   2 1222.12 143.360   2
  -1  -4  -2 1108.56 69.8983   4
  -1  -4   2 1145.37 140.447   2
  -1  -4   3 237.695 66.6188  25
  -1   4  -3 433.058 96.4364   3
  -1  -4   4 84332.3 1110.83  25
   1  -4  -4 87178.6 573.533  22
  -1  -4  -5 32942.9 392.745  22
   1  -4  -5 32946.2 348.682  23
  -1  -4  -5 32151.6 347.126  23
   1  -4  -5 32415.0 383.191  22
  -1  -4  -6 8466.53 216.827  22
  -1  -4  -6 8814.01 202.752  23
   1  -4  -6 8698.24 212.932  22
   1  -4  -6 8580.38 195.589  23
   1  -4  -7 2945.38 126.725  23
   1  -4  -7 2711.58 129.765  22
  -1  -4  -7 2706.87 122.814  23
  -1  -4  -7 2874.07 136.696  22
   1  -4  -8 86749.4 742.062  23
   1  -4  -8 85146.1 770.863  22
  -1  -4  -8 85166.0 734.585  23
   1  -4  -9 8550.34 252.715  23
  -1  -4  -9 8519.33 266.517  22
  -1  -4  -9 8675.00 252.034  23
   1  -4  -9 8677.30 264.456  22
  -1  -4 -10 20039.1 410.324  23
   1  -4 -10 19633.8 425.832  22
   1  -4 -10 19960.4 411.051  23
  -1  -4 -10 19848.3 426.256  22
   1  -4 -11 8775.38 302.898  22
  -1  -4 -11 8390.29 295.666  22
   1  -4 -11 8554.58 288.211  23
  -1  -4 -11 8161.80 280.828  23
  -1  -4 -12 27220.4 557.341  22
  -1  -4 -12 27170.7 538.553  23
  -1  -4 -13 25.1641 49.4233  23
  -1  -4 -13 73.8818 53.3770  22
  -1  -4 -14 13854.4 454.059  14
   1   4 -14 13573.0 431.610  12
  -1  -4 -15 676.590 114.437  14
  -1   4 -15 763.033 117.165  12
   1   4 -15 730.750 112.177  12
   1   4 -16 2708.87 202.018  12
  -1  -4 -16 2791.86 213.245  14
  -1   4 -16 2596.55 200.607  12
  -1  -4 -17 1056.52 137.393  14
  -1   4 -17 1150.74 137.769  12
   1   4 -17 1271.63 141.773  12
   1   4 -18 3680.65 226.085  11
  -1   4 -18 3515.61 216.278  12
   1   4 -18 3844.89 228.919  12
  -1  -4 -18 3578.43 225.853  14
  -1   4 -19 10.7004 50.5562  12
   1   4 -19 58.2636 50.9538  12
  -1   4 -19-28.6420 53.9925  11
   1   4 -19 51.6084 54.6402  11
   1   4 -20 173.920 53.7273  11
   1   4 -20 270.901 67.4084  12
  -1   4 -20 105.717 49.4306  11
  -1   4 -20 133.636 45.3419  12
   1   5   0 43.5894 38.7635  25
   1  -5   0 47.5944 32.5868   4
   1  -5   1 1074.84 70.3212   4
  -1   5   1 932.624 127.458   2
   1  -5  -1 1076.73 70.8564   4
   1  -5   2 43913.0 443.547   4
  -1  -5   2 43848.4 456.547   4
  -1  -5  -2 43087.5 445.323   4
   1  -5  -2 44379.8 425.716   4
  -1  -5   3 12120.6 248.481   4
   1  -5  -3 12138.8 205.856  22
  -1  -5  -3 12050.5 246.315   4
   1  -5  -3 11987.4 232.886   4
   1  -5  -4 100075. 643.833  22
  -1  -5  -5 9408.74 221.463  22
   1  -5  -5 9446.53 217.006  22
  -1  -5  -6 39449.2 481.899  22
   1  -5  -6 39405.1 471.696  22
   1  -5  -7 567.027 65.9339  22
  -1  -5  -7 700.007 74.1926  22
  -1  -5  -8 7068.49 233.729  22
  -1  -5  -8 6859.55 210.766  23
   1  -5  -8 6664.88 223.029  22
  -1  -5  -9 18822.5 408.053  22
   1  -5  -9 18328.7 395.346  22
  -1  -5  -9 18683.2 373.687  23
   1  -5 -10 6801.05 256.757  22
  -1  -5 -10 7319.84 269.981  22
  -1  -5 -10 6922.28 243.747  23
  -1  -5 -11 1613.15 128.204  23
   1  -5 -11 1458.90 131.203  22
  -1  -5 -11 1420.74 129.250  22
  -1  -5 -12 20083.3 468.567  23
  -1  -5 -12 20294.7 491.203  22
  -1  -5 -13 34.4050 50.2981  22
   1   5 -14 16207.6 470.853  12
  -1   5 -14 16116.5 464.985  12
  -1  -5 -14 15366.9 473.783  15
  -1  -5 -14 16089.0 493.947  14
   1   5 -15-5.12081 60.6145  12
  -1  -5 -15 157.805 66.9889  14
  -1   5 -15 27.1552 63.7671  12
   1   5 -16 146.505 72.1633  12
  -1  -5 -16 95.5914 72.7358  14
  -1   5 -16 175.795 72.4734  12
   1   5 -17 16.9385 62.6214  11
  -1  -5 -17 3.85216 64.7380  14
   1   5 -17-121.027 71.5467  12
  -1   5 -17 53.5887 60.6376  12
  -1   5 -18 4701.91 254.821  11
  -1   5 -18 4060.98 226.231  12
   1   5 -18 3971.32 224.686  12
   1   5 -18 4237.57 239.981  11
  -1  -5 -18 4240.78 240.239  14
  -1   5 -19 479.129 84.0455  11
   1   5 -19 567.311 89.9355  12
  -1   5 -19 433.476 78.4083  12
   1   5 -19 449.785 85.0000  11
   1   5 -20 674.119 84.8802  11
  -1   5 -20 719.017 84.8695  12
  -1   5 -20 621.817 87.2353  11
   1  -6   0 12.3182 29.5894   4
  -1  -6   0 65.0079 32.1756   4
  -1  -6  -1 88041.2 685.919   4
   1  -6   1 86901.5 671.452   4
  -1  -6   1 86523.9 690.659   4
   1  -6  -1 88360.2 659.060   4
   1  -6  -2 34841.0 417.777   4
  -1  -6  -2 34602.5 437.984   4
   1  -6   2 34378.6 434.758   4
  -1  -6   2 34645.3 447.747   4
   1  -6  -3 1609.22 96.1359   4
  -1  -6  -3 1774.24 104.871   4
  -1  -6   3 1654.73 103.695   4
   1  -6   3 1554.45 101.753   4
  -1  -6   4 43235.7 535.755   4
   1  -6  -4 41704.4 439.695  22
   1  -6  -5 33636.2 424.450  22
  -1  -6  -5 33844.5 443.740  22
   1  -6  -6 14792.1 303.238  22
  -1  -6  -6 14851.1 309.796  22
   1  -6  -7 8446.02 243.993  22
  -1  -6  -7 8870.49 255.668  22
  -1  -6  -8 60311.1 706.851  22
   1  -6  -8 58919.2 681.572  22
  -1  -6  -9 22533.2 459.372  22
   1  -6  -9 21915.4 443.999  22
  -1  -6 -10 645.729 85.7720  22
   1  -6 -10 574.565 86.1048  22
   1  -6 -11 23173.9 507.108  22
  -1  -6 -11 22612.2 507.909  22
   1  -6 -12 4360.25 233.300  22
  -1  -6 -12 4539.35 241.815  22
   1  -6 -13 254.400 67.9598  14
  -1  -6 -13 285.661 81.6309  14
  -1  -6 -13 451.592 102.684  15
  -1  -6 -13 348.205 85.9137  20
   1   6 -14 6697.93 321.243  11
  -1  -6 -14 6904.94 331.620  14
  -1  -6 -14 6528.38 314.569  15
   1   6 -15 1938.15 178.643  11
   1   6 -15 2146.00 177.326  12
  -1  -6 -15 2082.13 188.477  14
  -1  -6 -16 297.837 87.1914  14
   1   6 -16 291.079 77.6599  12
   1   6 -16 184.693 78.4464  11
  -1  -6 -17 299.179 79.5223  14
  -1   6 -17 663.082 110.144  11
   1   6 -17 428.607 86.2341  12
   1   6 -17 710.221 115.339  11
   1   6 -18 997.952 113.767  12
  -1  -6 -18 1044.36 122.461  14
  -1   6 -18 1188.44 133.474  11
   1   6 -18 1073.74 125.592  11
  -1   6 -19-10.3160 46.0347  11
  -1  -6 -19 145.083 54.3085  14
   1   6 -19 90.2968 53.1228  11
   1  -7   0-34.1641 37.6236   4
  -1  -7   0 56.5126 38.7641   4
  -1  -7  -1 36519.7 487.724   4
   1  -7  -1 37250.8 474.409   4
  -1  -7   1 36503.4 494.507   4
   1  -7   1 37084.4 482.765   4
  -1  -7  -2 7423.31 224.305   4
   1  -7   2 7409.33 223.465   4
   1  -7  -2 7266.27 210.236   4
  -1  -7  -3 18809.0 363.301   4
  -1  -7   3 19030.1 370.383   4
   1  -7  -3 19437.2 350.031   4
   1  -7   3 18705.5 363.444   4
  -1  -7   4 20384.7 399.775   4
   1  -7   4 20458.2 395.136   4
  -1  -7   5 6888.01 242.951   4
  -1  -7  -5 6432.13 204.096  22
   1  -7   5 6648.74 236.055   4
  -1  -7  -6 16555.2 345.237  22
   1  -7  -6 16877.7 332.922  22
  -1  -7   6 16929.3 393.730   4
  -1  -7  -7 7082.99 239.759  22
   1  -7  -7 6760.65 225.904  22
   1  -7  -8 943.820 92.8551  22
  -1  -7  -8 1060.18 102.266  22
   1  -7  -9 9.84611 38.7796  22
  -1  -7  -9 7.51264 38.7397  22
   1  -7 -10 9284.01 314.859  22
  -1  -7 -10 8939.86 312.783  22
  -1  -7 -11 13115.7 397.424  22
   1  -7 -11 12137.1 376.736  22
   1   7 -12 10952.1 395.643  11
  -1  -7 -12 10594.4 371.880  22
  -1  -7 -13 4926.87 275.116  15
   1   7 -13 4883.41 274.845  11
  -1  -7 -13 4818.97 272.497  20
  -1  -7 -14 7048.91 329.697  15
  -1  -7 -14 6837.80 330.621  14
   1  -7 -14 6648.55 317.627  14
  -1  -7 -14 6679.72 319.292  20
  -1   7 -14 6766.53 324.408  11
   1   7 -14 6391.19 314.293  11
  -1  -7 -15 86.3781 75.4408  15
  -1   7 -15 83.2727 71.8753  11
   1   7 -15 219.612 86.9676  11
  -1  -7 -15 84.7170 67.4307  14
  -1   7 -16-35.4315 62.0086  11
   1   7 -16-30.1630 65.9182  11
  -1  -7 -16-18.4573 68.7154  14
   1   7 -17-20.9085 55.5228  11
  -1  -7 -17-10.6804 56.5892  14
  -1   7 -17-8.95315 60.8516  11
   1   7 -18 1013.82 117.968  11
  -1  -7 -18 918.768 112.364  14
  -1   7 -18 1150.56 126.054  11
  -1  -7 -19 323.507 66.7135  14
   1   7 -19 369.205 72.8301  11
  -1   7 -19 363.906 70.1790  11
  -1  -8   0-12.0342 43.4099   4
   1  -8   0 16.0681 36.5368   4
  -1  -8   1 43616.8 590.864   4
   1  -8   1 43171.3 567.580   4
  -1  -8  -1 44245.1 581.707   4
   1  -8  -1 43289.4 561.001   4
  -1  -8   2 28351.3 479.556   4
   1  -8  -2 28142.7 453.297   4
  -1  -8  -2 28311.9 471.497   4
   1  -8   2 27840.3 467.910   4
  -1  -8  -3 3478.83 172.171   4
  -1  -8   3 3682.80 181.311   4
   1  -8   3 3560.30 174.450   4
   1  -8  -3 3363.32 160.242   4
   1  -8   4 1390.15 115.128   4
  -1  -8   4 1382.45 118.989   4
  -1  -8  -5 35088.9 497.165  22
   1  -8   5 34319.0 573.186   4
  -1  -8   6 5693.55 246.544   4
  -1  -8  -6 5704.97 212.515  22
   1  -8   6 6131.72 254.551   4
  -1  -8  -7 11753.5 320.586  22
   1  -8   7 11674.0 362.844   4
  -1  -8   7 11152.0 355.657   4
  -1  -8   8 2074.28 165.958   4
  -1  -8  -8 2532.06 161.558  22
   1  -8  -9 4144.88 205.069  22
  -1  -8  -9 4122.27 210.680  22
  -1  -8   9 4408.70 242.405   4
   1  -8 -10 785.859 98.8879  22
  -1  -8 -10 806.531 103.251  22
  -1  -8  10 671.497 108.972   4
  -1  -8 -11 9569.00 348.950  22
   1  -8 -11 9102.78 331.703  22
  -1  -8  11 8920.41 374.884   4
   1   8 -12 272.036 81.7067  11
  -1   8 -12 308.834 81.6252  11
  -1  -8 -12 366.827 95.6986  15
   1   8 -13-16.3631 61.4994  11
  -1  -8 -13 144.591 86.8643  15
  -1   8 -13 68.0813 62.1557  11
  -1  -8 -13 132.840 80.6200  20
  -1  -8 -14 364.987 96.4405  14
   1   8 -14 301.788 90.3419  11
  -1  -8 -14 333.873 95.1920  20
  -1   8 -14 464.635 106.636  11
   1  -8 -14 469.125 109.285  14
  -1  -8 -14 314.736 89.6552  15
  -1  -8 -15 5763.57 293.947  15
   1   8 -15 5321.60 287.555  11
  -1  -8 -15 6410.95 314.203  14
   1  -8 -15 5649.88 286.046  14
  -1   8 -15 5779.43 296.503  11
   1   8 -16 104.452 67.0887  11
  -1  -8 -16 91.2173 67.8850  14
  -1   8 -16 84.7707 56.1936  11
   1   8 -17 641.933 101.206  11
  -1   8 -17 756.258 108.016  11
  -1  -8 -17 611.545 95.8538  14
  -1   8 -18 559.725 86.8539  11
  -1  -8 -18 521.778 86.1192  14
   1   8 -18 556.793 86.6529  11
  -1  -9   0 258.550 63.7142   4
   1  -9   0 89.6981 49.9486   4
  -1  -9   1 3218.67 176.944   4
   1  -9   1 3187.82 168.946   4
  -1  -9  -1 3265.77 175.416   4
   1  -9  -1 3148.90 167.408   4
  -1  -9   2 4258.52 205.338   4
   1  -9   2 4293.40 199.416   4
   1  -9  -2 4057.35 189.532   4
  -1  -9  -2 4054.74 195.831   4
  -1  -9  -3 35143.5 581.414   4
  -1  -9   3 34890.1 587.375   4
   1  -9  -3 35189.2 557.983   4
   1  -9   3 34617.7 575.934   4
  -1  -9   4 7201.53 274.471   4
   1  -9   4 7659.79 281.925   4
  -1  -9   5 35666.2 632.376   4
   1  -9   5 35555.7 626.298   4
   1  -9   6 5598.25 257.568   4
  -1  -9   6 5997.57 268.596   4
  -1  -9   7 7741.62 316.534   4
   1  -9   7 7552.24 311.161   4
   1  -9   8 1309.52 140.936   4
  -1  -9   8 877.817 116.493   4
  -1  -9  -8 1127.31 115.498  22
  -1  -9   9 12309.2 423.049   4
  -1  -9  -9 12507.6 375.476  22
   1  -9   9 12041.8 420.933   4
  -1  -9 -10 91.7442 50.1794  22
  -1  -9 -10 9.61480 56.2819  15
  -1  -9  10 137.882 75.4930   4
   1  -9  10 70.3072 62.6906   4
  -1  -9 -11 14411.7 465.273  15
  -1   9 -11 13837.8 443.783  11
   1  -9 -11 13090.2 435.711  15
   1   9 -11 14908.4 466.399  11
   1   9 -12 440.152 97.3836  11
  -1   9 -12 428.036 91.8000  11
  -1  -9 -12 243.453 88.3803  15
   1  -9 -12 448.751 95.4256  15
  -1   9 -13 3787.76 241.454  11
  -1  -9 -13 4171.58 257.458  15
   1   9 -13 3990.24 250.421  11
  -1  -9 -14 2084.97 186.316  15
   1  -9 -14 2050.59 176.793  14
   1   9 -14 1820.82 176.275  11
  -1  -9 -14 1726.72 168.052  20
  -1  -9 -14 1938.90 177.595  14
  -1   9 -14 1851.27 173.945  11
  -1   9 -15 12.0297 60.6148  11
   1   9 -15 105.985 70.1439  11
  -1  -9 -15-7.13212 57.9018  14
   1  -9 -15-24.6567 55.6150  14
  -1  -9 -15 73.4688 63.1812  15
   1   9 -16-110.150 69.4866  11
  -1   9 -16-23.6300 53.2928  11
  -1  -9 -16 9.77024 50.0610  14
  -1  -9 -17 35.2730 45.4603  14
  -1   9 -17 9.12403 49.9087  11
   1   9 -17 46.8216 50.6337  11
  -1   9 -18 103.169 48.7169  11
  -1  -9 -18 143.858 52.4046  14
   1   9 -18 195.420 60.8669  11
  -1 -10   0 5.85396 51.5338   4
   1 -10   0 13.4972 44.2247   4
  -1 -10  -1 10507.4 336.831   4
   1 -10  -1 10094.7 319.757   4
   1 -10   1 10767.4 333.515   4
  -1 -10   1 10868.5 343.744   4
   1 -10   2 60974.9 807.862   4
  -1 -10   2 62728.8 834.223   4
   1 -10  -2 62616.6 789.504   4
  -1 -10  -2 61422.6 810.268   4
   1 -10   3 1529.16 132.540   4
  -1 -10   3 1584.38 141.111   4
   1 -10  -3 1450.52 128.590   4
  -1 -10   4 2594.38 177.935   4
   1 -10   4 2839.17 185.621   4
  -1 -10   5 120.645 53.1823   4
   1 -10   5 237.983 70.6025   4
   1 -10   6 8978.69 344.161   4
  -1 -10   6 9208.56 351.785   4
  -1 -10   7 442.549 93.7962   4
   1 -10   7 474.149 92.9563   4
  -1 -10   8 10795.4 404.591   4
   1 -10   8 10696.7 402.240   4
   1  10  -9 4539.80 254.044  11
   1 -10  -9 4254.20 257.397  19
  -1 -10  -9 4260.30 262.952  19
  -1  10  -9 4514.19 250.612  11
   1 -10 -10 1602.44 164.191  19
  -1 -10 -10 1532.12 161.195  15
   1  10 -10 1720.60 168.322  11
  -1  10 -10 1459.04 153.537  11
  -1 -10 -11 397.212 96.0379  15
  -1  10 -11 549.424 107.570  11
   1  10 -11 553.811 99.4132  11
   1 -10 -11 631.006 112.484  15
  -1 -10 -12 1981.90 183.781  15
   1  10 -12 1922.61 176.979  11
   1 -10 -12 2135.08 183.497  15
  -1  10 -12 2044.51 180.575  11
  -1 -10 -13-16.3007 61.8893  15
   1 -10 -13-42.4786 67.3313  15
  -1  10 -13 4.04246 55.1224  11
   1  10 -13-116.415 84.1100  11
  -1 -10 -14 2397.85 188.097  20
   1 -10 -14 2405.79 188.138  14
  -1 -10 -14 2079.02 181.353  14
  -1  10 -14 2092.42 175.357  11
  -1 -10 -14 2116.95 181.312  15
   1  10 -14 2296.84 187.369  11
   1  10 -15 219.352 71.8628  11
  -1 -10 -15 146.597 69.9443  14
  -1 -10 -15 84.1700 58.5979  15
  -1  10 -15 58.4056 58.4216  11
   1 -10 -15 92.1959 63.6984  14
  -1  10 -16 35.6243 50.9051  11
  -1 -10 -16 68.9006 54.6895  14
   1  10 -16 5.55525 47.6235  11
  -1  10 -17 97.6067 51.8303  11
  -1 -10 -17 114.855 54.3991  14
  -1 -11   0 72.8820 55.3591   4
   1 -11   0-50.6316 53.6202   4
   1 -11   1 4237.94 226.254   4
  -1 -11   1 4221.25 231.382   4
  -1 -11  -1 4298.71 230.645   4
   1 -11  -1 4230.19 226.319   4
  -1 -11  -2 12751.5 397.350   4
  -1 -11   2 12607.6 399.745   4
   1 -11   2 12775.7 394.898   4
   1 -11  -2 12365.9 378.930   4
  -1 -11   3 360.376 85.0032   4
   1 -11   3 377.942 88.0310   4
   1 -11   4 38755.2 712.751   4
  -1 -11   4 39555.5 731.368   4
   1 -11   5 290.269 80.6175   4
  -1 -11   5 275.614 82.4840   4
   1 -11   6 14990.1 467.577   4
  -1 -11   6 15154.3 472.964   4
   1 -11  -7 3338.70 230.279  19
  -1  11  -7 3161.68 203.088  24
   1 -11   7 3751.33 246.226   4
  -1 -11  -7 3540.59 237.453  19
  -1 -11   7 3323.63 232.107   4
  -1 -11  -8 1479.13 162.867  19
   1 -11  -8 1632.57 169.958  19
  -1  11  -8 1702.23 159.074  24
  -1 -11  -9 4329.08 267.602  19
   1  11  -9 4258.82 256.188  11
  -1  11  -9 3672.94 234.498  11
   1 -11  -9 3992.57 257.625  19
   1  11 -10 4587.64 266.983  11
  -1  11 -10 4273.23 252.090  11
   1 -11 -10 4383.24 267.272  19
  -1 -11 -10 4626.92 274.847  15
  -1 -11 -11 316.698 92.8942  15
   1 -11 -11 462.963 99.7180  15
   1  11 -11 367.244 92.7256  11
  -1  11 -11 297.201 80.4628  11
   1  11 -12 1987.70 179.617  11
  -1 -11 -12 2632.22 205.692  15
   1 -11 -12 2365.65 194.617  15
  -1  11 -12 2160.09 185.913  11
  -1  11 -13 586.760 96.8649  11
  -1 -11 -13 507.031 103.732  15
   1  11 -13 686.107 112.124  11
   1 -11 -13 750.945 112.607  15
   1 -11 -14 1804.34 159.993  14
  -1 -11 -14 2194.62 174.912  20
  -1  11 -14 1908.94 159.679  11
   1  11 -14 1885.84 163.607  11
  -1 -11 -14 2006.12 172.218  14
  -1 -11 -14 2094.63 174.683  15
  -1  11 -15 66.0381 50.5639  11
  -1 -11 -15 164.091 63.8266  14
  -1 -11 -15 105.916 56.5477  15
   1 -11 -15 26.5748 45.2596  14
  -1 -11 -16 100.836 48.5495  14
   1 -12   0 3.20086 52.4925   4
  -1 -12   0-57.2817 69.6677   4
   1 -12   1 20280.4 515.573   4
  -1 -12  -1 19890.8 521.648   4
   1 -12  -1 19521.5 504.033   4
  -1 -12   1 19855.9 521.409   4
   1 -12  -2 2348.40 180.924   4
  -1 -12   2 2714.37 201.397   4
   1 -12   2 2414.90 189.583   4
   1 -12   3 1748.05 161.996   4
  -1 -12   3 1838.00 164.777   4
  -1 -12   4-25.8777 59.0501   4
   1 -12   4 22.6033 63.7812   4
   1 -12  -5 15639.0 497.471  19
  -1 -12  -5 15005.1 479.701  19
   1 -12  -5 15784.5 507.451  16
   1 -12  -6 339.315 100.109  19
  -1  12  -6 325.813 76.3982  24
   1  12  -6 235.121 73.2644  24
  -1 -12  -6 370.206 106.902  19
  -1 -12  -7 895.002 133.816  19
  -1  12  -7 1098.78 130.945  24
   1 -12  -7 1192.83 149.537  19
   1 -12  -8-63.6873 76.7935  19
  -1 -12  -8 121.026 87.3002  19
  -1  12  -8-49.7650 67.4572  24
   1 -12  -9 1071.99 144.056  19
  -1 -12 -10 581.204 116.787  15
   1 -12 -10 789.493 123.137  19
  -1 -12 -11 2658.31 210.124  15
   1 -12 -11 2554.64 203.111  15
   1 -12 -12 38.4299 54.7510  15
  -1 -12 -12 125.842 83.9838  15
  -1 -12 -13-29.3660 57.8511  15
   1 -12 -13 103.764 68.9825  15
  -1 -12 -13 16.2260 52.6880  20
   1 -12 -14 216.285 71.8800  14
  -1 -12 -14 189.880 63.2183  20
   1 -12 -14 100.356 47.0078  15
  -1 -12 -14 103.524 61.7461  15
  -1 -12 -14 199.098 69.7901  14
  -1 -12 -15 891.100 106.820  15
   1 -12 -15 839.376 101.138  14
  -1 -12 -15 748.522 98.1494  14
   1 -13   0 14.0424 67.8943  19
   1  13   0-59.4034 84.3506   6
   1  13  -1 3616.27 260.326   6
   1  13   1 3880.27 268.180   6
   1 -13  -2 2656.53 213.342  19
   1  13  -2 2571.58 226.964   6
   1  13   2 2706.43 225.431   6
  -1  13   2 2398.25 206.934   6
   1 -13  -3 9134.02 386.867  19
   1  13  -3 8660.30 395.178   6
   1 -13  -3 8528.41 373.245  16
  -1 -13  -3 7698.11 346.331  19
  -1  13  -4 97.0666 51.8526  24
  -1 -13  -4 240.593 83.6061  19
   1 -13  -4 194.483 84.3266  19
   1  13  -4 287.277 106.365   6
  -1 -13  -5 5254.92 292.784  19
   1 -13  -5 4915.16 288.658  19
  -1  13  -5 4982.17 253.992  24
   1  13  -5 5283.64 312.473   6
   1 -13  -6 684.511 122.671  19
   1  13  -6 909.872 147.712   6
  -1  13  -6 656.111 99.6765  24
  -1 -13  -6 845.270 129.005  19
  -1  13  -7 5378.48 271.797  24
   1 -13  -7 5269.21 300.063  19
  -1 -13  -7 5262.54 299.454  19
   1  13  -7 5568.96 314.686   6
   1 -13  -8 666.960 117.362  19
  -1 -13  -8 571.625 112.804  19
   1 -13  -9 116.854 64.8270  19
  -1 -13  -9 206.258 85.3421  15
  -1 -13 -10 1244.66 148.875  15
   1 -13 -10 1171.26 143.145  15
  -1 -13 -11 3462.58 228.503  15
   1 -13 -11 3275.43 216.997  15
   1 -13 -12 260.350 81.7165  15
  -1 -13 -12 207.001 76.0445  15
  -1 -13 -13 1870.71 154.666  15
   1 -13 -13 1697.36 144.343  15
  -1 -13 -13 1682.26 144.839  20
   1 -13 -14 129.203 55.0145  14
  -1 -13 -14 96.3174 51.3878  14
  -1 -13 -14 208.678 67.2809  15
   1 -13 -14 44.2703 41.1965  15
   1  14   0 22.5972 75.1804   6
  -1  14   0 143.714 84.6965   6
   1 -14   0 170.947 79.2023  19
   1  14   1 366.559 98.2136   6
   1 -14  -1 296.379 89.2382  19
  -1  14   1 372.842 98.5631   6
   1  14  -1 351.489 107.446   6
   1 -14  -2 2519.14 209.427  19
   1  14  -2 2612.51 231.588   6
   1  14   2 2564.11 221.079   6
   1  14  -3 651.058 124.662   6
   1 -14  -3 720.446 123.069  19
  -1 -14  -3 528.335 109.524  19
  -1  14  -4 2916.23 191.850  24
  -1 -14  -4 3557.64 245.780  19
   1 -14  -4 3450.76 242.816  19
   1  14  -4 3288.95 252.903   6
   1  14  -5 9.68914 73.2545   6
  -1 -14  -5 95.5863 82.8959  19
  -1  14  -5 19.7785 54.5267  24
   1 -14  -5 31.5477 68.2619  19
   1  14  -6 130.170 94.6413   6
   1 -14  -6 34.0978 68.6424  19
  -1  14  -6 109.336 58.9390  24
  -1 -14  -6 53.2065 65.5482  19
  -1 -14  -7 517.502 106.990  19
   1  14  -7 553.962 115.658   6
   1 -14  -7 384.349 101.457  19
   1  14  -8 3078.09 230.769   6
   1 -14  -8 3516.02 237.119  19
   1 -14  -9-48.3917 69.9501  19
  -1  14  -9 38.5298 65.2978   6
  -1 -14  -9 65.4095 60.0358  15
  -1 -14 -10 730.483 111.726  15
   1 -14 -10 461.900 93.7200  15
  -1 -14 -11 51.2144 56.5134  15
   1 -14 -11-39.2427 59.8547  15
  -1 -14 -12 1359.88 131.851  15
   1 -14 -12 1240.73 122.392  15
   1 -14 -13-31.2407 45.8226  14
  -1 -14 -13 12.3938 46.6390  15
  -1 -14 -13-28.6909 40.0873  20
  -1 -14 -13-22.5261 43.6431  14
   1 -14 -13-37.3340 45.7808  15
  -1  15   0-118.354 68.8779   6
   1  15   0-13.7126 80.8231   6
   1 -15  -1 0.42412 63.9285  19
  -1  15  -1-139.322 98.9888   6
   1  15   1-90.2992 85.7325   6
   1  15  -1 205.380 88.9333   6
  -1  15   1 49.2459 90.0255   6
   1  15   2 452.021 113.838   6
   1  15  -2 428.346 107.517   6
   1 -15  -2 619.340 105.974  19
  -1  15  -2 624.781 123.895   6
  -1  15  -3 747.964 132.874   6
   1 -15  -3 675.860 122.467  19
   1  15  -3 806.049 145.629   6
  -1  15  -4 4441.75 286.730   6
   1 -15  -4 4612.85 273.069  19
   1  15  -4 4313.10 282.204   6
  -1 -15  -4 4287.55 255.585  19
  -1 -15  -5 2896.31 215.354  19
   1  15  -5 2820.68 227.806   6
  -1  15  -5 2757.91 183.319  24
   1 -15  -5 2924.26 219.720  19
  -1  15  -5 2507.23 216.833   6
   1 -15  -6 2466.05 200.495  19
   1  15  -6 2472.28 212.981   6
  -1  15  -6 2632.18 219.789   6
  -1 -15  -6 2533.32 200.290  19
   1  15  -7 335.306 99.4684   6
   1 -15  -7 220.722 77.6772  19
  -1  15  -7 123.645 80.8733   6
  -1 -15  -8 241.153 76.6010  15
  -1  15  -8 231.001 76.9586   6
   1  15  -8 248.795 89.1163   6
   1 -15  -8 172.143 70.8504  19
   1 -15  -9 1067.20 126.211  15
  -1  15  -9 858.881 119.209   6
  -1 -15  -9 1215.05 132.771  15
  -1 -15 -10 65.1566 60.2498  15
   1 -15 -10 38.0236 47.4769  15
  -1 -15 -11 709.631 94.2938  15
   1 -15 -11 499.162 82.1839  15
   1  16   0-157.589 95.2350   6
  -1  16   0-27.7666 74.4595   6
  -1  16   1 491.295 103.703   6
   1  16  -1 624.630 120.844   6
  -1  16  -1 636.893 123.771   6
   1  16   1 430.849 101.620   6
   1  16  -2-35.7793 71.5018   6
   1 -16  -2 18.3350 61.2295  19
   1  16   2-14.1609 71.5675   6
  -1  16  -2 73.5108 76.3860   6
  -1  16  -3-35.8672 78.9325   6
   1  16  -3 110.295 76.9068   6
   1 -16  -3 44.4820 60.0782  19
  -1  16  -4 414.648 101.635   6
   1 -16  -4 450.862 99.5937  19
   1  16  -4 456.753 105.444   6
  -1 -16  -4 479.330 93.8886  19
   1  16  -5 1280.84 147.360   6
   1 -16  -5 1246.52 139.398  19
  -1  16  -5 1517.53 165.146   6
  -1 -16  -5 1402.35 144.622  19
  -1  16  -6 52.6604 68.4159   6
   1 -16  -6 36.2097 53.3270  19
   1  16  -6 113.420 76.1532   6
  -1  16  -7 1315.35 143.747   6
  -1 -16  -7 1134.21 128.593  15
   1 -16  -7 1190.61 130.168  19
   1  16  -7 1112.33 135.442   6
   1  16  -8 492.157 94.6189   6
  -1  16  -8 456.607 89.5393   6
   1 -16  -8 426.702 84.5113  15
  -1 -16  -8 304.234 73.8515  15
  -1 -16  -9 574.648 84.3726  15
   1 -16  -9 575.525 90.4859  15
  -1  16  -9 480.088 87.6944   6
   1 -16 -10 119.034 50.6829  15
  -1 -16 -10 4.73367 40.8530  15
   1  17   0-74.8274 64.5021   6
  -1  17   0-11.6481 62.5301   6
  -1  17   1 516.297 98.4272   6
  -1  17  -1 643.400 111.306   6
   1  17   1 668.939 112.631   6
   1  17  -1 568.031 109.833   6
   1 -17  -2 1152.10 123.089  19
   1  17  -2 1236.44 145.602   6
   1  17   2 1308.36 139.775   6
  -1  17  -2 1240.27 143.059   6
  -1  17  -3 289.712 87.2169   6
   1  17  -3 364.298 87.0475   6
   1 -17  -3 304.915 75.3368  19
   1  17  -4 1555.06 159.923   6
  -1  17  -4 1286.82 140.162   6
   1 -17  -4 1390.43 134.527  19
  -1  17  -5 176.915 70.5903   6
   1 -17  -5 78.6076 55.1999  19
   1  17  -5 85.7394 69.4103   6
   1  17  -6 817.639 115.590   6
  -1  17  -6 678.096 105.902   6
  -1 -17  -6 712.052 97.4896  15
   1  17  -7 196.483 63.3027   6
  -1  17  -7 183.505 69.0672   6
  -1 -17  -7 136.809 49.8745  15
   1 -17  -7 225.165 61.6623  15
   1  18   0-116.609 65.5235   6
  -1  18   0-61.3597 60.1721   6
   1  18  -1 80.2040 55.5966   6
  -1  18  -1 183.932 60.8913   6
  -1  18  -2 401.841 82.1392   6
   1  18  -2 393.207 79.6512   6
   1  18  -3 99.0398 59.7997   6
  -1  18  -3-40.4048 50.7687   6
   2   0   0 5567.47 184.069  25
   2   0  -1 56.8978 19.1613   3
  -2   0   1 27.9643 26.6577  25
  -2   0   2 513417. 1611.25   3
   2   0  -2 519375. 1609.03   3
  -2   0   3 206.113 52.3487   3
   2   0   4 21829.9 550.149   3
  -2   0   4 21603.8 497.674   3
  -2   0  -5 18.0535 26.0945  23
  -2   0   5 13.4047 47.4755   3
  -2   0  -6 428626. 1305.81  22
  -2   0  -6 430024. 1387.81  23
   2   0  -6 428534. 1393.28  23
  -2   0  -7 35.1104 27.7744  23
   2   0  -7 51.5714 34.0338  23
  -2   0  -7 11.1063 24.8122  22
  -2   0  -8 124063. 829.894  22
  -2   0  -8 123924. 875.577  23
   2   0  -8 124592. 881.387  23
  -2   0  -9 204.103 45.7827  23
   2   0  -9 174.633 49.1265  23
  -2   0 -10 524.386 68.5176  22
  -2   0 -10 559.423 74.0247  23
  -2   0 -11 8.53316 40.7363  23
  -2   0 -11 7.60565 32.1562  22
  -2   0 -12 19347.3 457.482  23
  -2   0 -13 4.29727 44.3571  23
  -2   0 -14 2805.80 196.655  23
  -2   0 -15-131.780 85.5557  14
   2   0 -15 88.0465 61.6616  12
   2   0 -16 25787.1 596.228  12
   2   0 -17-65.8632 65.5971  12
  -2   0 -18 1257.29 135.023  12
   2   0 -18 1113.12 129.749  12
  -2   0 -19 20.0156 51.3685  12
   2   0 -19 10.3684 51.8344  12
  -2   0 -20 246.279 70.9867  12
   2   0 -20 186.392 62.5716  12
   2   1   0 230726. 1057.64   2
   2   1   0 230076. 1301.08  25
   2  -1   0 228257. 1011.79  25
   2  -1   1 18390.3 280.908   3
  -2   1  -1 19194.4 294.475   3
  -2  -1   2 25739.4 424.175   3
   2   1  -2 26112.0 422.111   3
   2  -1   2 26937.0 445.967   3
   2   1  -3 91587.9 919.281   3
  -2  -1   3 92620.5 931.399   3
   2  -1   3 91419.3 979.539   3
   2  -1   4 405.143 86.7981   3
  -2   1   4 348.436 69.3812   3
   2   1  -4 359.818 77.6169   3
  -2  -1   5 1159.82 142.865   3
  -2   1  -5 1398.98 75.9175  23
   2   1  -5 1618.91 162.414   3
  -2  -1  -5 1390.71 75.2731  23
  -2   1   5 1220.32 140.163   3
   2  -1  -5 1355.64 74.2796  23
   2  -1  -6 25359.3 343.202  23
  -2  -1  -6 25003.5 332.441  22
  -2  -1  -6 25402.4 343.139  23
  -2   1  -6 25142.6 340.641  23
  -2   1  -7 3817.48 130.534  22
  -2   1  -7 3757.98 145.056  23
  -2  -1  -7 3944.94 145.765  23
   2  -1  -7 3931.08 145.887  23
  -2  -1  -7 3927.79 142.676  22
   2  -1  -8 716.285 73.8233  23
  -2   1  -8 894.236 79.3880  23
  -2  -1  -8 824.554 75.4296  22
  -2  -1  -8 698.188 71.1972  23
  -2  -1  -9 6177.11 214.232  23
   2  -1  -9 5908.92 211.374  23
  -2  -1  -9 6053.62 205.241  22
  -2   1  -9 6064.33 211.385  23
  -2  -1 -10 21611.6 415.525  22
  -2   1 -10 21194.9 421.807  23
  -2  -1 -10 21578.2 423.625  23
  -2   1 -11 6927.97 258.710  23
  -2  -1 -11 7064.90 260.880  23
  -2  -1 -11 6935.77 250.212  22
  -2   1 -12 100.770 58.4622  23
  -2  -1 -12 30.4672 43.6231  23
  -2  -1 -12-2.02622 45.3412  22
  -2  -1 -13 1571.71 137.873  22
  -2   1 -13 1628.02 147.048  23
  -2  -1 -13 1673.87 148.276  23
  -2   1 -14 465.969 90.9063  23
  -2  -1 -14 534.775 93.2844  23
   2  -1 -15 2115.05 172.875  12
   2   1 -15 2354.42 186.055  12
  -2  -1 -15 2071.10 190.546  14
  -2   1 -15 2175.70 184.564  13
   2  -1 -16 1579.08 156.258  12
  -2  -1 -16 1514.30 166.432  14
   2   1 -16 1730.41 164.791  12
   2   1 -17-6.53301 62.9913  12
   2  -1 -17-32.5165 58.5061  12
  -2   1 -17-54.0366 69.7206  12
  -2  -1 -18-1.06092 58.5374  12
   2  -1 -18-31.6848 57.6867  12
  -2   1 -18-70.4141 74.1215  12
   2   1 -18-21.4845 70.4045  12
   2  -1 -19 1814.33 149.146  12
  -2   1 -19 2141.16 169.148  12
   2   1 -19 2094.90 166.226  12
  -2  -1 -19 2138.18 164.619  12
   2   1 -20 138.088 52.4960  12
   2  -1 -20 101.846 46.2260  12
  -2  -1 -20 167.537 60.2284  12
  -2   1 -20 150.559 63.4178  12
   2   2   0 95103.8 921.877  25
   2  -2   0 96986.8 653.273   2
  -2   2   0 95795.3 659.827   3
   2   2   0 97867.7 900.827   2
  -2   2   1 688758. 1734.80   2
  -2   2  -1 688283. 2071.53   3
   2   2  -2 96650.9 952.308   3
  -2  -2   2 96167.5 1001.86  25
  -2   2  -2 95527.0 915.051   3
   2   2  -3 25746.6 542.199   3
   2  -2   3 25968.2 547.374   3
  -2   2  -3 26203.6 550.218   3
   2  -2   4 23764.8 593.043   3
   2   2  -4 24133.5 584.605   3
  -2  -2   4 23235.8 581.841   3
  -2   2  -4 23373.8 591.754   3
  -2  -2  -5 11304.3 211.722  23
   2  -2  -5 11468.5 213.546  22
  -2   2  -5 11498.1 210.314  23
   2  -2  -5 11688.7 211.266  23
   2  -2  -6 31091.4 380.648  23
  -2   2  -6 30603.9 375.345  23
  -2  -2  -6 31523.2 387.982  22
  -2  -2  -6 30528.6 381.418  23
   2  -2  -6 30644.2 380.970  22
   2  -2  -7 6471.69 190.235  23
   2  -2  -7 6751.39 195.366  22
  -2  -2  -7 7143.34 198.692  22
  -2  -2  -7 6832.28 193.682  23
  -2   2  -8 12031.5 275.280  23
  -2  -2  -8 12188.0 277.070  23
   2  -2  -8 11747.5 275.061  23
  -2  -2  -8 12142.1 280.116  22
  -2  -2  -9 184411. 1162.62  23
   2  -2  -9 185897. 1166.10  23
  -2  -2  -9 188295. 1178.63  22
  -2   2  -9 184632. 1156.49  23
  -2  -2 -10 58.5949 39.5998  22
  -2   2 -10 61.7650 35.4737  23
  -2  -2 -10 128.091 46.7717  23
  -2  -2 -11 19523.3 434.500  23
  -2  -2 -11 19039.2 423.351  22
  -2   2 -11 19116.1 426.109  23
  -2   2 -12 1245.47 123.722  23
  -2  -2 -12 1244.86 122.112  23
  -2  -2 -12 1103.64 114.051  22
  -2   2 -13 28416.9 590.161  23
  -2  -2 -13 29040.0 579.798  22
  -2  -2 -13 28996.6 590.628  23
  -2  -2 -14 117.143 56.9232  23
  -2   2 -14 112.063 55.6286  23
  -2  -2 -15 3083.07 228.428  14
   2   2 -15 3787.51 234.458  12
   2  -2 -15 3384.29 211.718  12
  -2   2 -15 3384.98 230.470  13
   2  -2 -16 1088.12 131.382  12
  -2  -2 -16 1212.72 146.319  14
   2   2 -16 1137.37 137.774  12
  -2   2 -16 1138.01 142.145  13
   2   2 -17 46.9203 58.0479  12
  -2   2 -17-90.9447 77.5401  12
   2  -2 -17 53.9276 52.5062  12
  -2  -2 -17 33.8701 62.2532  14
  -2   2 -18-60.5557 65.7709  12
  -2  -2 -18-30.2091 64.6016  12
   2   2 -18 99.9838 61.0319  12
   2  -2 -18-100.165 66.8657  12
   2  -2 -19 3839.04 206.367  12
  -2   2 -19 4282.14 232.080  12
   2   2 -19 4180.30 229.130  12
  -2  -2 -19 4140.09 217.125  12
  -2   2 -20 70.3509 48.5651  12
   2  -2 -20 37.4595 45.2145  12
   2   2 -20 6.33023 44.3132  12
  -2  -2 -20 66.4163 52.2297  12
   2  -3   0 41267.6 556.593   2
   2   3   0 41892.7 698.593   2
   2   3   0 40012.9 656.601  25
   2   3  -1 259529. 1657.05  25
  -2  -3   1 257876. 1734.86   2
   2   3   1 253470. 1768.47   2
  -2   3  -1 259221. 1526.81   3
  -2   3   1 258616. 1397.56   2
  -2   3  -2 60661.3 819.369   3
  -2  -3   2 63693.1 862.731  25
   2   3  -2 61736.8 884.190   3
  -2   3   2 62440.4 735.536   2
   2  -3   3 365.977 83.0172   3
  -2  -3   3 410.279 84.7803  25
   2   3  -3 296.701 77.1053   3
  -2   3  -3 262.118 73.6604   3
  -2  -3  -4 45641.4 388.537  23
   2  -3   4 46822.8 874.634   3
   2  -3  -4 46982.4 404.000  22
  -2   3  -4 47275.2 883.385   3
  -2  -3  -5 14093.7 238.508  23
  -2   3  -5 13305.5 223.685  23
   2  -3  -5 13789.1 240.904  22
  -2  -3  -6 4173.47 142.966  23
  -2  -3  -6 4335.24 151.465  22
  -2   3  -6 4022.40 137.136  23
   2  -3  -6 4416.06 144.085  23
   2  -3  -6 4071.70 144.371  22
  -2  -3  -7 6734.37 194.104  23
  -2   3  -7 6694.21 188.536  23
   2  -3  -7 6640.58 191.611  23
  -2  -3  -7 6946.91 204.900  22
   2  -3  -7 6434.70 196.476  22
  -2  -3  -8 6551.83 204.983  23
  -2   3  -8 6459.42 202.161  23
   2  -3  -8 6132.89 200.823  23
  -2  -3  -8 6574.76 214.181  22
   2  -3  -8 6230.09 207.459  22
  -2  -3  -9 40572.0 567.123  22
  -2  -3  -9 40133.9 547.139  23
  -2   3  -9 40255.6 543.317  23
  -2  -3 -10 1023.38 99.1549  23
  -2  -3 -10 1179.00 107.510  22
  -2   3 -10 1193.92 101.267  23
  -2   3 -11 354.812 63.4203  23
  -2  -3 -11 244.041 58.6436  23
  -2  -3 -11 279.912 63.2815  22
  -2  -3 -12 5340.74 244.513  23
  -2   3 -12 5206.08 238.810  23
  -2  -3 -12 4930.83 236.243  22
  -2  -3 -13 6279.06 279.360  22
  -2  -3 -13 5980.92 271.107  23
  -2   3 -13 6519.43 284.383  23
  -2   3 -14 128.654 63.5903  13
  -2  -3 -14 77.8223 59.4200  20
  -2  -3 -14 249.326 75.8185  23
  -2  -3 -14 60.3096 56.6534  14
  -2   3 -14 67.6748 49.8272  23
  -2  -3 -14 142.706 64.1790  22
   2   3 -14 172.034 66.9911  12
  -2  -3 -15 1542.59 162.932  20
   2   3 -15 1617.91 159.835  12
  -2  -3 -15 1594.89 168.464  14
  -2   3 -15 1775.41 173.980  13
  -2   3 -16 1817.00 177.155  13
  -2   3 -16 1944.33 172.864  12
   2   3 -16 2132.85 184.610  12
  -2  -3 -16 1835.11 180.054  14
  -2   3 -17 306.577 89.1738  12
  -2  -3 -17 286.979 94.5859  14
   2   3 -17 262.372 87.3274  12
  -2  -3 -17 316.060 82.9406  12
  -2   3 -18 877.847 116.898  12
  -2  -3 -18 796.979 121.252  14
   2   3 -18 855.786 119.713  12
  -2  -3 -18 940.405 116.760  12
  -2   3 -19 955.675 113.348  12
  -2  -3 -19 828.273 104.519  12
   2   3 -19 987.161 119.985  12
  -2  -3 -20-8.20568 38.5400  12
   2   3 -20 90.4772 49.0503  12
  -2   3 -20 55.4638 41.9767  12
   2  -4   0 164.115 52.2226   2
   2   4   0 134.088 59.5822  25
   2   4   0 147.983 65.3788   2
   2   4   1 159140. 1579.39   2
  -2  -4   1 156542. 1534.94   2
  -2  -4  -1 157543. 769.567   4
  -2  -4   1 156447. 761.214   4
   2  -4   1 158730. 1385.33   2
  -2   4  -1 155907. 1382.15   3
   2   4  -1 154675. 1376.38  25
  -2   4  -2 155241. 1468.05   3
  -2  -4   2 153759. 780.735   4
  -2  -4  -2 153525. 790.372   4
  -2   4   3 8957.83 352.955   2
  -2  -4   3 9254.28 200.019   4
  -2  -4   3 9129.92 372.753  25
  -2   4  -3 9406.58 393.344   3
   2  -4  -4 33912.5 358.386  22
  -2  -4  -4 34000.5 340.923  23
  -2  -4  -5 1554.48 83.7529  23
   2  -4  -5 1797.69 92.6380  22
  -2  -4  -6 122616. 772.535  23
   2  -4  -6 123441. 805.452  22
  -2  -4  -7 9542.71 249.795  22
   2  -4  -7 9997.83 248.222  22
  -2  -4  -7 9712.44 235.613  23
  -2  -4  -8 34618.5 505.433  22
   2  -4  -8 33924.0 492.150  22
  -2  -4  -8 34323.9 473.873  23
  -2  -4  -9 69584.2 764.208  22
  -2  -4  -9 70537.4 728.209  23
   2  -4  -9 69443.8 747.170  22
  -2  -4 -10 3563.23 186.789  22
  -2  -4 -10 3373.95 173.995  23
  -2  -4 -11 5895.78 241.338  23
  -2  -4 -11 5862.30 249.388  22
  -2  -4 -12 8763.27 311.649  23
  -2  -4 -12 8756.26 320.593  22
  -2  -4 -13 8213.32 324.930  22
  -2  -4 -13 8245.98 318.155  23
   2   4 -14 1550.74 151.491  12
  -2  -4 -14 1559.50 166.093  14
  -2   4 -14 1957.00 180.013  13
  -2  -4 -14 1793.07 171.286  20
   2   4 -15 3762.06 236.649  12
  -2  -4 -15 3602.35 241.709  20
  -2  -4 -15 3327.02 236.025  14
  -2  -4 -16 11332.5 425.041  14
  -2   4 -16 11656.6 405.159  12
   2   4 -16 11092.0 401.915  12
   2   4 -17 406.199 92.6017  12
  -2   4 -17 320.283 87.0372  12
  -2  -4 -17 406.969 96.2583  14
   2   4 -17 327.849 80.2997  11
  -2  -4 -18 73.9183 54.6760  14
  -2   4 -18 62.8019 62.9162  12
   2   4 -18 67.8148 51.6649  11
   2   4 -18-1.52777 54.0111  12
   2   4 -19 665.350 95.8723  11
   2   4 -19 601.211 96.5237  12
  -2   4 -19 665.054 97.5092  12
   2   4  20 635.436 103.839   9
  -2   4 -20 427.127 74.5132  12
  -2   4 -20 508.068 82.1090  11
  -2  -5   0 166517. 886.602   4
   2  -5   0 165796. 1586.25   2
   2  -5   0 167314. 807.250   4
   2  -5   1 972.220 127.343   2
   2   5  -1 1009.71 121.306  25
  -2  -5  -1 988.441 71.8282   4
   2  -5   1 1094.10 72.4537   4
   2  -5  -1 1106.28 69.0836   4
  -2  -5   1 1088.22 77.8908   4
  -2   5  -1 1038.37 133.558   3
   2  -5  -2 7602.86 173.278   4
  -2  -5  -2 8071.13 201.439   4
  -2  -5   2 8043.00 200.298   4
  -2   5   2 7384.78 346.028   2
   2  -5  -3 2232.90 88.0681  22
   2  -5  -3 2164.48 98.6186   4
  -2  -5   3 2512.62 116.871   4
  -2  -5   3 2122.34 190.870  25
   2  -5  -4 3223.22 116.933  22
  -2  -5   4 3239.20 138.250   4
   2  -5  -5 1625.74 92.4217  22
   2  -5  -6 14289.2 285.480  22
  -2  -5  -7 205.252 43.8660  22
   2  -5  -7 228.427 48.0194  22
  -2  -5  -7 273.922 44.9906  23
  -2  -5  -8 923.911 92.1663  22
   2  -5  -8 777.424 81.2318  22
  -2  -5  -8 702.401 74.5123  23
  -2  -5  -9 8142.24 252.755  23
   2  -5  -9 7821.92 259.109  22
  -2  -5  -9 8179.79 273.677  22
  -2  -5 -10 5582.84 224.045  23
  -2  -5 -10 5369.66 235.806  22
   2  -5 -10 5528.47 231.836  22
  -2  -5 -11 1087.27 110.842  23
  -2  -5 -11 1255.54 124.139  22
  -2  -5 -12 5307.48 257.632  22
  -2  -5 -12 5171.01 242.052  23
  -2  -5 -13 517.566 95.3140  23
  -2  -5 -13 493.338 85.4682  22
  -2  -5 -14 786.255 122.120  20
  -2  -5 -14 1020.35 137.196  14
   2   5 -14 932.401 123.400  12
  -2  -5 -14 1029.38 133.553  15
   2   5 -15 25.5345 62.8278  12
  -2  -5 -15 135.455 80.8632  14
  -2  -5 -15-47.5473 66.9420  20
  -2   5 -15 150.139 67.4483  12
   2   5 -15 198.495 74.5058  11
  -2  -5 -16 1986.70 182.013  20
   2   5 -16 1932.18 176.211  11
   2   5 -16 1998.03 178.788  12
  -2   5 -16 2017.21 172.884  12
  -2  -5 -16 1957.76 187.001  14
  -2   5 -17 470.745 93.6083  12
  -2  -5 -17 520.775 100.831  14
   2   5 -17 498.079 99.7841  11
   2   5 -17 547.272 103.952  12
   2   5 -18 38.5436 54.7996  12
  -2   5 -18 112.235 56.6089  12
   2   5 -18 99.7234 51.8738  11
  -2  -5 -18 182.703 71.7848  14
  -2   5 -19 72.5391 55.7913  11
   2   5 -19 5.05394 49.0975  11
  -2   5 -19 37.5010 44.3149  12
  -2   5 -20 575.576 81.2703  11
   2  -6   0 18952.0 303.863   4
  -2  -6   0 18784.6 327.237   4
  -2  -6   1 17611.1 318.409   4
   2  -6  -1 17889.5 295.285   4
  -2  -6  -1 17279.5 314.829   4
  -2  -6   2 83117.1 700.255   4
   2  -6  -2 81029.8 626.091   4
  -2  -6  -2 83076.5 696.190   4
   2  -6   2 82889.5 671.809   4
  -2  -6   3 37220.9 483.614   4
   2  -6  -3 36550.1 432.345   4
   2  -6   3 37925.6 473.555   4
  -2  -6   4 12831.0 292.937   4
   2  -6  -5 1089.19 78.1703  22
  -2  -6   5 447.732 66.2695   4
  -2  -6  -6 91814.7 797.862  22
   2  -6  -6 91494.8 743.238  22
  -2  -6   6 89698.6 848.426   4
   2  -6  -7 5941.47 203.880  22
  -2  -6  -7 5635.29 209.074  22
  -2  -6  -8 36352.2 557.502  22
   2  -6  -8 34572.1 524.093  22
  -2  -6  -9 19319.4 432.213  22
   2  -6  -9 19433.5 417.459  22
   2  -6 -10 45.3814 43.1602  22
  -2  -6 -10 67.3549 39.7288  22
  -2  -6 -11 1577.19 141.309  22
  -2  -6 -12 3084.69 201.698  22
  -2  -6 -13 6547.95 317.956  14
  -2  -6 -13 6389.46 312.932  20
  -2  -6 -13 6408.27 311.029  15
   2   6 -13 6486.42 307.748  11
   2   6 -14 1122.67 131.248  12
  -2  -6 -14 1266.31 152.464  14
  -2  -6 -14 1114.24 146.351  20
   2   6 -14 1170.50 140.955  11
  -2  -6 -14 1083.03 141.830  15
   2   6 -15 379.538 95.1447  11
   2   6 -15 557.824 99.1044  12
  -2  -6 -15 474.102 103.920  15
  -2  -6 -15 376.651 93.4809  20
  -2  -6 -16 11489.2 411.320  20
   2   6 -16 11729.7 401.627  12
   2   6 -16 12067.7 420.342  11
  -2  -6 -16 11927.5 431.111  14
   2   6 -17 146.941 68.9230  12
  -2  -6 -17 233.641 76.8766  14
   2   6 -17 77.5648 59.6222  11
  -2   6 -17 191.619 72.5251  11
  -2  -6 -18 244.631 67.0511  14
   2   6 -18 84.8078 53.0143  11
  -2   6 -18 342.550 91.9173  11
  -2   6 -19 1300.15 125.291  11
   2   6 -19 1365.37 123.443  11
  -2  -6 -19 1160.35 117.554  14
  -2  -7   0 235.689 49.8622   4
   2  -7   0 307.167 51.5690   4
  -2  -7  -1 143.288 44.7536   4
   2  -7  -1 94.5547 37.3306   4
   2  -7   1 193.225 47.3439   4
  -2  -7   2 698.508 78.5551   4
   2  -7   2 619.498 69.0322   4
  -2  -7  -2 827.201 83.4554   4
   2  -7  -2 805.826 73.6488   4
   2  -7  -3 16447.9 316.220   4
  -2  -7  -3 15858.9 343.397   4
   2  -7   3 16197.9 337.131   4
  -2  -7   3 16943.2 357.662   4
   2  -7   4 2531.85 141.434   4
  -2  -7   4 2559.47 146.494   4
  -2  -7   5 245.192 56.3974   4
  -2  -7   6 2912.09 167.301   4
  -2  -7  -6 2906.93 150.068  22
  -2  -7  -7 19115.6 401.682  22
   2  -7  -7 18568.3 371.983  22
  -2  -7   7 18877.1 436.131   4
   2  -7  -8 869.101 88.5451  22
  -2  -7  -8 1101.28 104.529  22
  -2  -7   8 1031.89 114.249   4
  -2  -7  -9 6003.47 252.724  22
  -2  -7   9 5810.66 266.982   4
   2  -7  -9 5716.28 233.510  22
  -2  -7 -10 2277.25 165.462  22
   2  -7 -10 2059.58 150.926  22
  -2  -7 -11 215.365 62.0874  22
  -2  -7 -12 101.589 64.0225  15
   2   7 -12 128.089 62.8326  11
  -2  -7 -13 2336.17 198.511  15
  -2  -7 -13 2252.24 193.005  14
  -2  -7 -13 2435.99 200.871  20
   2   7 -13 2242.33 189.460  11
   2   7 -14 187.027 76.1498  11
  -2  -7 -14 100.172 68.9416  15
  -2  -7 -14 186.011 80.1906  14
  -2  -7 -14 200.554 81.9149  20
  -2  -7 -15 2026.19 181.768  20
  -2  -7 -15 2284.49 196.213  15
   2   7 -15 2001.75 183.679  11
  -2  -7 -15 2053.32 190.002  14
  -2   7 -15 1860.39 175.248  11
  -2  -7 -16 2132.17 180.057  20
  -2  -7 -16 2228.51 188.090  14
   2   7 -16 2421.98 192.482  11
  -2   7 -16 2225.87 187.996  11
  -2   7 -17 493.136 89.9132  11
   2   7 -17 474.287 85.8751  11
  -2  -7 -17 424.795 88.5441  14
  -2  -7 -18 262.409 77.6881  14
  -2   7 -18 205.634 62.4081  11
   2   7 -18 108.288 55.9921  11
   2   7 -19 547.730 81.5049  11
  -2   7 -19 449.468 76.0812  11
  -2  -7 -19 412.171 73.9632  14
   2  -8   0 11810.4 294.041   4
  -2  -8   0 12465.5 320.079   4
   2  -8  -1 162424. 1071.24   4
  -2  -8  -1 165772. 1149.76   4
   2  -8   1 165681. 1096.92   4
   2  -8   2 52.6756 36.7466   4
   2  -8  -2 65.8248 36.1318   4
  -2  -8  -2 34.3072 41.3354   4
  -2  -8   2 52.5747 40.8250   4
   2  -8  -3 4817.26 187.163   4
  -2  -8  -3 4655.53 201.202   4
  -2  -8   3 4719.36 206.381   4
   2  -8   3 4440.52 194.925   4
   2  -8   4 400.573 67.7054   4
  -2  -8   4 373.375 69.1827   4
   2  -8   5 3788.57 192.886   4
  -2  -8   5 3944.18 199.309   4
  -2  -8   6 5973.83 252.920   4
  -2  -8  -6 6334.10 231.891  22
   2  -8   6 5923.78 249.724   4
  -2  -8  -7 5046.42 216.524  22
  -2  -8   7 4976.36 238.367   4
  -2  -8  -8 317.067 66.0125  22
  -2  -8   8 182.255 63.8745   4
  -2  -8  -9 55144.2 780.752  22
  -2  -8   9 53642.7 841.961   4
  -2  -8 -10 11996.4 381.954  22
  -2  -8  10 10818.3 394.789   4
  -2  -8  11 4688.53 271.836   4
  -2  -8 -11 4160.42 248.713  15
  -2  -8 -11 4544.59 244.114  22
   2   8 -11 4483.67 254.915  11
  -2   8 -12 673.409 108.913  11
   2   8 -12 567.103 105.959  11
  -2  -8 -12 818.145 127.439  15
  -2  -8 -13 9114.92 380.267  15
  -2  -8 -13 9225.83 381.032  20
   2   8 -13 9700.09 384.195  11
  -2   8 -13 9215.53 371.353  11
  -2  -8 -14 212.928 81.2545  15
  -2  -8 -14 206.962 83.1821  14
  -2   8 -14 170.839 82.3691  11
  -2  -8 -14 82.0564 60.2695  20
   2   8 -14 258.786 86.3716  11
   2   8 -15 939.904 125.246  11
  -2  -8 -15 995.394 133.407  15
  -2  -8 -15 916.187 134.596  14
  -2  -8 -15 1047.08 137.924  20
  -2   8 -15 1079.87 136.670  11
  -2  -8 -16 302.957 80.1734  14
  -2  -8 -16 325.651 86.5456  20
   2   8 -16 267.980 73.7687  11
  -2   8 -16 333.062 84.4399  11
  -2   8 -17 598.591 92.4703  11
  -2  -8 -17 428.884 86.4792  14
   2   8 -17 319.387 76.0842  11
   2   8 -18 26.4731 43.6797  11
  -2   8 -18-7.12129 46.3876  11
  -2  -8 -18 6.95227 44.3485  14
   2  -9   0 50334.5 648.326   4
  -2  -9   0 50774.2 691.372   4
  -2  -9  -1 1905.60 138.352   4
   2  -9  -1 1755.45 125.039   4
  -2  -9   1 2062.40 145.419   4
   2  -9   1 1710.64 125.526   4
   2  -9  -2 3896.54 183.143   4
  -2  -9   2 3709.10 195.534   4
  -2  -9  -2 3701.94 193.261   4
   2  -9   2 3717.96 186.677   4
   2  -9   3 47.1893 46.5685   4
   2  -9  -3 16.5410 41.9109   4
  -2  -9   3 27.8695 43.6369   4
   2  -9   4 6739.57 263.452   4
  -2  -9   4 6872.69 271.132   4
  -2  -9   5 41.3155 41.6389   4
   2  -9   5 37.1962 43.2482   4
  -2  -9  -6 1763.54 130.553  22
  -2  -9   6 1914.89 155.945   4
   2  -9   6 1923.03 155.371   4
  -2  -9   7 14.4540 50.3534   4
   2  -9   7-5.19712 55.4497   4
  -2  -9  -7 10.6584 37.6454  22
   2  -9   8 830.007 115.611   4
  -2  -9  -8 859.379 107.354  22
  -2  -9   8 770.035 113.753   4
  -2  -9   9 997.865 128.927   4
   2  -9   9 1070.54 135.766   4
  -2  -9  -9 877.192 110.870  22
   2  -9  10 7098.29 361.517  10
   2  -9 -10 6984.61 317.739  19
   2   9 -10 7762.92 332.216  11
  -2  -9 -10 7349.57 306.085  22
  -2  -9 -10 7294.41 330.530  15
  -2  -9  10 7233.61 335.577   4
   2  -9  10 7069.09 333.010   4
  -2   9 -11 872.246 116.726  11
   2   9 -11 1063.93 135.281  11
   2  -9 -11 931.026 126.939  19
  -2  -9 -11 1033.76 135.825  15
  -2   9 -12 237.311 82.4187  11
   2   9 -12 176.038 77.8017  11
  -2  -9 -12 155.518 75.4970  15
  -2   9 -13 2196.64 186.139  11
  -2  -9 -13 2127.70 193.735  15
  -2  -9 -13 1836.40 175.855  20
   2   9 -13 1970.97 181.999  11
   2   9 -14 1704.91 166.050  11
  -2  -9 -14 1833.79 175.995  14
  -2  -9 -14 1618.19 165.428  20
  -2   9 -14 1734.13 166.002  11
  -2  -9 -14 1466.10 159.234  15
  -2   9 -15 374.357 84.4976  11
  -2  -9 -15 289.639 81.2468  15
  -2  -9 -15 423.648 91.2771  20
   2   9 -15 301.889 81.4815  11
  -2  -9 -15 469.514 93.9695  14
  -2  -9 -16 240.573 74.8677  20
  -2  -9 -16 438.751 93.3402  14
   2   9 -16 268.648 74.3100  11
  -2   9 -16 408.694 80.9039  11
   2   9 -17 4.95343 49.1924  11
  -2  -9 -17 23.6442 49.9612  14
  -2   9 -17 4.36327 50.8749  11
  -2  -9 -18-7.95201 46.2836  14
  -2   9 -18-77.8983 49.3057  11
   2 -10   0 3022.67 175.134   4
  -2 -10   0 3078.32 185.322   4
   2 -10  -1 6024.66 244.858   4
   2 -10   1 6032.55 249.085   4
  -2 -10   1 6343.88 266.144   4
  -2 -10  -1 6089.09 260.863   4
  -2 -10  -2 30639.2 584.091   4
  -2 -10   2 29017.4 572.658   4
   2 -10   2 30679.8 568.835   4
   2 -10  -2 30164.9 541.309   4
   2 -10   3 8173.78 300.677   4
  -2 -10   3 7967.81 307.302   4
  -2 -10   4 8238.66 318.713   4
   2 -10   4 8133.00 307.942   4
   2 -10   5 676.324 102.435   4
  -2 -10   5 719.553 106.737   4
   2 -10   6 49883.2 807.910   4
  -2 -10   6 50003.7 818.471   4
   2 -10   7 14239.5 446.781   4
  -2 -10   7 13749.7 442.458   4
   2 -10   8 20078.2 548.064   4
  -2 -10   8 20867.7 560.317   4
   2  10  -9 2566.13 196.131  11
   2 -10   9 2663.01 233.998  10
  -2 -10  -9 2765.80 211.136  15
   2 -10  -9 2509.52 194.856  19
  -2  10  -9 2216.14 176.220  24
   2  10 -10-90.0578 74.8929  11
   2 -10  10 13.6316 72.1718  10
  -2 -10 -10-59.3207 76.4737  15
   2 -10 -10-34.3705 80.6189  19
  -2  10 -10-63.1561 71.6650  11
  -2  10 -11 207.011 72.4379  11
  -2 -10 -11 185.061 74.3751  15
   2 -10 -11 249.688 82.1939  19
   2  10 -11 163.634 76.1543  11
   2 -10 -11 110.455 71.3226  15
  -2  10 -12 2667.21 199.466  11
  -2 -10 -12 2587.19 209.183  15
   2  10 -12 2489.91 202.451  11
   2  10 -13 15.4423 73.6204  11
  -2 -10 -13-112.308 71.5363  15
  -2  10 -13 31.6708 56.7352  11
  -2 -10 -13-25.1518 72.3964  20
  -2 -10 -14 94.5240 60.2823  14
  -2 -10 -14 185.187 74.0076  15
   2  10 -14 203.673 78.0202  11
  -2  10 -14 251.428 77.1177  11
  -2 -10 -14 57.5384 57.6428  20
  -2  10 -15 456.116 89.0311  11
  -2 -10 -15 682.510 108.598  15
   2  10 -15 542.780 99.2827  11
  -2 -10 -15 694.758 106.747  20
  -2 -10 -15 590.197 100.677  14
  -2  10 -16 6496.05 269.564  11
  -2 -10 -16 6780.95 284.625  14
  -2 -10 -16 6770.80 276.805  20
  -2  10 -17 710.802 92.8366  11
  -2 -10 -17 767.951 93.7794  14
  -2 -11   0 2183.90 170.475   4
   2 -11   0 2295.00 167.548   4
  -2 -11  -1 5716.44 271.575   4
  -2 -11   1 5528.23 267.457   4
   2 -11   1 6011.02 266.291   4
   2 -11  -1 5832.47 257.052   4
  -2 -11  -2 947.643 116.396   4
  -2 -11   2 908.764 115.556   4
   2 -11   2 986.366 117.348   4
  -2 -11   3 476.129 88.0956   4
   2 -11   3 553.334 92.2013   4
   2 -11   4 2950.14 198.097   4
  -2 -11   4 3148.09 212.268   4
   2 -11   5 637.311 101.519   4
  -2 -11   5 541.395 98.7419   4
   2 -11   6 2807.53 207.371   4
  -2 -11   6 2716.24 206.855   4
   2 -11  -7 5145.05 293.530  16
  -2 -11  -7 5187.15 285.906  19
  -2  11  -7 4844.53 247.391  24
   2 -11  -7 5337.37 289.081  19
  -2  11  -8 386.476 83.1604  24
  -2 -11  -8 338.808 92.6560  19
   2 -11  -8 340.455 97.8611  19
  -2 -11  -9 4413.07 269.997  15
   2 -11  -9 4218.53 259.183  19
  -2  11  -9 3998.22 237.159  24
   2 -11 -10 160.892 91.4206  19
  -2 -11 -10 129.438 76.0054  15
  -2 -11 -11 526.957 114.417  15
   2 -11 -11 349.847 89.0912  15
  -2  11 -11 520.661 98.4458  11
   2 -11 -12 22.6662 59.8484  15
  -2  11 -12 159.748 70.9975  11
  -2 -11 -12 50.5704 71.5426  15
  -2 -11 -13 1409.91 155.872  15
  -2  11 -13 1120.68 131.729  11
  -2 -11 -13 1309.15 148.874  20
  -2 -11 -14 168.687 75.7200  14
  -2 -11 -14 63.0230 56.1370  15
  -2  11 -14-50.5038 55.3941  11
  -2 -11 -14 143.702 60.9009  20
  -2  11 -15-38.2438 45.7888  11
  -2 -11 -15 97.1351 72.3253  15
  -2 -11 -15 86.1833 60.5637  14
  -2 -11 -15-52.5076 52.4451  20
  -2 -11 -16 69.1777 48.9708  14
  -2 -11 -16 3.95415 42.8925  20
   2 -12   0 20764.5 518.359   4
  -2 -12   0 21814.2 553.248   4
   2 -12   1 11514.9 386.009   4
  -2 -12   1 10973.9 395.715   4
  -2 -12  -1 11538.8 404.881   4
  -2 -12   2 6369.67 308.279   4
   2 -12   2 6364.71 292.904   4
  -2 -12   3 5299.77 280.778   4
   2 -12   3 5381.18 276.382   4
   2 -12   4-38.7265 58.3025   4
   2  12  -4-19.4483 71.1648   6
   2 -12  -4-51.3283 72.4274  16
  -2 -12  -4 82.4015 54.9168  19
   2 -12  -4 9.48373 70.6110  19
   2  12  -5 187.873 82.5375   6
   2 -12  -5 293.673 88.0538  19
  -2  12  -5 375.940 77.9277  24
   2 -12  -5 461.351 109.986  16
  -2  12  -6 6438.43 283.432  24
   2  12  -6 7057.19 348.888   6
   2 -12  -6 7014.04 338.328  19
  -2 -12  -6 7381.67 343.621  19
   2 -12  -6 7547.77 363.679  16
  -2  12  -7 44.3251 53.9831  24
   2 -12  -7 127.928 82.3796  19
  -2 -12  -7 108.017 86.7027  19
   2  12  -7-11.9876 71.2730   6
   2 -12  -8 4934.92 285.702  19
  -2  12  -8 4562.16 254.207  24
   2 -12  -9 9800.10 395.356  19
  -2 -12  -9 10659.5 415.281  15
  -2 -12 -10 1236.51 152.925  15
   2 -12 -10 1335.35 157.526  19
   2 -12 -11 842.866 121.002  15
  -2 -12 -11 878.168 126.453  15
  -2 -12 -12 108.265 67.7799  15
   2 -12 -12 57.0537 57.7475  15
  -2 -12 -13 3002.99 205.534  20
  -2 -12 -13 3068.14 207.980  15
  -2 -12 -14 675.901 101.861  15
  -2 -12 -14 723.230 98.9771  20
  -2 -12 -14 804.194 106.846  14
  -2 -12 -15 134.582 60.2981  15
  -2 -12 -15 235.065 66.3797  14
  -2 -12 -15 157.995 50.5113  20
   2 -13   0 1919.97 185.110  19
   2  13   0 2435.24 222.424   6
   2 -13  -1 1812.07 181.454  19
   2  13   1 1773.18 189.844   6
   2  13  -1 2081.99 203.114   6
   2  13  -2 1618.75 186.642   6
   2  13   2 1438.85 173.540   6
   2 -13  -2 1709.82 179.259  19
   2  13   3 2757.75 226.256   6
   2  13  -3 3064.03 242.489   6
   2 -13  -3 3360.11 245.537  19
  -2  13  -3 3035.61 186.279  24
   2 -13  -3 2938.29 227.898  16
  -2  13  -4 3927.54 217.965  24
   2 -13  -4 4339.34 271.478  16
   2 -13  -4 4228.70 271.217  19
  -2 -13  -4 4628.50 269.645  19
   2  13  -4 4786.18 298.658   6
   2  13  -5 7.45598 74.0342   6
  -2 -13  -5 101.356 75.9028  19
   2 -13  -5-93.4959 88.6645  19
  -2  13  -5-1.75660 60.0030  24
   2 -13  -5 93.5167 80.0663  16
   2  13  -6 143.217 90.9858   6
   2 -13  -6 102.434 71.7453  19
  -2 -13  -6 123.807 75.0567  19
  -2  13  -6-35.7514 74.1563  24
   2 -13  -7 1375.32 159.367  19
   2  13  -7 1428.92 174.030   6
  -2 -13  -7 1392.34 158.827  19
  -2  13  -7 1031.09 128.061  24
   2 -13  -8 1024.30 136.451  19
  -2  13  -8 891.829 120.912  24
   2 -13  -9 2826.79 214.982  19
  -2 -13  -9 2842.21 215.963  15
   2 -13 -10 17.5882 62.7560  15
  -2 -13 -10-131.004 80.9623  15
   2 -13 -10-37.1613 70.7581  19
   2 -13 -11 837.069 114.039  15
  -2 -13 -11 940.913 129.286  15
  -2 -13 -12 319.753 81.3940  15
   2 -13 -12 347.230 76.3080  15
  -2 -13 -13 414.066 80.2779  15
  -2 -13 -13 435.144 82.2695  14
  -2 -13 -13 585.247 94.1381  20
  -2 -13 -14 54.4052 49.6727  20
  -2 -13 -14 42.1522 46.2105  14
  -2 -13 -14 76.7005 52.3178  15
   2 -14   0 1458.24 170.455  19
   2  14   0 1600.55 190.181   6
   2  14  -1 4716.31 301.278   6
   2  14   1 4933.77 307.645   6
  -2  14   1 4959.52 298.901   6
   2 -14  -1 5014.27 294.904  19
   2 -14   1 4297.82 273.080  19
   2  14  -2 459.230 115.276   6
   2  14   2 777.146 136.110   6
   2 -14  -2 854.122 136.597  19
   2  14   3 237.064 92.9136   6
   2 -14  -3 320.795 88.3059  16
  -2  14  -3 248.936 74.5047  24
   2 -14  -3 374.196 102.896  19
   2  14  -3 544.058 128.785   6
  -2  14  -4 1705.95 150.374  24
  -2 -14  -4 1790.93 172.373  19
   2 -14  -4 1914.91 188.063  19
   2  14  -4 1989.33 201.935   6
  -2 -14  -5 167.475 76.7208  19
   2 -14  -5 164.256 79.4242  19
   2  14  -5 180.250 95.2588   6
  -2  14  -5 102.034 62.8546  24
   2 -14  -6 4206.59 267.230  19
  -2 -14  -6 4400.85 266.552  19
   2  14  -6 3934.83 273.751   6
  -2  14  -6 4368.89 241.268  24
  -2  14  -7 1886.22 162.504  24
   2 -14  -7 2458.19 203.921  19
   2  14  -7 2114.62 197.687   6
   2 -14  -8 72.9739 69.5872  19
  -2 -14  -8 243.459 90.3358  15
  -2 -14  -9 2928.11 213.023  15
   2 -14  -9 2969.56 211.951  19
  -2 -14 -10 1441.55 150.076  15
   2 -14 -10 1326.19 141.879  15
  -2 -14 -11 245.173 71.2658  15
   2 -14 -11 99.9592 57.1074  15
   2 -14 -12 517.552 85.7459  15
  -2 -14 -12 438.032 85.3254  15
  -2 -14 -13 234.326 63.9317  15
  -2 -14 -13 310.971 67.3688  14
  -2 -14 -13 393.574 71.8106  20
   2  15   0 765.122 142.801   6
   2 -15   0 838.346 130.878  19
  -2  15   0 586.714 126.525   6
   2 -15  -1 298.194 89.0975  19
   2  15  -1 556.061 123.283   6
   2  15   1 311.735 107.513   6
  -2  15  -1 303.701 102.481   6
  -2  15   1 354.038 99.2942   6
   2  15   2 488.601 114.629   6
  -2  15  -2 564.671 122.285   6
   2 -15  -2 297.810 92.7075  19
   2  15  -2 366.906 105.665   6
   2  15   3 1101.63 149.993   6
   2 -15  -3 894.996 132.966  19
   2  15  -3 1057.84 157.683   6
   2 -15  -4 333.028 96.7495  19
  -2  15  -4 268.911 69.2988  24
   2  15  -4 259.269 87.6907   6
   2  15  -5-38.1691 85.3412   6
   2 -15  -5 70.4556 67.5789  19
  -2  15  -5 63.8025 53.3977  24
  -2 -15  -5 115.037 69.7795  19
  -2  15  -6 1848.29 154.793  24
   2  15  -6 1822.07 182.621   6
   2 -15  -6 1807.72 168.395  19
   2 -15  -7 553.556 105.438  19
  -2  15  -7 318.091 97.9415   6
  -2 -15  -7 462.556 97.4874  15
   2  15  -7 347.707 90.5525   6
  -2 -15  -8 6.95911 59.7084  15
  -2  15  -8 113.847 64.9482   6
  -2  15  -9-0.36339 57.4628   6
   2 -15  -9-1.31671 50.2359  15
  -2 -15  -9 5.50296 55.0131  15
  -2 -15 -10 208.478 67.4213  15
   2 -15 -10 204.403 63.1450  15
  -2 -15 -11 121.614 61.4263  15
   2 -15 -11 185.814 61.2829  15
   2 -16   0 401.148 93.2549  19
   2  16   0 299.318 97.1394   6
  -2  16   0 466.229 109.111   6
  -2  16   1 144.805 68.2029   6
   2  16   1 256.557 95.8708   6
  -2  16  -1 155.371 71.1008   6
   2  16  -1 338.062 102.217   6
   2 -16  -1 233.514 84.8621  19
   2  16   2 1118.23 150.710   6
   2 -16  -2 1048.00 135.805  19
  -2  16  -2 1034.47 142.351   6
   2  16  -2 1111.58 151.816   6
  -2  16  -3 1579.09 173.156   6
   2 -16  -3 1463.97 155.899  19
   2  16  -3 1444.04 165.945   6
   2  16   3 1738.48 174.451   6
  -2  16  -4 234.700 92.6023   6
   2 -16  -4 163.434 71.3966  19
   2  16  -4 147.729 85.1042   6
  -2  16  -5-13.9410 70.1043   6
   2 -16  -5 66.3124 64.1664  19
   2  16  -5 69.7657 79.7442   6
  -2 -16  -6 1835.19 160.796  15
   2  16  -6 1808.01 171.961   6
  -2  16  -6 2228.08 186.632   6
   2 -16  -6 1998.51 169.219  19
   2  16  -7 1066.35 133.377   6
  -2  16  -7 1215.98 140.560   6
   2 -16  -7 1227.09 134.624  19
  -2 -16  -7 1019.98 122.548  15
   2 -16  -8 1100.90 116.818  15
  -2 -16  -8 1052.96 113.634  15
  -2  16  -8 958.263 119.520   6
  -2 -16  -9 200.921 62.3687  15
   2 -16  -9 136.836 49.5215  15
  -2  16  -9 181.068 64.2084   6
   2  17   0 110.764 71.1319   6
  -2  17   0 101.061 70.3826   6
  -2  17  -1 167.862 67.5277   6
   2  17  -1 298.159 85.5381   6
   2  17   1 292.373 86.8596   6
   2 -17  -1 175.951 62.7903  19
   2  17   2-46.7840 60.5306   6
   2 -17  -2-60.7637 55.0666  19
  -2  17  -2 7.90153 55.5295   6
   2  17  -2-95.9794 76.7433   6
   2 -17  -3 984.443 116.613  19
   2  17  -3 932.199 125.199   6
  -2  17  -3 1096.62 130.050   6
  -2  17  -4-24.3987 54.2349   6
   2  17  -4-28.5232 62.2851   6
   2 -17  -4 50.6257 58.6455  19
   2 -17  -5-39.2214 49.6674  19
   2  17  -5-31.9145 57.6997   6
  -2 -17  -5 8.63218 48.0483  15
  -2  17  -5-11.1311 53.7044   6
   2  17  -6 118.754 65.6470   6
   2 -17  -6 40.4990 45.5531  19
  -2  17  -6 157.362 67.6907   6
  -2 -17  -6 134.057 55.2698  15
   2 -17  -7 1001.60 105.210  15
  -2  17  -7 1185.38 122.045   6
  -2 -17  -7 1244.11 115.675  15
   2  18   0 1592.35 141.680   6
   2  18  -1 777.792 104.752   6
   2  18  -2 29.3618 54.6090   6
   3   0   0 25.8210 16.9573   2
   3   0   0 7.49409 38.4029  25
   3   0  -1 26.5243 14.5490   3
  -3   0   1 71.6246 19.7691   2
  -3   0   1-8.10496 35.8424  25
  -3   0   2 123125. 1178.52  25
   3   0  -2 123212. 758.719   3
   3   0  -3 12.7838 27.0479   3
  -3   0   3 5.83863 22.1854   3
   3   0   4 208055. 1749.67   3
  -3   0   4 207810. 1499.22   3
  -3   0   5 38.1557 39.0623   3
  -3   0  -6 8322.29 189.453  22
  -3   0  -6 8501.75 207.353  23
  -3   0  -7-8.77293 28.3792  22
  -3   0  -7 201.747 42.6212  23
  -3   0  -8 33439.1 471.715  23
  -3   0  -8 32958.1 436.131  22
  -3   0  -9-26.5508 36.5458  22
  -3   0  -9-53.0203 45.0691  23
  -3   0 -10 1539.10 119.504  23
  -3   0 -11 10.7768 38.9534  23
  -3   0 -12 17847.4 451.047  23
  -3   0 -13 48.2609 44.8590  23
  -3   0 -14 6389.72 296.815  23
  -3   0 -15-24.6088 67.5105  13
  -3   0 -15-61.5871 74.4820  14
   3   0 -15 104.106 68.8006  12
   3   0 -16 5879.95 288.970  12
  -3   0 -16 5979.85 305.207  13
  -3   0 -17 42.9387 62.9367  13
   3   0 -17-68.7184 58.9941  12
  -3   0 -18 556.364 94.6244  12
   3   0 -18 640.985 103.593  12
  -3   0 -19-6.80085 53.0877  12
   3   0 -19 57.2694 61.5226  12
  -3   0 -20 183.188 62.9381  12
   3   1   0 22.9243 28.6905   2
   3  -1   0 109.662 44.7335  25
   3   1   0 5.39878 40.1513  25
   3  -1   1 160422. 859.127   3
  -3   1   1 163525. 1195.80  25
  -3  -1   1 164615. 975.453   2
   3   1  -1 159748. 1330.47  25
   3  -1   2 347281. 1643.57   3
  -3   1   2 347687. 1104.36   3
   3   1  -3 3954.93 194.667   3
   3  -1   3 4573.19 226.385   3
  -3  -1   3 3972.30 195.729   3
  -3   1   3 3894.80 164.632   3
  -3   1   4 72463.7 867.722   3
   3  -1   4 73334.1 1029.04   3
   3   1  -4 74580.8 951.108   3
  -3  -1   4 72966.8 946.137   3
  -3   1   5 56957.0 898.591   3
   3  -1   5 58116.9 510.717   1
  -3  -1   5 58818.4 963.355   3
  -3  -1  -6 5623.47 170.498  23
  -3   1  -6 5478.65 166.482  23
  -3   1  -6 5282.03 142.236  22
   3  -1   6 5125.04 157.154   1
  -3   1  -7 8161.59 222.743  23
  -3  -1  -7 8186.65 223.794  23
  -3  -1  -7 8037.86 208.172  22
  -3  -1  -8 23850.9 385.179  22
  -3  -1  -8 24547.0 404.521  23
  -3   1  -8 24181.1 399.950  23
  -3   1  -9 21563.9 406.646  23
  -3  -1  -9 21330.7 389.753  22
  -3  -1  -9 21561.6 404.522  23
  -3  -1 -10 59865.0 721.655  23
  -3   1 -10 58585.4 715.748  23
  -3  -1 -10 58972.3 689.307  22
  -3  -1 -11 3473.09 180.232  22
  -3   1 -11 3383.78 186.181  23
  -3  -1 -11 3405.76 186.877  23
  -3  -1 -12 56524.6 795.653  23
  -3  -1 -12 55935.3 749.645  22
  -3   1 -12 55556.2 791.789  23
  -3   1 -13 18768.6 484.250  23
  -3  -1 -13 18775.1 482.547  23
  -3  -1 -14 67.0524 50.9085  14
  -3   1 -14 153.659 62.0412  23
  -3  -1 -14 140.263 61.6098  23
   3   1 -14 235.527 67.1199  12
   3   1 -15 4801.65 262.344  12
  -3  -1 -15 4843.70 282.493  14
  -3  -1 -15 4919.75 278.634  13
  -3   1 -15 4925.11 277.175  13
   3  -1 -15 4779.72 254.276  12
  -3   1 -16 15.0897 62.8350  13
  -3  -1 -16-41.1816 67.4863  13
  -3  -1 -16 21.4073 63.4962  14
   3   1 -16 57.0187 63.2373  12
   3  -1 -16 163.584 65.6077  12
   3  -1 -17 2207.77 177.502  12
  -3   1 -17 2473.22 196.581  13
  -3  -1 -17 2424.94 195.779  13
   3   1 -17 2583.04 194.523  12
  -3  -1 -18-22.2844 61.3885  12
   3  -1 -18-69.7335 65.1341  12
  -3   1 -18 67.5068 65.2758  12
  -3   1 -18 66.2849 68.1590  13
   3   1 -18-24.9355 70.5933  12
   3  -1 -19 1370.49 128.047  12
   3   1 -19 1512.52 140.429  12
  -3  -1 -19 1482.62 139.693  12
  -3   1 -19 1421.73 138.983  12
  -3   1 -20 3925.66 200.225  12
  -3  -1 -20 4187.40 203.431  12
   3   2   0 40.5345 44.8849   2
   3   2   0-0.11148 44.5677  25
  -3   2   0 103.022 26.4561   3
   3  -2   0-0.38031 16.8548   2
  -3   2  -1 5591.52 183.457   3
   3   2  -1 5443.25 261.480  25
   3   2   1 5240.82 235.807   2
  -3  -2   1 5212.18 222.076   2
   3  -2   1 5296.25 179.614  25
  -3   2   1 5848.89 212.667  25
   3  -2   1 5403.10 176.601   3
  -3   2  -2 19175.6 416.730   3
   3  -2   2 19554.5 410.302   3
  -3  -2   2 19418.1 450.736   2
  -3  -2   2 20155.4 529.109  25
   3   2  -2 19604.9 447.756   3
  -3   2  -3 35256.0 656.493   3
   3  -2   3 36726.4 659.222   3
  -3  -2   3 36621.8 750.651  25
   3   2  -3 35165.2 651.347   3
   3  -2   4 26700.1 639.885   3
   3   2  -4 27181.0 625.295   3
  -3   2   4 27247.1 554.968   3
   3  -2   4 27733.5 357.122   1
   3  -2   5 474.831 55.5768   1
   3   2   5 391.610 51.6729   1
  -3  -2  -6 326.108 46.5855  23
   3  -2   6 207.536 42.7563   1
  -3   2  -6 249.201 43.4277  23
  -3  -2  -7 22065.2 366.277  23
  -3  -2  -7 21198.9 353.671  22
  -3   2  -7 21710.8 355.939  23
  -3   2  -8 201.803 45.3005  23
  -3  -2  -8 153.474 39.6095  23
  -3  -2  -8 197.340 40.5321  22
  -3   2  -9 4968.17 198.391  23
  -3  -2  -9 5145.42 198.835  22
  -3  -2  -9 4875.38 196.322  23
  -3   2 -10 5918.74 228.350  23
  -3  -2 -10 5975.62 230.655  23
  -3  -2 -10 5941.51 227.994  22
  -3   2 -11 16115.3 402.239  23
  -3  -2 -11 15725.4 396.907  23
  -3  -2 -11 15866.3 391.406  22
  -3   2 -12 2261.48 164.424  23
  -3  -2 -12 2360.90 168.207  23
  -3  -2 -12 2173.43 157.889  22
  -3  -2 -13 2456.02 178.591  23
  -3  -2 -13 2199.90 164.772  22
  -3   2 -13 2305.81 173.155  23
  -3  -2 -14 153.981 58.7829  23
  -3  -2 -14 163.516 66.7060  20
  -3   2 -14 97.6259 66.2518  13
  -3   2 -14 216.595 69.5481  23
  -3  -2 -14 268.602 75.7730  13
   3  -2 -14 254.442 61.6859  12
   3   2 -14 198.799 60.8471  12
  -3  -2 -14 299.613 79.1413  14
  -3  -2 -14 99.9338 52.9886  22
   3  -2 -15 1460.68 148.070  12
   3   2 -15 1517.58 154.272  12
  -3  -2 -15 1228.69 144.899  13
  -3   2 -15 1464.64 157.805  13
  -3  -2 -15 1288.93 153.161  14
  -3  -2 -16 86.5784 75.3700  14
  -3  -2 -16 53.3761 57.4007  13
   3   2 -16 10.2142 62.2004  12
   3  -2 -16 53.7779 59.2149  12
  -3   2 -16 110.041 71.8226  13
   3  -2 -17 2708.08 188.015  12
  -3   2 -17 2284.44 195.405  13
   3   2 -17 2611.86 196.981  12
  -3  -2 -17 2306.65 197.942  14
   3  -2 -18-61.0936 63.5590  12
   3   2 -18-44.9872 70.4027  12
  -3   2 -18 33.0572 57.0495  12
  -3  -2 -18-15.1835 57.9394  12
  -3   2 -19 206.243 76.2887  12
  -3  -2 -19 231.889 75.4875  12
   3   2 -19 143.555 68.1255  12
   3  -2 -19 6.65246 46.1355  12
  -3   2 -20 51.3991 48.5118  12
  -3  -2 -20 120.250 54.0651  12
  -3   3   0 74.9961 34.0822   3
   3   3   0-24.1730 50.3545  25
   3  -3   0 88.1215 35.3525   2
   3   3   0-28.0545 51.6696   2
   3   3  -1 8835.77 351.194  25
  -3   3  -1 8613.31 273.008   3
  -3  -3   1 8722.70 336.260   2
   3   3   1 9094.00 350.392   2
  -3   3   1 9040.63 241.493  25
  -3   3  -2 6256.61 262.982   3
  -3   3   2 6070.42 208.383   2
  -3  -3   2 6181.02 298.402   2
   3   3  -2 6522.11 300.500   3
  -3  -3   2 6416.28 310.948  25
  -3   3  -3 158197. 1472.62   3
   3  -3   3 159606. 1453.95   3
  -3   3  -4 4497.12 278.842   3
   3  -3   5 247138. 1179.57   1
  -3   3  -5 245202. 1012.42  23
   3  -3   6 179.276 45.5913   1
  -3  -3  -6 182.887 40.7036  23
  -3   3  -6 239.573 41.1261  23
  -3   3  -7 63.5203 34.5092  23
  -3  -3  -7 114.854 35.4967  22
  -3  -3  -7 121.394 38.0187  23
  -3   3  -8 9158.02 249.758  23
  -3  -3  -8 8832.15 251.844  22
  -3  -3  -8 9439.94 255.931  23
  -3   3  -9 42561.2 574.663  23
  -3  -3  -9 42262.8 584.803  22
  -3  -3  -9 42013.2 574.107  23
  -3  -3 -10 5407.76 225.522  22
  -3   3 -10 5477.11 223.057  23
  -3  -3 -10 5423.06 221.262  23
  -3   3 -11 275.068 63.1832  23
  -3  -3 -11 315.091 66.6689  23
  -3  -3 -11 275.159 64.2171  22
  -3  -3 -12 2022.46 156.287  23
  -3   3 -12 1895.71 147.555  23
  -3  -3 -12 2017.74 154.324  22
  -3  -3 -13 21454.7 515.952  23
  -3   3 -13 21258.1 515.202  23
  -3  -3 -13 21039.0 507.799  22
   3   3 -14 1478.01 153.630  12
  -3   3 -14 1475.03 159.208  13
  -3  -3 -14 1499.33 160.222  14
  -3  -3 -14 1687.22 168.625  20
   3   3 -15 6553.01 314.017  12
  -3   3 -15 6064.72 314.829  13
  -3  -3 -15 6511.27 326.822  14
  -3  -3 -15 6909.01 325.203  13
  -3  -3 -15 6648.47 324.674  20
  -3   3 -16-13.8805 59.1987  13
  -3  -3 -16 126.830 80.7216  14
   3   3 -16 49.0276 60.7900  12
  -3  -3 -16-2.96284 58.4969  13
  -3   3 -17 6451.50 301.679  12
   3   3 -17 6158.72 299.859  12
  -3  -3 -17 5919.85 308.410  14
   3   3 -18 927.809 121.208  12
  -3   3 -18 672.135 108.415  12
  -3  -3 -18 757.466 104.787  12
  -3   3 -19 2476.32 172.409  12
  -3  -3 -19 2682.02 171.932  12
   3   3 -19 2650.86 180.681  12
  -3   3 -20 162.020 56.7013  12
  -3  -3 -20 170.324 55.8008  12
   3   4   0 87.2908 58.5138  25
  -3   4   0 1.81102 35.6547   3
  -3  -4   0 23.1979 24.4506   4
   3  -4   0 81.3991 42.4715   2
   3  -4   1 70.3524 44.4469   2
  -3   4  -1 77.2604 44.5076   3
  -3  -4  -1 41.0040 28.3280   4
  -3  -4   1 40.7330 29.0733   4
   3   4  -1 86.1233 59.3838  25
  -3  -4   2 125970. 719.713   4
  -3   4  -2 126991. 1318.31   3
  -3   4  -3 334.007 88.0533   3
  -3  -4   3 387.287 48.9157   4
  -3  -4   4 3928.77 139.836   4
  -3  -4  -5 24479.3 337.812  23
  -3  -4  -6 26151.1 378.131  23
   3  -4   6 25646.6 421.784   1
  -3  -4  -7 1948.63 112.233  23
  -3  -4  -7 1781.79 113.413  22
  -3  -4  -8 3045.12 155.992  22
  -3  -4  -8 3062.65 148.804  23
  -3  -4  -9 15727.5 357.438  23
  -3  -4  -9 15452.4 368.294  22
  -3  -4 -10 2055.74 139.677  23
  -3  -4 -10 2133.96 147.872  22
  -3  -4 -11 3106.47 181.541  23
  -3  -4 -11 3123.69 189.203  22
  -3  -4 -12 3274.84 201.196  22
  -3  -4 -12 3427.25 201.994  23
  -3  -4 -13 1027.74 123.399  22
  -3  -4 -13 917.736 116.085  23
  -3  -4 -14-59.4458 64.3156  14
  -3   4 -14 7.48365 63.1582  13
   3   4 -14-39.2096 63.1851  12
  -3  -4 -14 106.190 76.3441  20
   3   4 -15 2325.82 188.762  12
   3   4 -15 2293.32 188.617  11
  -3  -4 -15 2636.63 213.835  14
  -3   4 -15 2759.68 216.126  13
  -3  -4 -15 2530.47 206.968  20
  -3  -4 -15 2050.42 184.602  13
  -3  -4 -16 71.4940 72.0411  14
   3   4 -16 42.1885 62.7109  12
   3   4 -16 128.962 74.1264  11
   3   4 -17 288.876 91.4953  12
  -3   4 -17 237.338 77.1142  12
  -3  -4 -17 246.580 82.3320  14
  -3  -4 -18 1019.01 127.802  14
  -3   4 -18 1103.49 124.745  12
   3   4 -18 1267.55 135.603  12
  -3   4 -19 179.981 66.4154  12
  -3   4 -20 608.703 89.4007  11
  -3   4 -20 692.289 85.4136  12
  -3  -5   0 0.31050 29.5277   4
   3  -5   0 96.9512 28.8472   4
   3  -5   1 17200.4 505.767   2
  -3  -5  -1 17948.1 298.943   4
   3  -5  -1 16726.4 252.805   4
  -3  -5   1 17622.5 296.899   4
   3  -5   1 17838.6 272.472   4
  -3  -5   2 162972. 912.593   4
  -3  -5  -2 161048. 923.344   4
  -3  -5   3 439.171 54.6406   4
   3  -5  -4 4058.17 130.934  22
  -3  -5   4 3863.40 151.392   4
  -3  -5   5 1220.44 91.3586   4
  -3  -5  -5 1233.63 79.3530  23
   3  -5  -5 1219.87 81.0979  22
  -3  -5  -6 12270.7 262.933  23
   3  -5  -6 11462.3 258.313  22
   3  -5   7 1287.15 105.197   1
  -3  -5  -7 1396.82 106.273  22
  -3  -5  -8 58310.0 651.671  23
  -3  -5  -8 58027.3 700.491  22
  -3  -5  -9 598.048 79.9400  22
  -3  -5  -9 430.003 65.3718  23
  -3  -5 -10 45404.6 648.127  23
  -3  -5 -10 44359.2 679.270  22
  -3  -5 -11 7072.40 287.968  22
  -3  -5 -11 7149.84 275.433  23
  -3  -5 -12 64188.8 858.080  23
  -3  -5 -12 63408.4 885.287  22
  -3  -5 -13 1221.46 129.411  23
  -3  -5 -13 1179.95 140.497  15
  -3  -5 -13 1153.87 140.678  14
   3   5 -13 1263.74 132.966  12
   3   5 -13 1324.48 137.275  11
  -3  -5 -13 1343.48 148.481  20
  -3  -5 -14 501.635 105.331  20
  -3  -5 -14 641.547 109.382  14
   3   5 -14 522.954 94.5203  11
   3   5 -14 648.957 110.382  12
  -3  -5 -14 479.741 98.0375  15
   3   5 -15 53.3167 61.1305  11
  -3  -5 -15 31.4074 64.0543  20
  -3  -5 -15-5.70606 66.2459  14
   3   5 -15 9.46099 61.0117  12
  -3  -5 -16 323.814 91.5418  14
   3   5 -16 343.089 94.9275  12
  -3   5 -16 501.128 95.8106  12
  -3  -5 -16 420.568 101.357  20
   3   5 -16 518.513 105.214  11
  -3   5 -17 499.356 92.1847  12
  -3  -5 -17 368.258 89.8200  14
   3   5 -17 420.755 89.1860  11
   3   5 -17 312.996 84.4349  12
   3   5 -18 22.9553 53.4219  11
  -3  -5 -18 55.2480 56.5566  14
  -3   5 -18-54.2238 56.1460  12
  -3   5 -19 81.8336 57.0950  11
  -3   5 -19 138.246 57.0538  12
   3  -6   0-28.4221 29.1736   4
  -3  -6   0 87.1448 34.7464   4
  -3  -6   1 1922.87 112.011   4
  -3  -6  -1 1948.64 113.397   4
   3  -6  -1 1916.86 97.5326   4
   3  -6   1 2045.62 105.237   4
  -3  -6   2 48025.7 544.526   4
  -3  -6  -2 47390.6 548.482   4
   3  -6   2 46278.9 506.278   4
  -3  -6   3 28.0137 31.3942   4
  -3  -6   4 54.1034 35.5347   4
  -3  -6   5 7449.22 237.083   4
   3  -6  -6 109.795 37.0975  22
  -3  -6   6 55.8364 36.8107   4
  -3  -6   7 367.378 66.1773   4
  -3  -6  -7 389.475 59.5800  22
  -3  -6  -8 1529.47 122.664  22
  -3  -6   8 1614.23 129.122   4
  -3  -6  -9 201.876 58.6849  22
  -3  -6 -10 2527.85 170.556  22
  -3  -6 -11 4301.29 231.409  22
  -3  -6 -12 2073.20 169.252  22
   3   6 -13 1386.40 156.927  11
  -3  -6 -13 1510.99 161.260  20
  -3  -6 -13 1247.27 146.939  15
  -3  -6 -13 1244.30 147.341  14
   3   6 -13 1293.45 137.206  12
   3   6 -14-39.2056 55.5395  12
  -3  -6 -14-56.4710 78.6490  15
  -3  -6 -14-45.7327 62.6723  14
  -3  -6 -14 10.8789 64.2752  20
   3   6 -14-35.8513 63.6676  11
   3   6 -15 1038.08 131.993  12
  -3  -6 -15 820.370 126.712  20
   3   6 -15 889.056 124.068  11
  -3  -6 -15 974.407 138.928  14
  -3  -6 -16 116.530 71.0383  20
  -3  -6 -16 71.2770 71.1915  14
   3   6 -16 68.9707 66.5592  11
   3   6 -16 101.881 65.0964  12
  -3  -6 -17 350.856 93.5406  14
   3   6 -17 310.228 80.3246  11
  -3  -6 -18 85.7011 57.2742  14
   3   6 -18 109.711 57.8313  11
  -3   6 -18 251.648 74.9811  11
  -3   6 -19 45.5885 54.5150  11
   3   6 -19 36.2105 44.4509  11
  -3  -6 -19 38.3473 52.2507  14
   3  -7   0-21.0510 34.5658   4
  -3  -7   0-10.8988 37.7525   4
  -3  -7  -1 11881.0 294.165   4
  -3  -7   1 12143.7 296.291   4
   3  -7   1 12221.2 274.266   4
   3  -7  -1 12311.9 266.047   4
  -3  -7  -2 32166.3 488.157   4
  -3  -7   2 32252.2 487.482   4
   3  -7   2 31939.7 456.929   4
   3  -7   3 40159.0 533.194   4
  -3  -7   3 39928.1 552.914   4
   3  -7   4 38720.5 543.338   4
  -3  -7   4 38389.1 559.215   4
  -3  -7   5 122783. 1028.34   4
  -3  -7   6 6943.53 256.122   4
  -3  -7  -7 170.811 49.5301  22
  -3  -7   7 102.013 45.8556   4
  -3  -7   8 1057.46 114.125   4
  -3  -7  -8 845.578 98.1023  22
  -3  -7   9 23858.2 529.547   4
  -3  -7  -9 25720.1 530.555  22
  -3  -7 -10 10189.7 350.185  22
  -3  -7  10 10071.2 360.769   4
  -3  -7 -11 29.4375 55.3930  22
  -3  -7 -12 7305.30 333.367  15
   3   7 -12 7128.34 319.954  11
  -3  -7 -13 8290.88 363.250  15
  -3  -7 -13 8610.97 371.226  14
  -3  -7 -13 8563.04 372.840  20
   3   7 -13 8675.66 362.156  11
  -3  -7 -14 9.23307 71.9133  15
   3   7 -14 40.2619 67.1670  11
  -3  -7 -14 6.23087 59.4325  14
  -3  -7 -14-27.6001 62.6682  20
   3   7 -15 5144.22 278.312  11
  -3  -7 -15 5279.08 288.970  20
  -3  -7 -15 5493.73 295.146  15
  -3  -7 -15 5263.27 290.362  14
   3   7 -16 89.6077 70.8496  11
  -3   7 -16 116.027 67.1888  11
  -3  -7 -16 156.068 75.3212  14
  -3  -7 -16 51.8300 59.0584  20
  -3  -7 -17 3276.35 208.179  20
  -3  -7 -17 3470.34 219.076  14
   3   7 -17 3366.32 209.322  11
  -3   7 -17 3426.96 214.988  11
   3   7 -18 732.970 99.3562  11
  -3  -7 -18 779.937 104.801  14
  -3   7 -18 912.291 109.210  11
  -3  -7 -19 1278.87 114.942  14
  -3   7 -19 1054.81 106.120  11
  -3  -8   0 21.8375 44.1060   4
   3  -8   0 2.27289 34.2891   4
  -3  -8  -1 11009.7 305.810   4
  -3  -8   1 11007.5 306.903   4
   3  -8   1 11381.0 287.293   4
   3  -8   2 213.461 52.3566   4
  -3  -8  -2 233.120 58.1193   4
  -3  -8   2 189.547 55.7339   4
  -3  -8   3 9443.33 292.177   4
   3  -8   3 9466.37 282.393   4
  -3  -8   4 6549.66 250.544   4
   3  -8   4 6414.15 240.155   4
  -3  -8   5 9668.07 311.485   4
   3  -8   5 9578.55 305.649   4
  -3  -8   6 5162.22 238.251   4
   3  -8   6 5099.57 232.322   4
  -3  -8  -7 902.626 99.5669  22
  -3  -8   7 787.877 104.215   4
  -3  -8  -8 21111.6 472.509  22
  -3  -8   8 20115.8 495.721   4
  -3  -8  -9 4423.24 230.602  22
  -3  -8   9 4321.40 243.253   4
  -3  -8 -10 133.011 62.6248  22
  -3  -8  10 74.9557 55.5955   4
   3  -8  11 2264.12 209.760  10
  -3  -8 -11 2207.58 190.637  15
   3   8 -11 2235.95 183.412  11
  -3   8 -11 2253.83 175.524  11
  -3   8 -12 4582.18 259.058  11
   3   8 -12 4275.81 257.346  11
  -3  -8 -12 4799.77 279.513  15
   3   8 -13 718.261 121.782  11
  -3  -8 -13 674.064 123.091  20
  -3  -8 -13 617.061 116.774  14
  -3  -8 -13 657.386 119.727  15
  -3   8 -13 906.676 128.228  11
  -3   8 -14 198.661 80.9346  11
  -3  -8 -14 182.461 84.3617  15
   3   8 -14 173.528 77.0954  11
  -3  -8 -14 88.1625 59.6675  14
  -3  -8 -14 308.691 92.9092  20
  -3  -8 -15 253.464 87.2558  15
  -3  -8 -15 177.352 81.0543  14
  -3  -8 -15 151.682 76.3957  20
   3   8 -15 257.870 77.2850  11
  -3   8 -15 272.753 76.9261  11
  -3   8 -16 1021.04 124.770  11
  -3  -8 -16 1164.74 142.793  14
   3   8 -16 846.507 115.306  11
  -3  -8 -16 747.900 115.962  20
  -3  -8 -17 985.615 117.883  20
  -3  -8 -17 1015.91 123.288  14
  -3   8 -17 942.986 113.371  11
   3   8 -17 988.068 119.138  11
   3   8 -18 123.346 53.7293  11
  -3  -8 -18 129.856 59.1540  14
  -3   8 -18 80.6968 47.4433  11
   3  -9   0-22.2420 41.2474   4
  -3  -9   0-24.3721 43.2681   4
  -3  -9   1 2022.51 146.747   4
   3  -9   1 2161.87 141.700   4
  -3  -9  -1 2148.41 151.294   4
  -3  -9  -2 57403.2 761.972   4
   3  -9   2 57396.3 712.262   4
  -3  -9   2 58272.0 768.111   4
  -3  -9   3 19211.2 450.578   4
   3  -9   3 18781.8 424.852   4
  -3  -9   4 1226.06 122.748   4
   3  -9   4 1528.15 130.329   4
  -3  -9   5 35198.4 633.273   4
   3  -9   5 36103.0 628.236   4
  -3  -9   6 25.1587 44.9822   4
  -3  -9  -6 44.6022 42.1235  22
   3  -9   6-14.7643 60.7522   4
  -3  -9   7 33.7028 54.7172   4
  -3  -9  -7 58.7250 52.2495  22
   3  -9   7 15.6228 54.6634   4
  -3  -9   8 17982.3 496.166   4
  -3  -9  -8 19014.3 465.323  22
   3  -9   8 18662.6 504.378   4
  -3  -9   9 1606.60 159.052   4
  -3  -9  -9 1537.19 140.053  22
   3  -9   9 1631.68 158.313   4
   3  -9  10 2540.26 223.456  10
   3   9 -10 2602.68 199.688  11
  -3  -9 -10 2324.63 194.963  15
  -3   9 -10 2262.89 171.647  24
  -3  -9 -11 5104.72 286.455  15
   3   9 -11 5183.53 282.877  11
  -3   9 -11 4679.82 259.198  11
   3  -9  11 5095.01 317.334  10
  -3  -9 -12 4583.44 276.528  15
  -3   9 -12 4741.18 261.611  11
   3   9 -12 4757.90 273.710  11
  -3   9 -13 6461.25 305.244  11
  -3  -9 -13 6672.47 333.175  20
  -3  -9 -13 6551.77 327.106  15
   3   9 -13 6509.71 318.272  11
  -3  -9 -14 646.144 118.243  15
  -3   9 -14 627.311 104.275  11
  -3  -9 -14 726.648 122.493  20
  -3  -9 -14 681.127 118.234  14
   3   9 -14 643.408 112.363  11
  -3   9 -15 1707.83 155.034  11
  -3  -9 -15 1992.41 179.520  14
  -3  -9 -15 1890.90 171.166  20
  -3  -9 -15 2071.67 179.435  15
   3   9 -15 1855.61 165.902  11
   3   9 -16 32.5940 58.3091  11
  -3  -9 -16-31.6204 51.6129  14
  -3  -9 -16 47.2378 58.6480  20
  -3   9 -16-11.6617 49.4027  11
  -3  -9 -17 1415.07 132.345  14
  -3  -9 -17 1247.19 120.931  20
  -3   9 -17 1323.58 124.959  11
  -3 -10   0 78.9401 52.4807   4
  -3 -10   1 625.010 95.6004   4
   3 -10   1 487.532 78.0642   4
  -3 -10  -1 475.229 82.4577   4
   3 -10   2 3579.62 196.258   4
  -3 -10  -2 3433.77 204.365   4
  -3 -10   2 3409.37 203.747   4
  -3 -10   3 1232.42 126.433   4
   3 -10   3 1111.14 115.908   4
  -3 -10   4 18053.3 474.950   4
   3 -10   4 18208.2 457.766   4
   3 -10   5 434.279 85.6084   4
  -3 -10   5 335.388 76.6597   4
  -3 -10   6 559.432 95.7309   4
   3 -10   6 710.403 111.090   4
   3 -10   7 178.081 67.9505   4
  -3 -10   7 259.327 70.3441   4
   3 -10   8 6160.50 304.173   4
  -3  10  -8 5357.05 254.265  24
   3 -10   8 6099.73 337.436  10
   3 -10  -8 6354.26 319.773  16
  -3 -10   8 6289.11 309.338   4
  -3 -10  -8 5702.38 267.066  22
   3  10  -9 969.891 132.933  11
  -3  10  -9 1088.31 125.534  24
   3 -10  -9 884.104 124.297  19
   3 -10   9 953.740 143.937  10
  -3 -10 -10 222.536 88.7436  15
   3 -10 -10 238.483 84.3228  19
   3  10 -10 123.608 61.1843  11
   3 -10  10 171.025 82.3884  10
  -3 -10 -11 75.9882 69.2806  15
   3  10 -11 157.267 84.9724  11
   3 -10  11 84.1185 73.5427  10
  -3 -10 -12 679.446 120.296  15
   3 -10  12 853.886 151.696  10
   3  10 -12 513.089 105.181  11
   3  10 -13 362.258 87.0444  11
  -3 -10 -13 422.483 102.509  15
  -3  10 -13 465.487 97.3435  11
  -3 -10 -13 387.062 97.0577  20
  -3  10 -14 1346.98 137.128  11
  -3 -10 -14 1409.81 150.386  15
  -3 -10 -14 1468.07 150.920  14
  -3 -10 -14 1262.22 144.994  20
   3  10 -14 1257.98 141.748  11
  -3 -10 -15 210.202 76.2479  14
  -3  10 -15 237.034 68.8869  11
  -3 -10 -15 253.253 82.7439  20
  -3 -10 -15 123.676 65.7693  15
  -3 -10 -16 358.925 79.5600  20
  -3 -10 -16 258.012 72.0921  14
  -3  10 -16 429.790 81.2254  11
  -3  10 -17-13.2043 38.2310  11
  -3 -10 -17 42.1598 39.5097  14
  -3 -11   0-12.1323 56.1159   4
  -3 -11  -1 18186.9 486.279   4
  -3 -11   1 17685.4 479.317   4
   3 -11   2 32296.0 615.826   4
  -3 -11   2 32746.8 656.483   4
   3 -11   3 467.963 87.5247   4
  -3 -11   3 641.443 106.655   4
  -3 -11   4 7661.84 329.818   4
   3 -11   4 7831.54 317.147   4
   3 -11   5 12119.7 404.486   4
  -3 -11   5 12039.4 420.937   4
   3 -11  -6 2314.18 192.989  19
  -3 -11   6 2051.81 183.966   4
   3 -11  -6 2124.23 191.629  16
  -3  11  -6 2366.25 166.062  24
   3 -11   6 2332.34 214.199  10
   3 -11   6 1867.70 169.873   4
  -3 -11  -7 56.3811 69.4908  19
   3 -11  -7 78.9608 72.9162  16
   3 -11  -7 8.73426 59.2703  19
  -3  11  -7 36.7499 63.0622  24
   3 -11   7 61.4619 78.7126  10
   3 -11  -8 1695.36 171.055  19
  -3  11  -8 1508.15 146.206  24
   3 -11  -8 1849.53 189.002  16
   3 -11   8 1829.60 197.476  10
   3 -11   9 1577.96 193.448  10
  -3  11  -9 1268.50 138.371  24
  -3 -11  -9 1513.26 160.458  15
   3 -11  -9 1391.61 153.523  19
   3 -11 -10 5337.63 288.457  19
  -3 -11 -10 6020.00 313.611  15
  -3 -11 -11 2557.17 207.804  15
   3 -11 -11 2074.93 181.580  19
  -3 -11 -12 9237.81 379.317  15
  -3 -11 -13 184.750 80.4263  15
  -3 -11 -13 156.407 71.8960  20
  -3 -11 -14 116.084 59.0880  14
  -3 -11 -14 209.361 78.8923  15
  -3 -11 -14 184.442 69.1968  20
  -3 -11 -15 2198.55 165.896  20
  -3  11 -15 2134.24 153.388  11
  -3 -11 -15 2452.08 176.322  15
  -3 -11 -15 2496.71 178.170  14
  -3 -11 -16 179.244 58.2319  14
  -3 -11 -16 176.348 58.9891  20
  -3 -12   0 60.6945 72.1208   4
  -3 -12  -1 1093.50 133.092   4
  -3 -12   1 1334.05 148.347   4
  -3 -12   2 3855.30 242.032   4
   3 -12  -3 136.926 90.2618  16
   3 -12  -3-62.9953 72.2183  19
   3  12   3 6.49615 68.1756   6
  -3 -12   3 81.4263 69.2130   4
   3  12  -3 150.606 83.1560   6
   3 -12  -4 404.953 97.7458  16
   3 -12  -4 407.292 100.785  19
   3  12   4 283.688 89.0066   6
   3  12  -4 536.703 112.892   6
   3 -12  -5 3096.98 230.008  19
  -3 -12  -5 2968.68 218.462  19
  -3  12  -5 3113.80 190.396  24
   3  12  -5 2960.81 231.751   6
   3 -12  -5 3427.96 248.818  16
  -3 -12  -6 1466.75 162.275  19
   3 -12  -6 1319.92 154.019  19
  -3  12  -6 1361.08 137.727  24
   3 -12  -6 1471.95 171.490  16
   3  12  -6 1568.57 181.575   6
   3 -12  -7 1228.02 147.113  19
   3 -12  -7 1074.61 153.015  16
  -3  12  -7 1108.18 130.508  24
  -3 -12  -8 8.91193 63.3676  15
   3 -12  -8 144.458 81.9115  19
  -3  12  -8 23.7537 59.3359  24
  -3  12  -9 584.920 98.9097  24
  -3 -12  -9 515.877 119.131  15
   3 -12  -9 579.388 108.882  19
   3 -12 -10 978.714 131.811  19
  -3 -12 -10 916.615 134.871  15
  -3 -12 -11 3593.35 240.665  15
  -3 -12 -12-28.4583 58.5234  15
  -3 -12 -13-39.4048 62.3918  15
  -3 -12 -13-40.0032 65.7215  14
  -3 -12 -13 5.77029 53.8284  20
  -3 -12 -14 62.5653 53.8918  15
  -3 -12 -14 81.5710 50.4224  14
  -3 -12 -14 76.6062 56.5409  20
  -3 -12 -15 338.143 73.9271  15
  -3 -12 -15 357.947 72.1535  14
  -3 -12 -15 338.876 69.0223  20
   3  13   0 13.8499 76.0089   6
   3 -13  -1 49.3997 79.0365  19
   3  13   1 15.5883 70.2038   6
   3  13  -1 90.6466 80.7787   6
   3 -13  -2 371.547 100.266  16
   3  13  -2 452.615 108.599   6
   3 -13  -2 466.643 107.611  19
   3  13   2 507.028 117.939   6
   3  13  -3 5620.46 327.003   6
  -3  13  -3 5589.61 250.795  24
   3 -13  -3 6353.17 330.840  19
   3  13   3 6348.72 339.454   6
   3 -13  -3 5876.76 322.316  16
   3  13   4 4655.34 290.837   6
  -3  13  -4 3899.79 217.780  24
   3 -13  -4 4058.84 271.523  16
   3 -13  -4 4803.00 287.580  19
   3  13  -4 4036.59 275.277   6
  -3 -13  -5 24341.6 610.043  19
   3 -13  -5 24664.5 640.672  19
   3 -13  -5 24948.9 654.437  16
   3  13  -5 24708.5 664.730   6
   3 -13  -6 1870.01 189.605  19
  -3  13  -6 2081.35 170.352  24
   3  13  -6 2079.89 200.844   6
   3 -13  -6 2034.06 200.968  16
   3  13  -7-79.5428 87.8215   6
   3 -13  -7 43.2621 63.4730  19
  -3  13  -7 38.2408 58.4441  24
  -3 -13  -8 1665.00 173.879  15
   3 -13  -8 1701.81 173.322  19
  -3  13  -8 1469.21 151.561  24
  -3 -13  -9 2002.23 181.084  15
   3 -13  -9 2089.71 184.854  19
  -3 -13 -10-50.4906 72.8105  15
   3 -13 -10-1.58234 67.5202  15
   3 -13 -10 42.0783 60.3361  19
  -3 -13 -11 364.901 92.4955  15
   3 -13 -11 164.583 68.8625  15
  -3 -13 -12-18.2555 54.9683  15
  -3 -13 -13 1441.56 136.624  15
  -3 -13 -13 1266.38 128.609  20
  -3 -13 -13 1284.08 125.461  14
  -3 -13 -14 449.211 77.2202  14
  -3 -13 -14 470.765 80.0473  15
  -3 -13 -14 426.320 81.0012  20
   3  14   0 42.9604 85.9364   6
   3 -14   0 66.9844 82.2545  19
   3  14   1-62.8450 82.2034   6
   3  14  -1-61.9025 79.6308   6
   3 -14  -1-13.7150 69.3959  19
   3 -14   1-36.7368 66.6951  19
  -3  14  -2 3983.70 210.230  24
   3 -14  -2 4010.01 267.350  19
   3  14   2 4124.42 282.609   6
   3  14  -2 3907.84 277.896   6
   3 -14  -3 361.414 112.758  19
   3 -14  -3 458.254 104.162  16
  -3  14  -3 739.692 108.068  24
   3  14  -3 317.376 105.682   6
   3  14   3 487.551 117.282   6
   3 -14  -4 930.854 141.397  16
  -3  14  -4 1015.76 117.075  24
   3  14  -4 1195.27 165.169   6
   3 -14  -4 1406.13 163.011  19
   3  14  -5 1022.90 149.063   6
   3 -14  -5 951.469 139.066  19
  -3  14  -5 698.136 105.054  24
   3  14  -6 148.036 84.0508   6
   3 -14  -6 107.758 69.5786  19
  -3  14  -6-23.1561 60.2951  24
  -3  14  -7-25.1641 57.2474  24
   3 -14  -7 119.759 71.5065  19
  -3 -14  -7 17.0302 60.5344  15
   3  14  -7 61.7159 73.4737   6
   3 -14  -8 1512.62 160.725  19
  -3 -14  -8 1756.47 167.742  15
   3 -14  -9 164.264 71.4124  19
  -3 -14  -9 139.847 65.4056  15
  -3 -14 -10-53.9061 64.3690  15
   3 -14 -10 33.5058 51.8300  15
   3 -14 -11-11.9072 53.0612  15
  -3 -14 -11 123.710 69.3958  15
  -3 -14 -12 237.337 62.2994  15
  -3 -14 -12 314.214 72.3083  20
  -3 -14 -13 71.2010 50.8611  15
  -3 -14 -13-5.16884 40.9328  14
  -3  15   0 49.3239 75.1118   6
   3  15   0 85.4487 90.0854   6
   3 -15   0 182.714 81.9679  19
   3  15  -1 2012.19 208.737   6
   3 -15  -1 2098.03 194.127  19
   3 -15   1 2092.10 193.912  19
   3  15   1 1776.52 190.011   6
  -3  15  -2 4388.45 216.592  24
   3 -15   2 4952.90 285.024  19
   3  15   2 5049.46 303.391   6
   3  15  -2 4790.87 303.472   6
   3 -15  -2 5075.81 290.616  19
   3 -15  -3 2453.70 205.189  19
  -3  15  -3 2187.39 163.687  24
   3  15  -3 2839.64 234.470   6
   3  15   3 2788.35 223.697   6
  -3  15  -4-7.25670 55.4355  24
   3  15  -4 145.412 85.4859   6
   3 -15  -4 142.304 76.3017  19
   3 -15  -5 37.4865 66.0972  19
  -3  15  -5 5.62286 57.8333  24
  -3  15  -6 364.569 77.3124  24
  -3 -15  -6 407.955 90.8991  15
   3  15  -6 411.954 106.698   6
   3 -15  -6 529.712 104.915  19
  -3 -15  -7 247.138 80.7933  15
   3  15  -7 287.160 88.7446   6
   3 -15  -7 351.309 92.4807  19
   3 -15  -8 2667.81 191.716  19
  -3 -15  -8 2574.76 188.481  15
  -3  15  -9-73.7174 70.5135   6
  -3 -15  -9 32.1562 55.4024  15
   3 -15  -9 8.52152 56.0016  15
   3 -15  -9 57.0412 60.4542  19
  -3 -15 -10 474.533 87.5406  15
   3 -15 -10 414.231 76.0717  15
  -3 -15 -11 1685.15 136.279  15
  -3  16   0 43.9366 70.4863   6
   3  16   0 68.8485 80.5947   6
   3 -16   0-37.0864 59.8210  19
   3 -16  -1 1246.90 144.892  19
   3  16  -1 1295.37 166.243   6
   3  16   1 1228.57 155.347   6
  -3  16  -1 1419.74 163.334   6
   3 -16   1 1350.22 149.222  19
   3 -16  -2 1794.45 169.147  19
   3  16   2 2088.93 195.155   6
   3  16  -2 1800.25 184.670   6
  -3  16  -2 1835.32 178.941   6
   3  16   3 703.035 116.575   6
   3  16  -3 607.633 114.835   6
  -3  16  -3 812.046 127.414   6
  -3  16  -3 373.997 71.6130  24
   3 -16  -3 628.508 104.460  19
  -3  16  -4-44.5602 55.1890  24
   3  16  -4 232.728 85.5668   6
   3 -16  -4 60.0040 57.4447  19
  -3  16  -4 239.166 88.3667   6
   3 -16  -5 621.750 105.410  19
  -3  16  -5 424.805 80.7676  24
  -3 -16  -5 640.521 103.653  15
   3  16  -5 585.746 109.120   6
  -3  16  -5 560.651 111.677   6
  -3 -16  -6 38.9785 55.1286  15
   3 -16  -6 31.3409 61.4636  19
  -3  16  -6 49.3701 62.8092   6
   3  16  -6 39.7965 66.9383   6
  -3 -16  -7 26.9700 58.4424  15
  -3  16  -7 18.4626 54.1535   6
   3  16  -7 53.9320 65.0585   6
   3 -16  -7 47.1815 53.7198  19
  -3  16  -8 110.892 59.2942   6
  -3 -16  -8 8.98072 44.2529  15
   3 -16  -8 57.9474 53.8864  19
  -3  16  -9 115.621 56.3871   6
   3 -16  -9 92.8936 48.8281  15
  -3 -16  -9 133.605 47.8581  15
  -3  17   0-59.1507 63.8368   6
   3  17   0 16.2311 60.4565   6
   3 -17   0 54.4131 53.2147  19
   3  17   1 975.637 126.410   6
   3 -17  -1 629.691 103.045  19
   3  17  -1 907.244 124.303   6
  -3  17  -1 783.092 112.849   6
   3  17  -2 652.973 110.505   6
   3 -17  -2 377.336 79.2444  19
  -3  17  -3 22.1643 59.4031   6
   3 -17  -3 3.25222 50.0812  19
   3  17  -3 87.0211 66.5416   6
   3  17  -4 1813.20 163.841   6
   3 -17  -4 1831.28 149.720  19
  -3  17  -4 1748.93 158.046   6
   3 -17  -5 2596.33 172.141  19
  -3 -17  -5 2368.20 157.599  15
   3  17  -5 2358.24 175.033   6
  -3  17  -5 2834.06 188.910   6
  -3 -17  -6 483.730 76.2127  15
   3 -17  -6 415.146 72.4564  19
  -3  17  -6 475.886 88.5887   6
   3  17  -6 364.069 79.0733   6
   4   0   0 71024.0 505.722   2
   4   0   0 68562.1 920.256  25
   4   0  -1 37.8582 15.2410   3
  -4   0   1 28.0683 40.2140  25
   4   0   1 34.6402 41.2078  25
   4   0  -2 20300.5 299.546   3
  -4   0   2 21754.2 307.551   2
  -4   0   2 20970.8 556.142  25
   4   0   3-1.84637 29.7693   1
  -4   0   3 145.559 50.8082  25
   4   0   4 51651.4 505.330   1
   4   0   4 47239.9 860.013   3
   4   0   5 46.1037 32.7317   1
   4   0   6 5245.33 173.543   1
  -4   0  -7 35.9465 33.4735  23
  -4   0  -7 157.191 35.6536  22
  -4   0  -8 213682. 1258.73  23
  -4   0  -9 10.1854 36.5372  23
  -4   0 -10 59040.6 736.281  23
  -4   0 -11 11.2841 45.5454  23
  -4   0 -12 5739.29 260.570  23
  -4   0 -13 8.13082 51.7182  23
   4   0 -14 7683.04 317.502  12
  -4   0 -14 7199.95 335.624  14
  -4   0 -14 7471.51 340.100  13
  -4   0 -15-122.266 90.2070  14
  -4   0 -15 13.4209 65.5054  13
   4   0 -15-52.5512 61.7783  12
   4   0 -16 2339.28 183.924  12
  -4   0 -16 2252.98 194.154  13
  -4   0 -17-29.2754 68.6551  13
   4   0 -17-80.2546 67.8737  12
   4   0 -18 1496.35 147.011  12
  -4   0 -18 1412.62 148.490  13
  -4   0 -19 81.5486 56.0722  12
  -4   0 -19 3.64823 48.5583  13
  -4   0 -20 96.2487 52.9639  12
   4   1   0 36935.9 720.459  25
   4   1   0 36974.4 508.621   2
   4  -1   1 73299.9 894.746  25
   4  -1   1 76671.8 603.971   3
  -4   1   1 73975.5 940.914  25
   4   1  -1 76921.2 712.923   3
   4   1  -1 75045.1 1036.48  25
  -4  -1   2 68073.4 717.762   2
   4   1  -2 68639.6 721.498   3
  -4   1   2 67661.8 959.046  25
   4  -1   2 68262.4 747.190   3
   4  -1   2 65432.3 541.736   1
  -4  -1   2 66493.7 1032.37  25
   4   1   2 67388.0 550.070   1
   4   1   3 22058.3 324.665   1
   4   1  -3 22180.2 463.499   3
   4  -1   3 22493.9 510.247   3
   4  -1   3 22623.7 330.602   1
   4  -1   4 51026.8 877.944   3
   4   1   4 51559.3 510.673   1
   4  -1   4 52135.3 512.604   1
   4   1  -4 51025.1 785.189   3
   4  -1   5 1750.29 101.056   1
   4   1   5 2712.53 124.136   1
   4   1   6 23021.6 365.480   1
  -4   1  -6 23263.2 360.498  23
   4  -1   6 23226.8 367.761   1
  -4   1  -7 47496.8 545.412  23
  -4  -1  -7 46261.6 513.957  22
  -4  -1  -7 45703.3 540.748  23
  -4  -1  -8 2789.62 136.281  22
  -4  -1  -8 2780.44 145.292  23
  -4   1  -8 2877.68 146.841  23
  -4   1  -9 6848.26 237.161  23
  -4  -1  -9 6660.22 235.420  23
  -4  -1  -9 6640.64 223.318  22
  -4  -1 -10 9732.00 300.895  23
  -4  -1 -10 9111.87 278.049  22
  -4   1 -10 9554.34 297.991  23
  -4  -1 -11 630.015 88.2015  23
  -4   1 -11 616.620 85.9878  23
  -4   1 -12 17936.9 458.568  23
  -4  -1 -12 18422.0 463.777  23
  -4  -1 -13 8304.91 329.558  23
  -4   1 -13 8266.21 328.733  23
  -4   1 -14 72.5572 70.2930  13
  -4  -1 -14 96.3837 74.8397  14
  -4  -1 -14 43.6938 62.1677  13
   4   1 -14-129.504 77.1465  12
   4  -1 -14 79.4995 48.0699  12
  -4  -1 -15 1754.92 179.875  14
  -4  -1 -15 1455.28 160.812  13
  -4   1 -15 1543.48 166.581  13
   4  -1 -15 1487.76 149.090  12
   4   1 -15 1571.60 154.194  12
  -4  -1 -16 3540.37 245.414  14
  -4   1 -16 3610.26 247.628  13
  -4  -1 -16 3712.04 248.636  13
   4  -1 -16 3641.71 225.002  12
   4   1 -16 3546.68 230.564  12
   4   1 -17 4992.95 265.267  12
   4  -1 -17 4989.65 258.835  12
  -4   1 -17 4684.20 272.432  13
  -4  -1 -17 4707.95 270.161  13
  -4  -1 -18 1124.15 137.072  13
  -4   1 -18 1042.82 130.778  13
   4  -1 -18 1015.66 118.974  12
   4   1 -18 999.270 124.020  12
  -4  -1 -19 410.939 79.9109  13
  -4   1 -19 396.341 78.4785  12
  -4  -1 -19 410.795 78.6885  12
  -4   1 -20 645.002 88.6772  12
  -4  -1 -20 575.916 82.9590  12
   4   2   0 35309.2 611.356   2
   4   2   0 35419.8 753.439  25
   4  -2   1 42702.0 440.304   1
   4  -2   1 42027.2 624.011  25
   4   2   1 42057.9 445.793   1
   4   2   1 43943.4 711.304   2
  -4   2   1 42055.5 672.344  25
   4  -2   2 28921.4 498.893   3
   4  -2   2 29878.5 379.094   1
  -4  -2   2 28670.7 561.830   2
   4   2   2 30640.9 385.812   1
   4   2  -2 30155.0 574.958   3
  -4   2   2 29538.1 608.550  25
   4  -2   3 90839.6 1044.64   3
   4   2  -3 89887.4 1058.22   3
   4   2   3 87524.3 674.276   1
   4  -2   3 88400.0 679.367   1
   4  -2   4 1979.60 181.231   3
   4   2  -4 2083.68 179.595   3
   4  -2   4 2224.90 115.315   1
   4  -2   5 39475.9 484.017   1
   4   2   5 39847.4 481.323   1
  -4   2  -6 3036.34 132.154  23
   4  -2   6 2914.22 138.287   1
  -4  -2  -7 123513. 889.943  23
  -4   2  -7 123164. 891.608  23
  -4  -2  -8 15883.8 334.132  22
  -4  -2  -8 16651.6 355.207  23
  -4   2  -8 16380.2 344.667  23
  -4   2  -9 40150.2 572.751  23
  -4  -2  -9 40577.4 582.734  23
  -4  -2  -9 40546.2 564.200  22
  -4  -2 -10 1269.84 114.336  23
  -4  -2 -10 1166.80 106.147  22
  -4   2 -11 77.4111 54.2410  23
  -4  -2 -11 109.857 49.9038  22
  -4  -2 -11 59.4391 52.7131  23
  -4  -2 -12 4320.45 228.634  23
  -4   2 -12 4123.68 222.703  23
  -4  -2 -12 4115.63 212.853  22
  -4  -2 -13 15.2645 45.7200  23
  -4   2 -13 110.861 54.5605  23
   4  -2 -14 2671.37 186.920  12
  -4  -2 -14 2688.15 211.922  14
  -4   2 -14 2763.65 213.579  13
  -4  -2 -14 2928.68 214.958  13
  -4  -2 -14 2686.90 213.536  20
   4   2 -14 2671.82 193.534  12
  -4  -2 -15 5135.42 285.392  13
  -4   2 -15 4825.80 282.820  13
   4   2 -15 4797.86 266.318  12
  -4  -2 -15 5095.56 293.226  14
   4  -2 -15 5014.47 255.607  12
  -4  -2 -16 440.693 106.454  14
  -4  -2 -16 424.389 97.5282  13
   4  -2 -16 455.912 85.6177  12
   4   2 -16 383.197 89.7616  12
  -4   2 -16 305.518 87.3354  13
   4   2 -17 5895.98 289.750  12
  -4  -2 -17 5992.91 311.536  14
  -4   2 -17 5620.79 296.728  13
  -4  -2 -17 5844.79 294.797  13
   4  -2 -17 5897.40 270.721  12
  -4  -2 -18 161.774 64.7627  13
   4  -2 -18 226.465 70.3839  12
   4   2  18 340.945 101.763   9
  -4   2 -18 224.278 68.1352  12
   4   2 -18 248.799 75.7173  12
  -4   2 -19 89.4272 59.3304  12
  -4  -2 -19 83.0546 52.9012  12
  -4   2 -20 130.368 54.0161  12
  -4  -2 -20 58.1961 44.1737  12
   4   3   0 158493. 1486.07   2
   4  -3   0 153083. 865.871   1
   4  -3  -1 75967.9 590.667   1
  -4   3   1 77205.1 843.211  25
   4   3  -2 411.572 83.6890   3
   4   3   2 77.6470 51.5593   2
  -4  -3   2 575.723 96.9650   2
  -4   3   2 69.9849 43.3332  25
   4  -3   2 21.7453 29.5715   1
   4   3  -3 155241. 1572.26   3
   4  -3   3 155277. 952.021   1
   4  -3   3 157406. 1462.75   3
   4  -3   4 77.4009 37.4387   1
   4  -3   5 2072.08 120.286   1
  -4  -3  -6 4176.05 157.827  23
   4  -3   6 3913.81 167.145   1
  -4   3  -6 4219.98 153.149  23
  -4  -3  -7 32123.0 462.176  23
   4  -3   7 31197.6 481.615   1
  -4   3  -7 32214.2 451.279  23
  -4   3  -8 3426.87 159.142  23
  -4  -3  -8 3453.14 163.553  23
  -4  -3  -8 3474.32 162.758  22
  -4  -3  -9 30968.1 515.626  23
  -4   3  -9 30853.7 503.767  23
  -4  -3  -9 30155.2 503.983  22
  -4  -3 -10 22964.5 467.625  23
  -4   3 -10 23049.9 463.885  23
  -4  -3 -10 22736.0 465.329  22
  -4  -3 -11 1639.77 135.660  23
  -4  -3 -11 1650.06 136.998  22
  -4   3 -11 1578.64 131.897  23
  -4   3 -12 312.096 71.2675  23
  -4  -3 -12 223.278 61.1146  22
  -4  -3 -12 388.806 73.8827  23
  -4   3 -13 8118.41 322.688  23
  -4  -3 -13 8552.30 326.338  22
  -4  -3 -13 8513.76 334.445  23
  -4  -3 -14 118.557 65.6935  14
  -4  -3 -14-68.8465 79.4411  20
   4   3 -14 17.4991 65.1128  12
  -4   3 -14-2.13566 73.8155  13
   4   3 -15 2256.49 189.048  12
  -4  -3 -15 1929.36 185.583  14
  -4   3 -15 2000.44 187.760  13
  -4  -3 -15 2185.66 192.811  13
  -4  -3 -15 2050.78 191.560  20
  -4  -3 -16 148.193 76.2749  14
  -4   3 -16 294.833 83.8908  13
  -4  -3 -16 355.795 94.1541  13
   4   3 -16 258.218 80.4625  12
  -4  -3 -17 3102.78 226.497  14
   4   3 -17 2959.93 208.169  12
  -4  -3 -17 2772.73 206.577  13
  -4   3 -18 135.490 67.6313  12
  -4  -3 -18 141.746 67.6727  13
  -4   3 -19 2311.79 162.639  12
  -4  -3 -19 2332.67 156.873  12
   4   3  19 2238.36 183.189   9
  -4   3 -20 157.710 49.8568  12
  -4  -4   0 191606. 893.028   4
  -4  -4   1 81002.5 578.790   4
  -4  -4  -1 80045.7 599.606   4
  -4  -4   2 82770.4 593.028   4
  -4  -4   3 98818.2 670.731   4
   4  -4   4 28092.7 445.404   1
  -4  -4   4 27508.3 369.280   4
   4  -4   5 8786.31 254.286   1
  -4  -4  -6 13653.0 284.520  23
   4  -4   6 13463.4 325.826   1
   4  -4   7 42160.5 587.792   1
  -4  -4  -7 43523.5 549.246  23
  -4  -4  -8 19410.1 387.012  23
  -4  -4  -8 18690.9 394.375  22
  -4  -4  -9 22570.2 452.591  22
  -4  -4  -9 22399.1 437.247  23
  -4  -4 -10 3340.80 187.479  22
  -4  -4 -10 3593.79 188.969  23
  -4  -4 -11 3838.58 205.971  23
  -4  -4 -11 3350.65 197.689  22
  -4  -4 -12 130.477 57.4796  23
  -4  -4 -12 182.305 58.5792  22
  -4  -4 -13 1225.23 141.313  14
  -4   4 -13 1109.86 136.538  13
  -4  -4 -13 1204.60 129.122  23
   4   4 -13 1068.87 124.425  12
  -4  -4 -13 1278.25 134.330  22
  -4  -4 -13 1125.14 137.886  20
  -4   4 -14 476.068 108.194  13
  -4  -4 -14 252.439 87.9316  14
   4   4 -14 283.003 81.1721  12
  -4  -4 -14 261.042 87.7489  20
  -4  -4 -15 5905.28 305.141  13
  -4  -4 -15 5984.37 316.146  20
  -4  -4 -15 5966.16 317.741  14
  -4   4 -15 6070.66 315.181  13
   4   4 -15 5941.46 297.220  12
  -4  -4 -16 1969.96 182.254  14
  -4  -4 -16 1862.56 174.594  13
   4   4 -16 1980.94 177.482  12
  -4  -4 -17 5137.64 287.101  14
  -4   4 -17 5114.85 259.151  12
  -4  -4 -17 5203.45 272.671  13
   4   4 -17 5033.16 265.859  12
  -4  -4 -18 4067.80 240.450  14
  -4  -4 -18 4071.50 226.687  13
  -4   4 -18 4224.93 224.638  12
   4   4  19 276.394 84.6787   9
  -4   4 -19 247.033 68.0215  12
  -4   4 -20 29.0565 42.1737  11
  -4  -5   0 2434.60 114.234   4
  -4  -5  -1 262.277 44.4631   4
  -4  -5   1 210.883 41.1586   4
  -4  -5   2 52540.0 529.417   4
  -4  -5   3 19953.8 332.190   4
  -4  -5   4 7860.20 216.902   4
  -4  -5   5 5757.59 192.876   4
   4  -5   6 75975.3 808.981   1
  -4  -5  -6 77543.9 692.294  23
   4  -5   7 3624.67 185.854   1
  -4  -5  -7 3904.96 167.897  23
  -4  -5  -8 1050.64 94.9707  23
  -4  -5  -8 889.693 96.2229  22
  -4  -5  -9 153.358 48.0632  23
  -4  -5  -9 158.480 53.8645  22
  -4  -5 -10 42134.4 646.205  23
  -4  -5 -10 41689.4 674.798  22
  -4  -5 -11 106.913 53.7179  22
  -4  -5 -11 35.0051 52.6774  23
  -4  -5 -12 13090.2 396.130  23
  -4  -5 -12 13385.0 416.019  22
   4   5 -13 2073.82 173.066  12
  -4  -5 -13 2087.13 186.223  14
  -4   5 -13 2080.14 187.412  13
  -4  -5 -13 2123.79 190.426  15
   4   5 -13 1773.89 162.478  11
  -4  -5 -13 2086.35 185.664  20
  -4  -5 -14 1043.10 147.762  20
  -4  -5 -14 1212.74 151.217  14
   4   5 -14 1174.82 142.606  12
   4   5 -14 1084.96 130.686  11
  -4  -5 -15 683.153 121.713  14
   4   5 -15 562.762 105.132  12
  -4  -5 -15 401.988 93.1123  20
  -4  -5 -16 2274.96 186.579  13
   4   5 -16 2575.63 194.160  12
  -4  -5 -16 2772.55 215.009  14
  -4   5 -16 2839.22 194.827  12
  -4  -5 -16 2519.15 205.918  20
  -4  -5 -17 138.896 68.9557  14
  -4  -5 -17 189.820 69.1707  13
  -4   5 -17 170.779 65.3067  12
  -4  -5 -18 937.605 120.595  14
  -4   5 -18 957.825 108.714  12
   4   5  19 228.704 84.7945   9
  -4   5 -19 128.826 49.2966  12
  -4   5 -19 256.172 72.5791  11
  -4  -6   0 196721. 1103.12   4
  -4  -6  -1 1707.19 107.759   4
  -4  -6   1 1881.73 111.652   4
  -4  -6   2 71602.0 684.348   4
   4  -6   2 70631.9 625.645   4
  -4  -6   3 14651.6 313.498   4
  -4  -6   4 5400.72 196.429   4
  -4  -6   5 2095.30 127.675   4
   4  -6   6 35514.3 586.749   1
  -4  -6   6 35662.4 537.445   4
   4  -6   7 1573.91 129.385   1
  -4  -6  -8 32522.3 564.246  22
  -4  -6  -9 3189.54 187.133  22
  -4  -6 -10 23160.5 518.652  22
  -4  -6 -11 619.244 97.9511  22
  -4  -6 -12 113.299 68.8563  20
  -4  -6 -12 69.7653 69.5501  15
  -4  -6 -12 80.7509 70.7139  14
  -4  -6 -13-31.4685 69.4577  15
   4   6 -13-47.6737 68.6113  11
  -4  -6 -13 203.165 88.2142  14
  -4  -6 -13 82.7370 73.2513  20
   4   6 -13 66.9050 62.3051  12
  -4  -6 -14 1996.90 185.129  15
  -4  -6 -14 2148.88 187.889  14
  -4  -6 -14 2137.51 191.644  20
   4   6 -14 2123.77 179.680  12
   4   6 -14 2153.24 183.179  11
   4   6 -15 1490.06 155.511  11
  -4  -6 -15 1574.81 170.170  14
  -4  -6 -15 1548.46 164.243  20
   4   6 -16 4350.07 243.956  11
  -4  -6 -16 4467.00 266.594  14
  -4  -6 -16 4365.24 260.787  20
  -4  -6 -16 3889.18 238.782  13
  -4  -6 -17 1223.63 142.125  14
  -4  -6 -17 1187.71 129.973  13
  -4  -6 -18 2582.24 185.699  14
  -4   6 -18 2530.08 176.574  11
   4   6  19 304.819 81.0754   9
  -4   6 -19 99.9716 45.2764  11
  -4  -7   0 88.9373 45.8680   4
  -4  -7  -1 44090.8 579.778   4
  -4  -7   1 44880.1 579.638   4
  -4  -7  -2 309.835 61.1190   4
  -4  -7   2 319.456 59.3120   4
   4  -7   3 61167.7 655.198   4
  -4  -7   3 58040.0 679.987   4
   4  -7   4 2533.80 143.345   4
  -4  -7   4 2606.79 148.829   4
  -4  -7   5 2254.54 144.460   4
  -4  -7   6 168.267 50.8661   4
   4  -7   7 16913.2 441.386   1
  -4  -7   7 15655.8 396.785   4
  -4  -7  -8 2169.56 153.585  22
  -4  -7  -9 31519.2 595.137  22
  -4  -7 -10 376.120 82.5609  22
  -4  -7 -11 2131.06 173.048  22
  -4  -7 -12 29.4228 70.3592  15
   4   7 -12-73.5832 67.1730  11
  -4  -7 -12 111.781 73.6511  20
   4   7 -13 8875.03 361.215  11
  -4  -7 -13 8705.82 373.111  14
  -4  -7 -13 8759.18 380.287  20
  -4  -7 -13 8542.20 373.534  15
  -4  -7 -14-31.8555 71.2120  20
  -4  -7 -14-15.0250 65.0963  15
  -4  -7 -14 42.7329 66.9574  14
   4   7 -14-38.2517 74.8029  11
  -4  -7 -15 67.8005 62.4345  14
  -4  -7 -15 17.8833 67.4591  20
   4   7 -15-8.79634 64.2540  11
  -4  -7 -16-47.1103 64.3015  14
   4   7 -16 37.8132 55.2250  11
  -4   7 -16 102.660 64.1072  11
  -4  -7 -16-64.7097 60.5295  20
  -4   7 -17 1162.39 129.282  11
  -4  -7 -17 1234.61 134.642  14
   4   7 -17 1126.56 122.389  11
  -4   7 -18 99.9365 43.8721  11
  -4  -7 -18 115.549 64.9244  14
  -4  -8   0 10549.7 307.402   4
  -4  -8  -1 14560.4 359.959   4
  -4  -8   1 14535.0 359.710   4
  -4  -8  -2 245.917 57.8723   4
  -4  -8   2 139.897 48.8399   4
  -4  -8   3 33870.4 561.902   4
   4  -8   3 33399.7 524.728   4
  -4  -8   4 1874.22 139.627   4
   4  -8   4 1684.14 125.754   4
  -4  -8   5 9643.92 313.436   4
   4  -8   5 10215.2 316.178   4
  -4  -8   6 7230.52 279.561   4
   4  -8   6 7264.68 278.117   4
   4  -8   7 50061.3 800.420   1
  -4  -8  -7 50599.2 727.640  22
   4  -8   8 1042.03 128.741   1
  -4  -8  -8 1310.19 130.655  22
  -4  -8  -9 22442.6 520.806  22
  -4  -8 -10 1075.80 125.023  22
  -4  -8 -11 526.532 107.674  15
   4   8 -11 639.819 109.023  11
   4  -8  11 614.821 121.476  10
   4   8 -12 995.567 132.325  11
  -4  -8 -12 1037.17 143.425  15
  -4   8 -13 485.278 95.9382  11
  -4  -8 -13 544.921 112.944  15
  -4  -8 -13 596.207 118.615  20
  -4  -8 -13 711.760 120.595  14
   4   8 -13 627.844 113.675  11
  -4   8 -14 505.787 99.4747  11
  -4  -8 -14 582.914 108.974  14
  -4  -8 -14 489.707 101.363  15
  -4  -8 -14 558.783 111.225  20
   4   8 -14 409.403 96.9259  11
  -4  -8 -15 3030.95 216.976  14
  -4   8 -15 2769.71 199.727  11
   4   8 -15 2785.80 200.736  11
  -4  -8 -15 2880.31 215.561  20
  -4  -8 -16 521.521 97.3262  14
  -4   8 -16 394.381 85.0263  11
   4   8 -16 369.817 81.2099  11
  -4  -8 -16 550.647 102.105  20
  -4  -8 -17 2103.89 165.295  14
  -4   8 -17 1996.00 151.943  11
  -4  -8 -17 2067.09 162.762  20
  -4   8 -18 18.1190 44.4849  11
  -4  -8 -18 21.9580 43.2826  14
  -4  -9   0 66319.2 820.107   4
  -4  -9  -1 2360.47 160.961   4
  -4  -9   1 2394.75 160.559   4
  -4  -9   2 2140.84 153.222   4
  -4  -9   3 2734.12 176.042   4
  -4  -9   4 11810.4 364.678   4
   4  -9   4 11496.5 343.616   4
   4  -9   5 418.836 74.7403   4
  -4  -9   5 460.649 82.2748   4
  -4  -9   6 16772.2 449.265   4
   4  -9   6 16478.3 443.343   4
  -4  -9  -7 249.654 61.9950  22
  -4  -9   7 430.391 93.2492   4
   4  -9   7 371.190 84.3229   4
  -4  -9   8 1000.13 122.507   4
   4  -9   8 988.223 128.042   1
   4  -9   8 833.263 114.794   4
  -4  -9  -8 1005.83 115.641  22
  -4   9  -9 6.46432 58.1977  24
  -4  -9  -9-7.20435 71.4687  15
  -4  -9  -9 105.568 56.5419  22
   4   9  -9-26.7865 55.2125  11
   4  -9   9 214.435 75.7810   4
   4  -9   9 155.758 75.2124  10
   4   9 -10 8688.00 359.366  11
   4  -9  10 8170.25 396.369  10
  -4  -9 -10 8053.05 356.013  15
  -4   9 -10 7450.15 307.561  24
  -4  -9 -11 1302.42 150.724  15
   4  -9  11 1161.10 164.723  10
   4   9 -11 1061.85 135.434  11
  -4  -9 -12 3679.53 249.891  15
   4  -9  12 3937.42 281.526  10
   4   9 -12 3919.50 251.054  11
  -4  -9 -13 260.538 82.0640  15
  -4  -9 -13 350.082 89.9351  14
   4   9 -13 380.311 91.6832  11
  -4  -9 -13 448.518 98.5977  20
  -4  -9 -14 164.949 75.9390  14
  -4  -9 -14 81.2072 77.8692  15
   4   9 -14 6.03842 61.7317  11
  -4  -9 -14 57.4859 62.0769  20
  -4   9 -14 84.8352 63.1813  11
  -4  -9 -15 862.309 120.439  14
  -4   9 -15 902.560 113.492  11
  -4  -9 -15 1059.48 136.141  20
  -4  -9 -16 4621.08 245.752  14
  -4   9 -16 3961.13 212.368  11
  -4  -9 -16 4595.52 242.835  20
  -4  -9 -17-82.6583 49.3954  14
  -4  -9 -17 39.4507 54.0257  20
  -4   9 -17-6.11849 41.1286  11
  -4 -10   0 9138.09 330.195   4
  -4 -10  -1 4563.01 237.846   4
  -4 -10   1 4748.65 238.831   4
  -4 -10   2 4687.22 241.313   4
  -4 -10   3 1441.77 139.605   4
  -4 -10   4 196.857 75.3020   4
   4 -10   5 125.443 53.3993   4
  -4 -10   5 40.0223 53.6297   4
  -4 -10   6 3581.64 225.594   4
  -4 -10  -6 3506.63 200.490  22
   4 -10   6 3659.68 222.569   4
  -4 -10   7 3008.76 210.110   4
   4 -10   7 3424.25 222.236   4
  -4 -10  -7 3456.35 206.106  22
   4 -10   8 9858.76 436.065  10
   4 -10  -8 9328.45 390.247  16
   4 -10   8 8894.03 379.421   1
  -4  10  -8 8527.95 318.265  24
  -4 -10  -8 9513.34 378.484  15
   4 -10  -8 9602.36 372.856  19
  -4  10  -9 2619.39 186.036  24
   4 -10  -9 2465.55 210.873  16
   4 -10  -9 2617.11 201.399  19
  -4 -10  -9 2758.76 213.407  15
   4 -10   9 2713.07 238.363  10
  -4 -10 -10 10984.4 419.618  15
   4 -10  10 11224.1 472.780  10
  -4  10 -10 10467.2 373.333  24
  -4 -10 -11 172.552 78.4317  15
   4 -10  11 261.039 107.719  10
   4 -10  12 979.613 152.649  10
  -4 -10 -12 997.013 134.561  15
  -4 -10 -13 1413.07 154.522  15
  -4 -10 -13 1576.91 164.268  14
  -4 -10 -13 1535.08 163.310  20
  -4 -10 -14 1594.91 162.444  15
  -4 -10 -14 1433.27 154.414  14
  -4 -10 -14 1495.15 155.521  20
  -4 -10 -15 470.201 92.7734  14
  -4 -10 -15 531.860 96.1896  20
  -4 -10 -16 428.248 83.6495  14
  -4 -10 -16 433.528 80.7950  20
  -4 -10 -17 172.987 57.2186  14
  -4 -11   0 6268.47 292.651   4
  -4 -11  -1 9904.08 368.770   4
  -4 -11   1 9810.15 364.029   4
  -4 -11   2 236.950 73.3235   4
  -4 -11   3 25249.9 587.706   4
  -4 -11   4 6503.03 304.372   4
  -4 -11   5 2103.43 178.295   4
   4 -11  -6 2607.17 204.355  19
   4 -11  -6 2760.41 222.494  16
  -4  11  -6 2551.47 176.377  24
   4 -11   6 2824.99 237.153  10
  -4  11  -7 7058.53 290.016  24
   4 -11  -7 8193.67 370.712  16
   4 -11   7 8125.54 400.201  10
   4 -11  -7 7662.13 343.807  19
   4 -11   8 291.111 102.022  10
  -4 -11  -8 222.933 82.7942  15
   4 -11  -8 148.279 89.5801  16
   4 -11  -8 228.157 75.7565  19
  -4  11  -8 281.485 68.1751  24
  -4  11  -9 549.207 100.691  24
  -4 -11  -9 488.131 108.310  15
   4 -11  -9 605.606 111.509  19
   4 -11   9 724.621 135.510  10
  -4 -11 -10 1205.71 150.929  15
   4 -11 -10 954.301 131.217  19
   4 -11  10 1280.73 172.511  10
  -4 -11 -11 188.048 78.3148  15
   4 -11  11 79.1671 82.8695  10
  -4 -11 -12 893.145 131.786  15
  -4 -11 -13 2691.47 199.372  14
  -4 -11 -13 2762.39 206.982  20
  -4 -11 -13 2382.17 190.828  15
  -4 -11 -14 49.5700 59.5213  15
  -4 -11 -14 126.929 63.7829  14
  -4 -11 -14 3.44679 52.8353  20
  -4 -11 -15 41.2631 46.8310  14
  -4 -11 -15 43.9156 52.0187  20
  -4 -11 -16 275.749 63.4688  14
  -4 -11 -16 367.088 67.8946  20
  -4 -12   0 9689.24 382.305   4
   4  12   0 10169.2 420.665   6
   4  12  -1 2915.71 232.337   6
   4 -12  -1 2751.52 215.802  16
   4  12   1 2576.80 218.313   6
   4 -12  -2 5260.67 301.068  16
   4  12   2 5270.11 306.314   6
   4  12  -2 5195.99 305.725   6
   4 -12  -3 1711.33 181.155  16
   4 -12  -3 2015.21 192.566  19
   4  12   3 1887.44 189.325   6
   4  12  -3 1796.55 188.178   6
   4 -12  -4 358.329 106.343  16
   4 -12  -4 263.120 92.4273  19
   4  12   4 474.447 111.330   6
   4  12  -4 249.937 91.2368   6
   4 -12  -5 1779.51 190.209  16
   4 -12  -5 1835.31 187.531  19
   4  12  -5 1726.93 183.889   6
   4 -12  -6 2935.56 226.818  19
  -4  12  -6 3040.23 194.476  24
   4 -12  -6 3337.67 250.645  16
   4  12  -6 2873.21 229.367   6
   4 -12  -7 3040.59 240.655  16
  -4 -12  -7 3538.09 241.085  15
  -4  12  -7 3176.16 203.966  24
   4 -12  -7 3287.08 236.609  19
  -4  12  -8 4943.39 254.051  24
   4 -12  -8 5585.97 315.130  16
  -4 -12  -8 5060.51 288.872  15
   4 -12  -8 5409.27 293.301  19
  -4 -12  -9 227.612 84.0766  15
   4 -12  -9 261.858 80.2220  19
  -4  12  -9 157.868 67.8278  24
  -4 -12 -10 1493.54 162.782  15
   4 -12 -10 1273.86 141.145  19
  -4 -12 -11 156.581 72.7600  15
  -4 -12 -12 868.363 120.355  15
  -4 -12 -13-8.75111 56.7059  15
  -4 -12 -13 78.6498 55.5254  14
  -4 -12 -13 102.417 68.8829  20
  -4 -12 -14 1331.69 129.626  14
  -4 -12 -14 1542.77 141.198  15
  -4 -12 -14 1388.03 131.885  20
  -4 -12 -15 245.630 59.5362  14
  -4 -12 -15 60.7444 44.9771  20
   4  13   0 5691.12 329.785   6
   4  13   1 197.431 96.6238   6
   4  13  -1 120.815 84.4031   6
   4 -13  -1 88.5591 66.2108  16
   4 -13  -2 202.124 79.6620  19
   4 -13  -2 257.142 94.9070  16
   4  13   2 288.133 94.7708   6
   4  13  -2 175.773 92.8193   6
   4 -13  -3 5683.69 319.528  16
   4 -13  -3 5641.71 316.881  19
   4  13   3 5717.39 326.436   6
   4  13  -3 5343.81 322.802   6
   4 -13  -4 986.971 140.907  16
   4 -13  -4 838.257 131.166  19
   4  13   4 828.392 131.518   6
   4  13  -4 1033.91 151.568   6
   4 -13  -5 596.175 116.087  16
   4  13  -5 437.214 106.559   6
   4 -13  -5 342.969 96.3011  19
  -4  13  -5 753.238 108.867  24
   4 -13  -6 2355.64 212.235  16
  -4  13  -6 2261.80 170.668  24
   4  13  -6 2819.54 228.497   6
   4 -13  -6 2431.21 206.876  19
   4 -13  -7 638.470 126.148  16
  -4 -13  -7 729.787 120.534  15
   4 -13  -7 762.548 128.997  19
  -4  13  -7 489.862 92.1718  24
  -4 -13  -8 68.9446 73.4459  15
   4 -13  -8-53.9790 81.7010  19
  -4  13  -8-45.6123 69.5150  24
  -4 -13  -9 1241.17 146.522  15
   4 -13  -9 1039.13 132.173  19
   4 -13 -10 4249.74 245.030  19
  -4 -13 -10 4450.18 257.798  15
  -4 -13 -11-34.3112 62.4642  15
  -4 -13 -12 53.8063 57.7702  15
  -4 -13 -12 102.382 59.3147  20
  -4 -13 -13 900.132 107.166  14
  -4 -13 -13 977.762 113.166  15
  -4 -13 -13 999.968 113.587  20
  -4 -13 -14 316.280 67.7652  14
  -4 -13 -14 257.197 64.3761  15
   4 -14   0 4965.54 296.360  19
   4  14   0 4857.16 308.388   6
   4  14  -1 6051.77 344.951   6
   4  14   1 6737.06 361.996   6
   4 -14  -1 6192.02 329.274  19
   4  14   2 328.400 112.927   6
   4 -14  -2 242.920 88.2212  16
   4  14  -2 239.695 97.5280   6
   4 -14  -2 265.531 98.5259  19
   4 -14  -3 1267.86 161.942  16
   4  14  -3 1010.98 155.681   6
   4  14   3 1415.69 172.463   6
   4 -14  -3 1211.49 157.465  19
  -4  14  -4 1173.79 130.000  24
   4 -14  -4 1046.24 151.313  16
   4 -14  -4 1093.86 144.779  19
   4  14   4 1042.14 149.489   6
   4  14  -4 1037.56 150.579   6
  -4  14  -5 980.283 116.033  24
   4 -14  -5 936.140 136.421  16
   4 -14  -5 1177.36 150.869  19
   4  14  -5 919.933 141.413   6
  -4  14  -6 118.284 59.5574  24
  -4 -14  -6 6.63701 69.2018  15
   4  14  -6 127.746 78.7129   6
   4 -14  -6 183.142 79.9381  19
   4 -14  -7 2776.48 211.323  19
  -4 -14  -7 2653.11 202.067  15
  -4  14  -7 2672.17 184.647  24
  -4 -14  -8 160.235 78.1657  15
   4 -14  -8 131.373 76.2833  19
  -4  14  -8 32.3275 68.4993  24
  -4 -14  -9 1984.09 170.848  15
   4 -14  -9 1890.89 162.988  19
  -4 -14 -10 482.116 91.0408  15
  -4 -14 -11 462.256 84.5193  15
  -4 -14 -12 34.0684 49.9527  15
  -4 -14 -12 54.2979 46.2242  14
  -4 -14 -12 52.7154 50.7084  20
   4 -15   0 3830.82 256.703  19
   4  15   0 3974.31 276.698   6
   4 -15  -1 1.17372 70.9361  19
   4  15  -1 216.195 104.013   6
   4  15   1 56.1022 86.0379   6
   4 -15   1 84.6625 84.8497  19
   4  15   2 59.4052 77.7611   6
   4 -15  -2 18.4960 67.8751  19
   4  15  -2-58.9589 88.5708   6
   4 -15   2 30.8552 67.3151  19
  -4  15  -3 1390.44 129.892  24
   4  15   3 1293.84 160.714   6
   4 -15  -3 1327.91 156.156  16
   4  15  -3 1238.98 165.126   6
   4 -15  -3 1388.98 157.968  19
   4 -15   3 1247.16 151.169  19
   4  15  -4 1023.68 146.795   6
   4 -15  -4 861.963 127.603  19
  -4  15  -4 798.715 105.339  24
  -4  15  -5-31.9033 55.5822  24
   4  15  -5 36.7974 75.7630   6
   4 -15  -5 120.441 71.9275  19
   4  15  -6 3283.89 232.884   6
  -4 -15  -6 3101.72 208.148  15
  -4  15  -6 2935.69 190.542  24
   4 -15  -6 3246.74 220.177  19
  -4  15  -7 919.923 109.079  24
  -4 -15  -7 1093.18 129.252  15
   4 -15  -7 1076.81 130.283  19
  -4 -15  -8 1.78510 52.0296  15
   4 -15  -8 1.57133 60.0948  19
  -4 -15  -9 88.3561 54.3563  15
   4 -15  -9 94.8110 50.8606  15
  -4 -15 -10 1853.54 145.024  15
  -4  15 -10 1835.26 148.862   6
  -4 -15 -11 154.442 59.6560  20
   4 -16   0 5023.65 271.828  19
   4  16   0 5487.55 303.194   6
  -4  16   0 5415.69 282.843   6
   4 -16   1 1040.80 132.320  19
   4  16  -1 912.468 135.784   6
   4 -16  -1 989.239 134.267  19
  -4  16  -1 1181.45 146.259   6
   4  16   1 1124.13 148.266   6
   4 -16   2 1500.36 153.122  19
  -4  16  -2 1209.90 117.044  24
  -4  16  -2 1490.50 162.747   6
   4  16  -2 1238.99 155.660   6
   4 -16  -2 1229.22 143.112  19
  -4  16  -3 182.035 54.4983  24
   4 -16  -3 258.373 87.4674  19
   4  16  -3 248.373 91.4799   6
  -4  16  -3 286.800 88.8445   6
   4  16  -4 224.745 80.3918   6
   4 -16  -4 216.048 72.8352  19
  -4  16  -4 191.946 64.7082  24
   4  16  -5 225.520 84.4738   6
  -4  16  -5 251.419 67.1742  24
   4 -16  -5 331.921 81.9534  19
   4  16  -6 1029.84 127.201   6
   4 -16  -6 1071.42 124.097  19
  -4  16  -6 1019.83 126.355   6
  -4 -16  -7 4.62686 52.6974  15
   4 -16  -7 3.23951 51.3886  19
  -4  16  -7 137.168 68.0516   6
  -4 -16  -8 812.521 96.3053  15
   4 -16  -8 867.038 103.995  19
  -4  16  -8 719.575 103.927   6
   4 -17   0 101.945 60.5300  19
   4  17  -1 467.378 92.5062   6
   4 -17  -1 406.868 81.7457  19
   4 -17   1 428.792 79.8436  19
  -4  17  -1 634.794 103.783   6
   4  17  -2 88.7548 66.6861   6
   4 -17  -2 23.1008 50.1822  19
  -4  17  -2-27.1217 55.4400   6
   4 -17  -3 1035.80 112.794  19
   4  17  -3 1305.76 140.342   6
  -4  17  -3 967.407 121.161   6
  -4  17  -3 918.555 93.6188  24
  -4  17  -4-180.347 56.3494  24
   4  17  -4-73.3686 59.1154   6
   4 -17  -4-69.8279 59.9080  19
  -4  17  -4 8.48998 51.3666   6
   4  17  -5 84.4247 64.7875   6
   4 -17  -5-60.0200 54.2248  19
  -4  17  -5 74.0676 49.8610   6
   4 -17  -6 76.6680 49.2588  19
  -4  17  -6 106.668 58.3153   6
   5   0   0 83.7938 32.5227   1
   5   0   1-10.1647 27.4729   1
   5   0  -1 4.01765 28.7827   1
   5   0   2 2722.89 123.380   1
   5   0  -2 2574.23 109.625   1
   5   0   3-36.0236 39.9623   3
   5   0   3-21.1683 36.1937   1
   5   0   4 30748.5 720.733   3
   5   0   4 32550.8 443.403   1
   5   0   5 1.29068 36.3204   1
   5   0   6 28066.2 439.351   1
  -5   0  -7 8.29233 36.7523  23
  -5   0  -8 206.738 50.7679  23
  -5   0  -9-9.33637 44.6205  23
  -5   0 -10 115.087 53.2572  23
  -5   0 -11-50.1148 57.1510  23
  -5   0 -12 573.229 91.1393  23
  -5   0 -13 27.2298 52.0733  23
  -5   0 -14-21.9357 66.4488  14
  -5   0 -14-21.6309 72.6081  13
   5   0 -14 112.495 73.8002  12
   5   0 -15-73.1814 66.8234  12
   5   0  15 78.6663 71.3058   9
  -5   0 -15-10.8023 61.1549  13
  -5   0 -16 593.055 113.078  13
   5   0 -16 675.993 107.171  12
   5   0 -17 49.9189 57.0200  12
  -5   0 -17-94.5843 67.2220  13
  -5   0 -18 142.246 70.1743  13
  -5   0 -19-108.837 67.9534  13
  -5   0 -19-74.8936 56.3507  12
  -5   0 -20 27.0467 37.9322  12
   5   1   0-30.7411 36.5742   1
   5  -1   0 14.3630 43.4769  25
   5   1   1 81198.6 877.975   2
   5  -1  -1 79225.2 607.847   1
   5  -1   1 79684.0 640.320   1
   5   1   1 76423.4 638.695   1
   5  -1   1 75550.4 1052.54  25
   5   1  -1 79741.8 618.762   1
   5  -1  -2 456.128 50.1992   1
   5   1  -2 459.376 53.8001   1
   5  -1   2 398.319 53.6416   1
   5   1   3 28051.4 407.845   1
   5  -1   3 29590.7 413.831   1
   5  -1   4 314505. 1388.45   1
   5   1   4 315797. 1403.24   1
   5  -1   5 1053.34 89.5352   1
   5   1   5 2100.82 121.389   1
   5  -1   6 67585.7 693.156   1
   5   1   6 70689.3 702.146   1
  -5   1  -7 37991.9 511.248  23
  -5  -1  -7 38361.2 518.779  23
   5  -1   7 36694.6 527.947   1
  -5   1  -8 30733.0 493.506  23
  -5  -1  -8 30990.9 497.599  23
  -5  -1  -8 29707.0 453.684  22
  -5   1  -9 1129.34 104.452  23
  -5  -1  -9 1254.42 110.659  23
  -5  -1  -9 1367.20 103.699  22
  -5   1 -10 2369.35 156.001  23
  -5  -1 -10 2723.04 168.006  23
  -5   1 -11 44674.5 700.330  23
  -5  -1 -11 44602.7 703.349  23
  -5  -1 -12 2351.59 175.273  23
  -5   1 -12 2445.87 179.275  23
  -5  -1 -13-5.16860 44.1753  23
  -5   1 -13 46.4501 53.6604  23
   5   1 -14 24855.9 580.566  12
  -5  -1 -14 24433.6 617.685  14
  -5   1 -14 24122.5 614.277  13
  -5  -1 -14 24252.2 619.372  13
   5  -1 -14 24458.7 560.855  12
  -5  -1 -15 2241.52 197.493  14
  -5   1 -15 2366.51 204.208  13
  -5  -1 -15 2274.70 200.064  13
   5   1 -15 2137.93 178.062  12
   5  -1 -15 2219.17 177.183  12
   5   1  16 508.232 126.077   9
  -5   1 -16 342.249 95.7694  13
  -5  -1 -16 371.462 92.6260  13
   5  -1 -16 135.054 67.1486  12
   5   1 -16 378.461 88.3919  12
  -5   1 -17 195.312 72.3035  13
  -5  -1 -17 123.225 66.4287  13
   5   1  17 310.357 96.8208   9
  -5   1 -18 7740.73 328.913  13
  -5  -1 -18 7752.85 326.156  13
  -5  -1 -19 257.571 70.4737  13
  -5   1 -19 375.188 77.7803  12
  -5  -1 -19 306.456 68.8825  12
  -5  -1 -20 103.244 45.7522  12
  -5   1 -20-0.31563 43.3574  12
   5   2   0 16.4960 35.1026   1
   5  -2   0 0.24138 32.6546   1
   5  -2   1 19038.9 325.693   1
   5   2   1 18864.0 492.482   2
   5   2   1 18778.6 328.510   1
   5  -2  -1 19711.1 316.228   1
   5  -2   1 18414.5 479.971  25
  -5   2   2 3149.62 223.750  25
   5  -2  -2 2962.18 120.896   1
   5   2   2 3041.26 137.051   1
   5  -2   2 3003.55 135.871   1
   5  -2  -3 517.527 51.9622   1
   5   2   3 485.407 63.0529   1
   5  -2   3 641.755 73.7293   1
   5  -2   4 14460.3 313.223   1
   5   2   4 14573.7 311.259   1
   5  -2   5 9700.95 268.345   1
   5   2   5 11112.0 280.542   1
   5   2   6 7967.52 243.824   1
   5  -2   6 7995.58 245.385   1
  -5   2  -7 437.504 62.2854  23
  -5  -2  -7 507.401 69.6431  23
   5  -2   7 503.618 67.2204   1
  -5  -2  -8 1.92531 40.7360  23
  -5  -2  -8 57.9747 30.5318  22
  -5   2  -8 27.1773 38.2664  23
  -5   2  -9 2715.00 157.022  23
  -5  -2  -9 2923.07 164.434  23
  -5  -2  -9 2752.45 153.121  22
  -5   2 -10 936.901 102.230  23
  -5  -2 -10 936.285 103.074  23
  -5  -2 -10 830.657 91.8237  22
  -5   2 -11 178.943 66.0283  23
  -5  -2 -11 51.1221 46.0619  22
  -5  -2 -11 185.245 63.4891  23
  -5   2 -12 914.115 113.948  23
  -5  -2 -12 814.953 107.933  23
  -5   2 -13 955.822 120.036  23
  -5  -2 -13 810.102 111.993  23
  -5  -2 -14 2172.89 191.312  14
  -5   2 -14 1881.55 181.364  13
  -5  -2 -14 1974.49 182.271  13
   5   2 -14 2085.76 179.019  12
  -5   2 -15 77.2319 70.9891  13
  -5  -2 -15 45.6955 59.8584  14
  -5  -2 -15 10.8748 63.6750  13
   5   2 -15-73.2181 62.8285  12
  -5  -2 -16 16.0952 60.5689  14
  -5   2 -16 10.5046 62.6541  13
  -5  -2 -16 53.0283 64.2860  13
   5   2 -16 18.0129 58.0300  12
  -5  -2 -17 295.940 90.8149  13
  -5   2 -17 346.425 96.8289  13
   5   2  17 437.626 122.540   9
   5   2  18 121.156 74.7457   9
  -5  -2 -18 58.3490 55.9821  13
   5   2  19 141.534 65.1955   9
  -5   2 -19 249.064 60.5491  12
  -5  -2 -19 158.728 59.7231  12
  -5  -2 -19 234.342 65.7675  13
  -5   2 -20-12.7071 41.2863  12
   5  -3   0 154.927 44.2949   1
   5   3   1 154613. 1603.71   2
   5  -3   1 155791. 977.242   1
   5  -3  -1 157411. 936.381   1
   5  -3   2 68632.7 661.580   1
   5  -3  -2 69304.1 599.441   1
   5  -3   3 198851. 1159.89   1
   5  -3   4 10664.1 280.197   1
   5  -3   5 1901.10 122.045   1
   5  -3   6 8044.54 257.660   1
  -5   3  -6 8815.72 230.949  23
  -5   3  -7 31791.2 470.322  23
  -5  -3  -7 31346.9 477.283  23
   5  -3   7 31033.0 518.952   1
  -5  -3  -8 33543.6 529.740  23
  -5   3  -8 33023.4 511.010  23
  -5  -3  -9 161.602 46.4597  23
  -5  -3  -9 202.286 55.6280  22
  -5   3  -9 213.673 53.9177  23
  -5   3 -10 1010.64 104.679  23
  -5  -3 -10 909.736 103.559  23
  -5  -3 -10 1044.03 104.737  22
  -5   3 -11 132825. 1212.84  23
  -5  -3 -11 134825. 1231.38  23
  -5  -3 -11 131899. 1202.74  22
  -5   3 -12 3966.68 222.474  23
  -5  -3 -12 4128.82 229.604  23
  -5  -3 -12 4018.14 221.063  22
  -5  -3 -13 4343.14 258.598  14
  -5  -3 -13 4717.35 271.608  20
   5   3 -13 4732.70 255.234  12
  -5   3 -13 4714.16 269.866  13
  -5  -3 -13 4552.53 249.564  23
  -5  -3 -13 3989.92 226.251  22
  -5  -3 -14 357.775 94.8735  14
  -5  -3 -14 243.625 75.8750  20
   5   3 -14 307.282 86.9508  12
  -5   3 -14 217.452 74.8160  13
  -5   3 -15 429.590 97.6267  13
  -5  -3 -15 419.487 103.203  14
  -5  -3 -15 568.659 110.670  13
   5   3 -15 548.720 105.750  12
  -5   3 -16-26.1894 62.6642  13
  -5  -3 -16 96.6546 76.0683  14
  -5  -3 -16 3.50269 61.3932  13
   5   3 -16-22.1959 78.4581  12
  -5  -3 -17 1776.56 175.122  14
  -5  -3 -17 1530.52 162.788  13
   5   3  18 1252.83 159.710   9
  -5   3 -18 1181.69 127.913  12
  -5  -3 -18 1068.27 121.823  13
   5   3  19 1442.31 145.761   9
  -5  -3 -19 1287.78 123.192  13
  -5   3 -19 1369.44 119.995  12
  -5  -3 -19 1412.60 118.907  12
   5  -4   0 66.5219 38.1282   1
  -5  -4   0 6.62073 28.2647   4
   5  -4   1 4395.79 176.217   1
   5  -4  -1 4156.85 161.891   1
   5  -4   2 345.829 60.9224   1
   5  -4  -2 1104.22 85.4738   1
   5  -4   3 9659.25 270.497   1
   5  -4   4 4750.85 197.740   1
   5  -4   5 1160.95 102.702   1
   5  -4   6 1736.76 128.712   1
  -5  -4  -7 6579.53 222.761  23
   5  -4   7 6230.22 243.663   1
  -5  -4  -8 4684.29 203.480  23
  -5  -4  -9 3087.21 172.772  23
  -5  -4  -9 2924.59 171.488  22
  -5  -4 -10 4159.67 210.070  23
  -5  -4 -10 3890.02 204.724  22
  -5  -4 -11 1230.72 122.475  23
  -5  -4 -11 1200.79 123.875  22
  -5  -4 -12 1196.06 127.842  23
  -5  -4 -12 1333.74 134.491  22
  -5  -4 -13 380.947 87.1223  14
   5   4 -13 200.577 69.4714  12
  -5  -4 -13 223.644 73.0982  20
  -5   4 -13 275.047 78.3555  13
  -5  -4 -14 51.1758 58.8361  14
  -5   4 -14 20.7776 57.4160  13
   5   4 -14 34.7016 55.4036  12
  -5  -4 -14-18.0894 67.4061  20
  -5   4 -15 100.688 71.8501  13
  -5  -4 -15 3.23215 60.4027  14
  -5  -4 -15 15.8011 62.1312  13
   5   4 -15 36.2077 62.4042  12
  -5  -4 -15-55.4628 71.8272  20
  -5  -4 -16 818.863 125.251  14
  -5  -4 -16 791.630 116.962  13
  -5  -4 -17 192.899 84.0553  14
  -5  -4 -17 81.5882 59.7645  13
  -5   4 -18 108.314 53.3146  12
  -5  -4 -18 136.863 64.8499  13
  -5  -4 -19 67.5142 48.7040  13
   5   4  19 111.041 63.3990   9
  -5   4 -19 58.5060 43.9067  12
   5  -5   0 27.4798 38.7438   1
  -5  -5   0-7.57187 27.5765   4
  -5  -5  -1 7635.88 210.715   4
  -5  -5   1 7277.04 199.727   4
   5  -5   1 7831.15 247.808   1
   5  -5  -1 7776.40 236.345   1
  -5  -5   2 402.157 54.5559   4
   5  -5   2 334.534 62.4694   1
   5  -5  -2 359.537 54.0650   1
   5  -5   3 3356.35 171.994   1
   5  -5   4 319088. 1672.33   1
   5  -5   5 29701.8 521.095   1
   5  -5   6 57912.7 750.899   1
  -5  -5  -6 58730.0 635.589  23
   5  -5   7 4078.40 208.487   1
  -5  -5  -7 4341.41 186.458  23
  -5  -5  -8 48200.0 646.548  23
  -5  -5  -9 892.727 100.141  22
  -5  -5  -9 882.854 94.9966  23
  -5  -5 -10 4240.93 220.950  22
  -5  -5 -10 4591.89 221.565  23
  -5  -5 -11 528.578 82.2725  23
  -5  -5 -11 455.571 81.4689  22
  -5  -5 -12 1258.89 145.012  15
  -5  -5 -12 1156.26 137.525  14
  -5   5 -12 1289.10 149.023  13
  -5  -5 -12 1098.61 118.538  23
  -5  -5 -12 1155.86 131.675  22
  -5  -5 -12 1177.72 140.905  20
  -5  -5 -13 1455.30 156.316  15
  -5  -5 -13 1756.37 174.160  14
  -5   5 -13 1446.62 160.710  13
   5   5 -13 1670.10 160.295  12
  -5  -5 -13 1693.88 173.661  20
  -5  -5 -14 14070.2 482.049  20
  -5  -5 -14 14802.6 486.114  14
  -5  -5 -15-54.5541 64.8825  20
  -5  -5 -15 17.2705 66.8852  14
  -5  -5 -16 238.797 81.5774  14
  -5  -5 -16 85.6670 64.0063  13
  -5  -5 -16 164.944 75.6422  20
  -5  -5 -17 258.505 80.0026  14
  -5  -5 -17 341.366 83.8287  13
   5   5  18 6339.20 306.341   9
  -5  -5 -18 6564.34 287.688  14
  -5  -5 -18 7185.38 286.250  13
  -5   5 -19 165.538 57.2059  11
   5   5  19 195.343 60.8277   9
  -5  -6   0 5.12768 30.2724   4
  -5  -6  -1 351.336 59.3815   4
  -5  -6   1 344.557 56.4887   4
  -5  -6   2 115.381 37.3241   4
  -5  -6   3 6015.74 204.843   4
   5  -6   4 1085.78 107.657   1
   5  -6   5 250.117 60.6761   1
   5  -6   6 71.6376 41.8204   1
   5  -6   7 1931.08 151.952   1
   5  -6   8 40.4754 47.5029   1
  -5  -6  -9 36.5996 44.5971  22
  -5  -6 -10 1519.64 141.061  22
  -5  -6 -11 1002.44 118.976  22
   5   6 -12 1727.40 158.684  11
  -5  -6 -12 1695.76 171.843  15
  -5  -6 -12 1736.94 168.573  14
  -5  -6 -12 1749.41 173.909  20
  -5  -6 -13-9.97334 63.4632  14
  -5  -6 -13 35.4587 69.3081  15
  -5  -6 -14 28.2006 57.8103  14
  -5  -6 -14 82.9764 75.1062  20
  -5  -6 -15 107.174 76.6137  20
  -5  -6 -15 23.3635 65.3488  14
  -5  -6 -16 208.404 76.6269  14
  -5  -6 -16 143.617 58.8731  13
  -5  -6 -16 269.012 80.2229  20
  -5  -6 -17 45.5120 56.2700  14
  -5  -6 -17-4.73305 55.5183  13
  -5  -6 -18 56.3587 53.1827  14
  -5  -6 -18 22.9819 49.3920  13
  -5   6 -18 5.99200 47.0021  11
   5   6  19-1.70421 49.3535   9
  -5  -7   0-37.4305 43.2903   4
  -5  -7  -1 52034.7 649.600   4
  -5  -7   1 53209.6 644.126   4
  -5  -7   2 15155.6 346.462   4
  -5  -7   3 53195.4 657.727   4
   5  -7   5 1368.72 131.282   1
   5  -7   6 96.6879 52.4741   1
   5  -7   7 38483.9 691.001   1
  -5  -7  -8 333.437 77.2064  22
   5  -7   8 128.263 60.9404   1
  -5  -7  -9 5005.35 245.759  22
  -5  -7 -10 2197.28 173.187  22
  -5  -7 -11 62239.3 968.149  15
   5  -7 -11 59578.9 929.298   7
   5   7 -11 61780.2 916.805  11
   5  -7  11 62776.6 1062.84  10
  -5  -7 -12 6509.74 323.075  14
   5   7 -12 6302.50 300.760  11
  -5  -7 -12 6690.82 332.153  20
   5  -7  12 6256.40 347.819  10
  -5  -7 -12 6200.12 317.445  15
  -5  -7 -13 2245.88 198.393  15
  -5  -7 -13 2381.20 200.291  14
   5   7 -13 2244.65 180.463  11
  -5  -7 -13 2332.45 199.971  20
  -5  -7 -14 1011.09 141.308  14
   5   7 -14 905.823 123.400  11
  -5  -7 -14 934.530 133.659  20
  -5  -7 -15 893.659 127.873  14
   5   7 -15 828.105 114.577  11
  -5  -7 -15 837.756 124.786  20
  -5  -7 -16 1150.70 138.553  14
  -5   7 -16 1092.31 127.188  11
  -5  -7 -16 1043.35 132.741  20
  -5   7 -17 870.323 109.628  11
  -5  -7 -17 1003.20 121.905  14
  -5  -7 -17 903.663 110.229  13
  -5  -7 -18 217.822 61.6245  14
  -5  -7 -18 284.684 66.7272  13
  -5  -8   0 25.0902 40.2506   4
  -5  -8   1 1024.34 102.538   4
  -5  -8  -1 652.225 87.3795   4
  -5  -8   2 114.410 44.0286   4
  -5  -8   3 367.036 70.9400   4
  -5  -8   4 606.468 81.1500   4
   5  -8   5 42.7574 52.1439   1
   5  -8   6 120.094 54.2057   1
   5  -8   7 274.526 76.8370   1
   5  -8   8 3311.72 220.624   1
  -5  -8  -8 3207.57 198.956  22
  -5  -8  -9 18.5011 55.2452  22
  -5   8 -10 328.926 67.4735  24
  -5  -8 -10 549.722 111.614  15
   5  -8 -10 460.223 97.3470   7
   5   8 -10 644.927 108.059  11
   5  -8  10 592.854 134.302  10
   5  -8 -11 106.724 58.9481   7
   5   8 -11 84.9604 62.6190  11
  -5  -8 -11 80.8650 66.3341  15
   5  -8  11-1.54341 79.6117  10
  -5  -8 -12-43.5688 77.9422  20
  -5  -8 -12 80.4240 64.7310  15
   5  -8  12-21.1384 71.7868  10
  -5  -8 -12-41.4587 73.2437  14
   5   8 -12 1.18751 64.2284  11
  -5  -8 -13 40.5682 74.1711  15
  -5  -8 -13 88.8083 61.3804  14
   5   8 -13-60.4371 69.6291  11
  -5  -8 -13 81.6468 73.0821  20
  -5  -8 -14 1132.37 138.384  15
  -5  -8 -14 1108.62 141.949  14
   5   8 -14 1056.99 128.029  11
  -5  -8 -14 1034.02 143.101  20
  -5  -8 -15 450.608 94.8124  14
  -5  -8 -15 429.746 96.7469  20
  -5   8 -15 460.574 88.0843  11
  -5  -8 -16 49.9998 58.1734  14
  -5  -8 -16 22.2591 59.0683  20
  -5   8 -16 74.7094 48.2907  11
  -5  -8 -17 173.855 66.3716  14
  -5  -8 -17 151.122 63.5511  13
  -5   8 -17 136.198 57.5224  11
   5   8  18 213.559 71.1385   9
  -5  -8 -18 106.319 51.1142  14
  -5  -9   0-23.1642 46.0786   4
  -5  -9  -1 6353.95 265.429   4
  -5  -9   1 6722.30 269.721   4
  -5  -9   2 20978.6 472.534   4
  -5  -9   3 25719.0 529.946   4
  -5  -9   4 61019.6 829.218   4
   5  -9   6 21754.1 567.078   1
   5  -9   7 3385.59 231.097   1
  -5  -9  -7 3514.03 208.777  22
   5  -9   8 19314.0 546.428   1
   5  -9   8 18871.3 507.325   4
  -5  -9  -8 20360.8 510.977  22
  -5   9  -9 617.338 94.9985  24
  -5  -9  -9 907.977 125.381  15
   5  -9  -9 1010.37 136.607  16
   5  -9   9 1042.52 152.085  10
   5  -9 -10 614.432 117.592  16
  -5  -9 -10 487.207 106.960  15
  -5   9 -10 452.093 79.5743  24
   5  -9  10 535.663 128.056  10
  -5  -9 -11 10276.3 405.749  15
   5  -9  11 10150.3 444.831  10
  -5  -9 -12 2.91170 71.0011  15
  -5  -9 -12 118.351 77.0814  20
   5  -9  12 147.745 82.8841  10
  -5  -9 -13 1814.12 176.808  15
  -5  -9 -13 1610.53 165.462  14
  -5  -9 -13 1563.04 166.170  20
   5  -9  13 1572.69 179.730  10
  -5  -9 -14 7699.07 344.725  15
  -5  -9 -14 7663.59 338.495  14
  -5  -9 -14 7647.53 343.990  20
  -5  -9 -15 6.00897 59.9533  14
  -5  -9 -15 32.1734 63.2843  20
  -5  -9 -16 684.625 100.284  14
  -5  -9 -16 606.241 93.0618  20
   5   9  17 179.918 69.9597   9
  -5  -9 -17 19.3327 40.8465  14
  -5 -10   0 134.731 57.9914   4
  -5 -10   1 227.201 72.8520   4
  -5 -10   2 1551.18 143.722   4
  -5 -10   3 311.730 77.4378   4
  -5 -10   4 379.033 75.6392   4
   5 -10   5-14.4640 51.0091   1
  -5 -10   5-58.1470 60.5892   4
   5 -10   6 705.387 119.817   1
  -5  10  -7 1926.62 153.266  24
   5 -10  -7 2063.66 192.129  16
   5 -10   7 2048.78 203.622  10
  -5 -10  -7 1869.89 166.993  15
   5 -10   7 2367.01 200.637   1
  -5 -10  -7 2158.65 170.929  22
   5 -10  -7 1958.47 174.319  19
  -5  10  -8-1.87345 51.3015  24
  -5 -10  -8-42.2289 68.7658  15
   5 -10   8 53.0348 83.7100  10
   5 -10  -8-26.1814 78.9857  16
  -5  10  -9-28.7108 60.6923  24
  -5 -10  -9 49.9018 63.1367  15
   5 -10  -9 3.23520 66.2263  16
   5 -10   9-7.95634 70.7934  10
   5 -10  10 174.861 97.1337  10
  -5 -10 -10 118.892 79.0294  15
  -5  10 -10 61.2013 57.2429  24
  -5 -10 -11 49.8746 64.8761  15
   5 -10  11-139.766 90.9618  10
  -5 -10 -12 115.168 74.5465  15
   5 -10  12 60.3800 73.0644  10
  -5 -10 -12 108.327 87.4994  20
   5 -10  13 69.0969 63.7744  10
  -5 -10 -13 125.871 74.0628  15
  -5 -10 -13 146.020 71.8329  14
  -5 -10 -13 79.5744 72.4612  20
  -5 -10 -14 26.3622 62.4850  15
  -5 -10 -14 37.9621 57.9165  14
  -5 -10 -14 57.5950 65.5342  20
  -5 -10 -15 33.0591 47.6555  14
  -5 -10 -15-62.5169 59.3878  20
  -5 -10 -16-14.0877 49.7411  14
  -5 -10 -16-12.7628 48.0029  20
  -5 -11   0-17.7751 63.1448   4
  -5 -11   1 10400.6 382.482   4
  -5 -11   2 5221.56 270.800   4
  -5 -11   3 1341.39 145.704   4
   5 -11  -4 29676.5 697.559  16
  -5 -11   4 28388.0 634.438   4
   5 -11   4 29666.6 718.620  10
   5 -11  -4 29153.8 666.606  19
  -5  11  -5 10222.1 322.388  24
   5 -11  -5 10432.0 422.558  16
   5 -11  -5 9765.42 393.333  19
   5 -11   5 9501.82 420.323  10
   5 -11  -6 3997.04 269.440  16
   5 -11  -6 4074.66 257.896  19
  -5  11  -6 4393.49 221.222  24
  -5 -11  -6 3939.68 242.729  15
   5 -11   6 4027.98 285.009  10
  -5 -11  -7 257.896 85.5098  15
   5 -11  -7 209.139 92.2233  16
   5 -11  -7 284.157 81.3536  19
   5 -11   7 272.565 97.5583  10
  -5  11  -7 395.545 82.7862  24
  -5  11  -8 371.830 77.0444  24
   5 -11  -8 709.831 130.703  16
  -5 -11  -8 588.181 110.550  15
   5 -11  -8 656.030 111.329  19
   5 -11   8 602.761 133.142  10
   5 -11  -9 1595.93 178.748  16
  -5 -11  -9 1118.63 144.168  15
   5 -11  -9 1044.80 132.568  19
   5 -11   9 1074.76 155.463  10
  -5  11  -9 1114.68 124.125  24
  -5  11 -10 119.912 56.4670  24
  -5 -11 -10 226.756 78.7291  15
   5 -11  10 205.174 89.7132  10
  -5 -11 -11 2929.30 219.945  15
   5 -11  11 2653.69 233.398  10
   5 -11  12 2124.48 198.831  10
  -5 -11 -12 2295.73 191.127  15
  -5 -11 -12 2422.21 197.906  20
  -5 -11 -13 336.964 83.8820  15
  -5 -11 -13 452.383 94.5188  14
  -5 -11 -13 416.611 92.6419  20
  -5 -11 -14 4084.06 229.808  15
  -5 -11 -14 4088.43 228.616  14
  -5 -11 -14 3986.08 228.338  20
  -5 -11 -15 826.626 99.9650  14
  -5 -11 -15 831.697 104.107  20
   5 -12   0-10.8902 76.6074  16
   5  12   0-39.3182 80.5381   6
   5 -12  -1-67.5024 82.4783  16
   5  12   1-17.5168 88.6622   6
   5  12  -1 104.116 85.8223   6
   5 -12  -2 14.3340 72.6590  16
   5  12   2 229.245 87.4206   6
   5  12  -2-78.9359 101.432   6
   5  12   3 495.463 113.494   6
   5 -12  -3 271.204 90.2463  19
   5  12  -3 388.566 105.584   6
   5 -12  -3 236.976 89.5792  16
   5  12   4 452.596 105.757   6
   5 -12   4 463.255 116.304  10
   5 -12  -4 426.238 107.163  16
   5 -12  -4 492.530 109.671  19
   5  12  -4 261.470 85.7825   6
   5 -12  -5 504.865 115.539  16
   5  12  -5 506.922 104.913   6
   5 -12   5 566.157 120.914  10
   5 -12  -5 354.395 92.4602  19
   5 -12  -6 74.3831 67.5918  19
   5 -12  -6 19.4874 74.7718  16
  -5 -12  -6 154.286 72.9519  15
   5 -12   6 189.667 101.764  10
  -5  12  -7 217.881 77.3530  24
   5 -12  -7 265.121 88.2908  16
  -5 -12  -7 189.317 80.6851  15
   5 -12  -7 429.732 106.575  19
   5 -12   7 183.042 80.2993  10
  -5  12  -8 13.5483 56.4680  24
   5 -12  -8-20.5051 77.8442  16
  -5 -12  -8-16.2707 68.9426  15
   5 -12   8-48.4715 77.6454  10
   5 -12  -8-50.4102 72.5265  19
  -5  12  -9-27.5868 65.1266  24
  -5 -12  -9 50.4484 62.2114  15
   5 -12   9-25.9225 90.6786  10
   5 -12  -9 63.5153 62.9941  19
  -5 -12 -10 72.3093 64.9194  15
  -5 -12 -11 4.58545 61.2633  15
  -5 -12 -12 82.2707 68.4578  15
  -5 -12 -12 112.194 64.7510  14
  -5 -12 -12 172.031 76.4560  20
  -5 -12 -13 92.6369 63.1586  15
  -5 -12 -13 129.165 59.5288  14
  -5 -12 -13 98.4403 57.3642  20
  -5 -12 -14-4.56237 42.8361  14
  -5 -12 -14 32.5582 48.0968  20
   5  13   0 59.4601 72.3526   6
   5  13  -1 3333.22 257.884   6
   5 -13  -1 3279.09 243.619  16
   5  13   1 3346.96 259.892   6
   5 -13  -2 12997.1 478.190  16
   5 -13  -2 13286.2 476.818  19
   5  13   2 12955.4 489.135   6
   5  13  -2 13238.7 497.918   6
   5 -13  -3 5412.62 312.578  16
   5 -13  -3 5336.54 303.028  19
   5  13   3 5461.55 320.250   6
   5  13  -3 5068.66 311.444   6
   5 -13  -4 147.444 95.0532  19
   5 -13  -4 115.244 83.5225  16
   5  13  -4 44.6790 80.1160   6
   5 -13  -5 35.5392 74.9796  16
   5 -13  -5-59.0454 79.8267  19
   5  13  -5 3.70133 74.2547   6
  -5  13  -6 257.099 78.3018  24
   5 -13  -6 160.988 82.1624  16
   5  13  -6 202.433 83.6986   6
   5 -13  -6 205.329 86.9725  19
   5 -13  -7 3695.79 256.460  16
  -5 -13  -7 3545.27 234.000  15
   5 -13  -7 3768.33 245.952  19
  -5  13  -7 3230.59 206.133  24
  -5  13  -8 3139.88 204.655  24
   5 -13  -8 3068.97 217.928  19
  -5 -13  -9-21.9633 67.9074  15
  -5  13  -9-46.4468 65.4470  24
  -5 -13 -10 443.712 92.6092  15
   5 -13 -10 454.799 90.7487  19
  -5 -13 -11 6929.78 301.522  15
  -5 -13 -12 3820.47 215.696  15
  -5 -13 -12 3585.73 206.534  14
  -5 -13 -12 3616.71 212.312  20
  -5 -13 -13 487.491 85.2107  15
  -5 -13 -13 445.666 76.2010  14
   5 -13  13 369.327 71.6465   8
  -5 -13 -13 437.257 82.5570  20
   5  14   0-86.9229 91.1312   6
   5 -14  -1 85.3146 70.3698  16
   5  14   1-28.5534 71.9700   6
   5  14  -1-14.7919 77.8179   6
   5 -14  -1 41.3812 78.0216  19
   5 -14  -2 375.651 98.3815  16
   5  14   2 136.391 72.8767   6
   5  14  -2 311.431 102.086   6
   5 -14  -2 286.305 98.4428  19
   5  14  -3 246.257 100.642   6
   5 -14  -3 57.9001 65.8784  19
   5 -14  -4-48.2219 84.1342  16
   5  14  -4-29.1929 73.9760   6
   5 -14  -4-84.5209 74.8868  19
  -5  14  -5 507.617 95.9835  24
   5 -14  -5 419.803 101.957  16
   5  14  -5 429.074 111.585   6
   5 -14  -5 509.355 105.503  19
  -5  14  -6 315.457 75.6336  24
   5 -14  -6 395.144 103.348  16
   5  14  -6 348.305 94.9006   6
   5 -14  -6 623.100 110.013  19
   5 -14  -7 136.715 70.8590  19
  -5 -14  -7 154.203 69.1460  15
  -5  14  -7 93.4924 55.0169  24
  -5 -14  -8 179.209 70.3996  15
   5 -14  -8 147.957 70.9294  19
  -5  14  -8 200.632 67.3429  24
  -5 -14  -9 4.96925 56.9909  15
   5 -14  -9 16.9915 57.3691  19
  -5 -14 -10 123.174 70.1383  15
  -5 -14 -11-16.5125 52.0531  15
  -5 -14 -11-50.2829 46.9572  14
  -5 -14 -11-11.9604 47.4398  20
  -5 -14 -12-38.4060 46.1186  14
  -5 -14 -12 9.11214 42.9584  20
  -5 -14 -12-122.556 55.4136  15
   5  15   0-65.4150 80.9121   6
   5 -15   0-19.5174 64.0331  19
   5 -15  -1 17.7148 69.5367  19
   5 -15   1 110.914 71.4624  19
   5  15   1 76.5830 77.8561   6
   5  15  -1 130.033 76.5647   6
   5 -15  -2 627.348 111.568  16
   5  15  -2 551.121 121.514   6
   5 -15  -2 846.793 128.998  19
   5 -15   2 764.757 126.119  19
  -5  15  -3 1196.24 125.044  24
   5 -15  -3 871.893 130.273  16
   5  15  -3 1355.98 166.709   6
   5 -15  -3 1051.13 141.173  19
   5 -15  -4 4927.45 279.872  16
  -5  15  -4 4727.74 232.288  24
   5 -15  -4 4663.27 268.835  19
   5  15  -4 5541.36 309.487   6
   5  15  -5 3863.73 254.186   6
   5 -15  -5 4084.51 246.513  19
  -5  15  -5 3356.38 197.991  24
  -5  15  -6 1202.14 123.793  24
   5  15  -6 1069.38 135.517   6
   5 -15  -6 933.522 122.619  19
   5 -15  -7 26.5567 54.7520  19
  -5  15  -7-49.4775 55.6347  24
  -5 -15  -8 1121.40 121.384  15
   5 -15  -8 1180.23 124.818  19
  -5 -15  -9 776.789 102.074  15
   5 -15  -9 782.024 101.960  19
  -5 -15 -10 130.635 53.2067  15
  -5  16   0 642.235 84.1999  24
   5 -16   0 145.033 72.6828  19
   5 -16  -1 89.5431 69.4196  19
   5  16  -1 54.7327 65.3654   6
   5 -16   1 99.8347 71.5117  19
  -5  16  -1 130.388 70.5562   6
   5 -16  -2 77.6286 59.3450  19
   5  16  -2-1.40477 70.2091   6
   5 -16   2 76.9137 56.1922  19
  -5  16  -2 117.025 61.1570  24
   5 -16  -3-61.1737 69.2921  19
   5  16  -3-18.4219 66.0914   6
   5 -16   3 60.4502 64.1613  19
  -5  16  -3 41.3244 47.8157  24
   5  16  -4-44.8677 74.3736   6
   5 -16  -4 25.0191 56.9053  19
   5 -16  -5-18.7339 52.6220  19
  -5  16  -5-54.8497 52.2428  24
   5  16  -5-82.2701 75.8200   6
   5 -16  -6 148.426 66.0081  19
  -5  16  -6 33.6905 45.3896  24
   5 -16  -7 15.4461 47.9025  19
   5 -16  -8-32.4754 48.2175  19
  -5  16  -8-57.0603 52.3094   6
   5 -17   0-27.0948 57.5128  19
   5 -17   1 980.332 111.987  19
   5 -17  -1 1000.22 117.377  19
  -5  17  -1 972.185 115.471   6
   5 -17  -2 1152.55 120.011  19
  -5  17  -2 1090.97 122.170   6
   5 -17   2 1062.98 113.261  19
  -5  17  -2 963.954 93.5768  24
  -5  17  -3 395.926 71.3413  24
   5 -17  -3 666.163 95.4273  19
  -5  17  -3 741.338 104.335   6
   5 -17  -4 736.154 93.7087  19
  -5  17  -4 852.958 108.052   6
   6   0   0 204464. 1101.77   1
   6   0   1 27.2049 32.6240   1
   6   0  -1 48.8943 36.8958   1
   6   0   2 17159.0 335.741   1
   6   0  -2 18133.7 320.183   1
   6   0   3 15.2248 36.1035   1
   6   0  -3 18.5544 29.9265   1
   6   0   4 5512.87 201.885   1
   6   0   5-25.0206 38.1834   1
   6   0   6 26093.1 459.360   1
   6   0   7 23.4784 43.5593   1
  -6   0  -8 5116.69 212.584  23
  -6   0  -9 39.0828 42.3801  23
  -6   0 -10 29869.4 566.937  23
  -6   0 -11 26.0829 49.7776  23
  -6   0 -12 6327.38 286.293  23
   6   0  13-7.44612 55.8759   9
  -6   0 -13-1.09617 56.0828  14
  -6   0 -13 118.509 74.5273  13
   6   0 -13 18.0306 56.5001  12
  -6   0 -14 8300.67 369.014  13
   6   0 -14 8566.13 340.589  12
   6   0  14 8435.34 395.749   9
   6   0  15 114.204 78.5458   9
  -6   0 -15 30.3345 59.6218  13
   6   0  16 4606.59 288.364   9
  -6   0 -16 4601.14 278.326  13
  -6   0 -17-29.8477 59.7018  13
  -6   0 -18 1513.62 148.609  13
  -6   0 -19-97.5158 58.1053  13
   6  -1   0 31684.2 442.882   1
   6   1   0 30945.3 441.607   1
   6  -1   1 5240.91 184.984   1
   6  -1  -1 5235.01 175.460   1
   6   1   1 5271.11 186.226   1
   6   1  -1 5051.48 177.209   1
   6  -1   2 1525.29 103.953   1
   6  -1  -2 1604.29 98.9634   1
   6   1  -2 1569.88 98.7779   1
   6   1   2 1343.08 102.035   1
   6  -1   3 52169.7 607.814   1
   6  -1  -3 51726.6 523.856   1
   6   1   3 51242.0 604.171   1
   6  -1   4 1173.61 99.4596   1
   6   1   4 727.176 81.9784   1
   6  -1   5 1215.54 101.620   1
   6   1   5 1371.37 109.284   1
   6  -1   6 48534.6 638.582   1
   6   1   6 50467.2 648.488   1
   6  -1   7 21386.4 436.256   1
   6   1   7 22403.4 444.116   1
  -6   1  -8 4690.50 202.327  23
  -6  -1  -8 4312.38 196.217  23
  -6   1  -9 21514.5 462.756  23
  -6  -1  -9 20770.7 456.612  23
  -6   1 -10 19540.3 457.003  23
  -6  -1 -10 19959.9 465.159  23
  -6   1 -11 4538.49 233.342  23
  -6  -1 -11 4488.34 232.224  23
  -6   1 -12 13349.9 412.676  23
  -6  -1 -12 12674.0 404.864  23
  -6  -1 -13 5385.97 286.554  14
  -6   1 -13 5210.77 286.996  13
  -6  -1 -13 5263.95 289.877  13
   6  -1  13 5072.65 299.045   9
   6  -1 -13 5539.35 266.299  12
   6   1 -13 5787.00 278.597  12
   6   1  14 298.956 106.150   9
  -6  -1 -14 481.544 103.536  14
  -6  -1 -14 297.281 92.5330  13
   6  -1 -14 328.319 87.1899  12
   6   1 -14 492.935 97.1547  12
  -6   1 -14 332.676 100.591  13
  -6   1 -15 450.087 102.640  13
   6   1  15 698.460 134.335   9
  -6  -1 -15 434.310 95.9620  14
  -6  -1 -15 590.392 114.199  13
   6   1  16 4584.71 294.114   9
  -6   1 -16 5024.04 286.474  13
  -6  -1 -16 4292.51 266.669  13
   6   1  17 1647.84 179.583   9
  -6   1 -17 1740.99 169.587  13
  -6  -1 -17 1704.06 167.774  13
   6   1  18 56.8330 60.4189   9
  -6   1 -18 129.064 70.9914  13
  -6  -1 -18 178.016 69.3318  13
  -6  -1 -19 295.013 68.0932  13
  -6   1 -19 533.470 78.5887  12
   6   2   0 12507.5 289.610   1
   6  -2   0 12418.2 284.675   1
   6  -2   1 1188.62 95.1764   1
   6  -2  -1 1416.50 96.0811   1
   6   2   1 1418.64 104.992   1
   6  -2  -2 2609.31 124.999   1
   6  -2   2 2274.76 131.117   1
   6   2   2 2349.71 132.396   1
   6   2   3 91320.3 825.597   1
   6  -2   3 93979.3 832.087   1
   6   2   4 21401.8 408.673   1
   6  -2   4 20760.1 402.637   1
   6   2   5 2265.41 139.859   1
   6  -2   5 2037.33 133.827   1
   6  -2   6 5680.22 225.052   1
   6   2   6 5785.67 225.555   1
   6  -2   7 94606.7 934.183   1
   6   2   7 92891.3 918.130   1
  -6   2  -7 93845.7 848.236  23
  -6   2  -8 5645.21 221.644  23
  -6  -2  -8 5597.88 225.506  23
  -6  -2  -9 8067.04 286.297  23
  -6   2  -9 7733.64 274.311  23
  -6  -2  -9 7496.61 258.916  22
  -6   2 -10 12214.9 360.983  23
  -6  -2 -10 12343.4 368.794  23
  -6  -2 -10 11853.7 337.619  22
  -6   2 -11 351.154 73.1567  23
  -6  -2 -11 448.292 81.8657  23
  -6   2 -12 88.3066 46.8546  23
  -6  -2 -12-23.1286 47.1682  23
  -6  -2 -13 97.1700 69.1682  20
  -6  -2 -13 64.7381 62.3585  14
   6   2 -13 145.415 65.7680  12
  -6   2 -13 196.509 73.8703  13
  -6  -2 -14 1597.63 167.531  14
  -6   2 -14 1483.29 162.900  13
  -6  -2 -14 1559.64 163.349  13
   6   2  15 4289.21 296.022   9
  -6  -2 -15 3972.14 257.776  14
  -6   2 -15 4100.23 260.843  13
  -6  -2 -15 4315.01 268.660  13
   6   2  16 1810.49 193.183   9
  -6  -2 -16 1730.45 173.267  14
  -6   2 -16 1915.31 182.571  13
  -6  -2 -16 1818.35 175.282  13
   6   2  17 9103.59 396.712   9
  -6   2 -17 9491.91 379.091  13
  -6  -2 -17 9964.81 380.965  13
  -6  -2 -18 967.661 118.982  13
   6   2  18 578.194 112.727   9
  -6  -2 -19-71.9449 56.3660  13
   6   2  19 38.0375 46.7576   9
  -6   2 -19-57.7990 50.9678  12
   6  -3   0 89118.6 784.108   1
   6  -3   1 7053.66 228.383   1
   6  -3  -1 7538.25 225.830   1
   6  -3   2 50.3237 42.0225   1
   6  -3  -2 13.6881 32.2090   1
   6  -3   3 107954. 930.865   1
   6  -3   4 26226.0 472.861   1
   6  -3   5 7808.52 266.360   1
   6  -3   6 9587.02 301.306   1
  -6   3  -7 31485.7 489.972  23
   6  -3   7 31435.0 557.039   1
  -6   3  -8 2115.69 139.899  23
  -6  -3  -8 2168.90 144.526  23
  -6   3  -9 11819.6 336.034  23
  -6  -3  -9 12481.0 361.423  23
  -6  -3  -9 11528.0 333.209  22
  -6  -3 -10 654.648 89.9624  23
  -6   3 -10 730.724 93.1740  23
  -6  -3 -10 573.034 80.8651  22
  -6  -3 -11 34.6741 42.9106  23
  -6  -3 -11 82.4415 49.2070  22
  -6   3 -11 190.362 65.3879  23
  -6  -3 -12 886.495 115.865  23
  -6  -3 -12 921.985 114.940  22
  -6  -3 -13 13244.8 449.281  14
  -6   3 -13 13657.9 468.193  13
  -6  -3 -13 13849.9 469.443  20
  -6   3 -14-41.4304 70.5236  13
  -6  -3 -14 38.7485 63.7003  14
  -6  -3 -14 68.0403 63.4507  20
  -6   3 -15 148.375 68.9141  13
  -6  -3 -15 160.068 66.1303  14
  -6  -3 -15 269.797 88.5399  13
   6   3  16 633.026 136.895   9
  -6  -3 -16 345.511 94.1025  14
  -6   3 -16 372.807 97.9107  13
  -6  -3 -16 476.539 104.294  13
   6   3  17 774.630 134.068   9
  -6  -3 -17 581.612 103.062  13
   6   3  18 207.891 77.6071   9
  -6  -3 -18 222.586 67.3786  13
   6   3  19 2053.00 162.930   9
  -6  -3 -19 2081.64 149.771  13
  -6   3 -19 2130.82 142.583  12
  -6  -3 -19 2093.24 140.210  12
   6  -4   0 89616.9 819.434   1
   6  -4   1 33144.2 513.826   1
   6  -4  -1 34178.6 497.776   1
   6  -4   2 10559.0 295.836   1
   6  -4  -2 10663.4 272.494   1
   6  -4   3 43537.7 616.048   1
   6  -4   4 243.856 57.6188   1
   6  -4   5 24729.0 485.559   1
   6  -4   6 17129.8 416.951   1
  -6  -4  -7 87172.7 856.542  23
   6  -4   7 90018.2 985.063   1
  -6  -4  -8 13883.9 361.437  23
   6  -4   8 13217.6 383.500   1
  -6  -4  -9 13518.9 375.295  23
  -6  -4  -9 12794.0 363.360  22
  -6  -4 -10 33371.2 610.318  23
  -6  -4 -10 33117.2 604.377  22
  -6  -4 -11-105.752 68.9812  23
  -6  -4 -11 70.5576 41.7142  22
  -6  -4 -12 720.362 109.484  14
  -6  -4 -12 694.813 104.863  23
  -6  -4 -12 617.697 94.2901  22
  -6  -4 -12 623.014 106.143  20
  -6   4 -12 683.512 111.699  13
  -6  -4 -13 70.3722 59.3585  14
  -6   4 -13 67.6577 72.2946  13
  -6  -4 -13 128.103 68.6735  20
  -6  -4 -14 864.957 130.684  14
  -6   4 -14 946.787 134.612  13
  -6  -4 -14 715.834 124.398  20
  -6  -4 -15 2655.82 211.043  14
  -6   4 -15 2418.21 204.225  13
  -6  -4 -15 2689.14 213.255  13
  -6  -4 -15 2514.70 207.391  20
   6   4  16 1833.98 199.271   9
  -6  -4 -16 1433.95 155.777  14
  -6  -4 -16 1502.71 158.989  13
   6   4  17 3742.05 253.562   9
  -6  -4 -17 3439.12 224.843  14
  -6  -4 -17 3718.40 227.642  13
   6   4  18 1762.70 168.560   9
  -6  -4 -18 1770.94 149.315  13
  -6   4 -18 1989.91 149.586  12
  -6  -4 -19 31.0844 42.9244  13
   6   4  19 75.9064 54.0053   9
  -6   4 -19-45.5153 46.7858  12
   6  -5   0 79814.7 814.100   1
   6  -5  -1 7427.99 246.253   1
   6  -5   1 7149.86 251.414   1
   6  -5  -2 5872.09 214.624   1
   6  -5   2 6164.60 239.780   1
   6  -5   3 1212.59 115.633   1
   6  -5   4 39759.5 632.898   1
   6  -5   5 411.277 77.6199   1
   6  -5   6 16114.0 419.209   1
  -6  -5  -7 2685.77 155.714  23
   6  -5   7 2557.16 176.783   1
  -6  -5  -8 411.402 68.9788  23
   6  -5   8 223.544 60.7196   1
  -6  -5  -9 47.9386 41.1889  23
  -6  -5  -9 0.40578 57.4454  22
  -6  -5 -10 22997.6 506.614  23
  -6  -5 -10 21996.8 510.218  22
  -6  -5 -11 799.961 108.299  23
  -6  -5 -11 781.804 106.757  22
  -6  -5 -12 6478.23 315.432  15
  -6  -5 -12 6854.62 319.289  14
  -6   5 -12 6234.59 314.389  13
  -6  -5 -12 6704.51 326.651  20
   6  -5  12 6688.06 349.238  10
  -6  -5 -13 203.092 76.5492  14
  -6   5 -13 313.788 98.8891  13
  -6  -5 -13 335.162 99.4917  20
  -6  -5 -14 191.487 74.3711  14
  -6  -5 -14 263.522 95.5863  20
  -6  -5 -15-61.5665 62.8367  14
  -6  -5 -15-1.74875 61.3402  20
  -6  -5 -16 4392.71 258.948  14
  -6  -5 -16 4150.03 248.426  13
   6   5  17 212.114 91.5342   9
  -6  -5 -17 118.736 74.1639  14
  -6  -5 -17 10.8908 53.7942  13
   6   5  18 441.898 93.4857   9
  -6  -5 -18 458.200 81.5897  13
   6  -6   0 117032. 1047.30   1
   6  -6   1 6509.36 253.655   1
   6  -6  -1 7104.35 256.055   1
   6  -6   2 36787.8 609.407   1
   6  -6  -2 37215.8 567.980   1
   6  -6   3 16532.1 417.262   1
   6  -6   4 2712.26 174.212   1
   6  -6   5 4578.85 231.216   1
   6  -6   6 7867.63 306.200   1
   6  -6   7 14919.5 431.020   1
   6  -6   8 44274.1 759.588   1
  -6  -6  -9 985.393 115.534  22
  -6  -6 -10 39250.8 704.394  22
   6  -6  11 196.463 85.1497  10
  -6  -6 -11 232.145 90.3390  20
  -6  -6 -11 340.690 93.3245  15
  -6  -6 -11 416.082 97.6119  14
   6  -6 -11 125.892 74.2704   7
   6  -6  12 723.316 127.831  10
  -6  -6 -12 709.164 122.190  15
  -6  -6 -12 694.708 111.938  14
  -6  -6 -12 777.694 128.926  20
  -6  -6 -13 100.130 65.7800  14
  -6  -6 -13 142.235 81.8799  20
  -6  -6 -14 8583.92 368.342  14
  -6  -6 -14 8631.56 376.970  20
  -6  -6 -15 7.30556 58.6151  14
  -6  -6 -15 45.9640 61.2178  20
  -6  -6 -16 2545.54 197.421  14
  -6  -6 -16 2516.14 189.980  13
  -6  -6 -16 2792.98 205.971  20
   6   6  17 1379.86 158.631   9
  -6  -6 -17 1167.58 131.522  14
  -6  -6 -17 1052.80 121.217  13
   6   6  18 1265.82 134.755   9
  -6  -6 -18 1151.52 117.609  14
  -6  -6 -18 1079.09 109.376  13
  -6   6 -18 1042.01 107.442  11
  -6  -7   0 2831.81 154.222   4
   6  -7   0 3158.44 181.866   1
   6  -7   1 20060.1 463.580   1
   6  -7  -1 20251.0 449.929   1
   6  -7   2 7611.06 291.705   1
   6  -7  -2 7683.60 276.247   1
   6  -7   3 41441.6 691.031   1
   6  -7   4 3761.70 216.186   1
   6  -7   5 7201.43 301.863   1
   6  -7   6 271.712 78.4958   1
   6  -7   7 18254.9 498.434   1
   6  -7   8 187.362 58.7134   1
  -6  -7  -9 14208.6 425.035  22
   6  -7  10 773.887 127.934  10
  -6  -7 -10 671.305 110.900  15
   6  -7 -10 744.988 115.144   7
   6   7 -10 598.565 100.540  11
  -6  -7 -11 1686.41 168.891  14
  -6  -7 -11 1340.23 159.122  15
   6  -7 -11 1308.44 152.753   7
   6   7 -11 1269.55 140.337  11
  -6  -7 -11 1382.45 160.041  20
   6  -7  11 1179.05 161.869  10
  -6  -7 -12 146.388 67.3808  15
  -6  -7 -12 120.578 69.0706  14
  -6  -7 -12 188.057 81.8019  20
   6  -7  12 153.885 81.2494  10
   6  -7  13 5885.22 334.075  10
  -6  -7 -13 5857.95 311.985  15
  -6  -7 -13 6094.81 310.968  14
  -6  -7 -13 6024.71 318.205  20
  -6  -7 -14 1020.75 138.225  14
  -6  -7 -14 909.176 133.206  20
  -6  -7 -15 532.753 106.823  14
  -6  -7 -15 480.963 96.9162  20
  -6  -7 -16-3.04433 50.9606  14
  -6  -7 -16-34.2616 59.9606  13
  -6  -7 -16 54.6597 60.8725  20
   6   7  17 1358.27 146.100   9
  -6  -7 -17 1231.98 128.261  14
  -6  -7 -17 1286.05 126.928  13
  -6   7 -17 1160.92 114.813  11
   6   7  18 168.596 63.6612   9
  -6  -7 -18 152.406 56.8118  14
  -6  -8   0 5063.03 224.074   4
   6  -8   0 4266.78 226.756   1
  -6  -8   1 5987.21 240.591   4
   6  -8   1 5708.26 266.748   1
   6  -8  -1 5969.02 260.903   1
   6  -8   2 2405.52 176.428   1
   6  -8  -2 2570.46 171.036   1
   6  -8   3 30799.0 630.675   1
   6  -8   4 9011.67 351.477   1
   6  -8   5 2993.36 205.005   1
   6  -8   6 1392.61 148.508   1
   6  -8   7 39389.3 759.065   1
   6  -8   8 206.002 72.7841   1
  -6  -8  -8 183.153 67.3492  22
  -6  -8  -9 8132.03 344.099  15
   6  -8  -9 7459.16 326.051   7
   6  -8   9 8266.88 390.964  10
  -6  -8 -10 1582.68 164.161  15
   6  -8 -10 1139.96 138.303   7
   6  -8  10 1249.37 164.255  10
  -6  -8 -11 550.376 108.801  15
   6  -8 -11 547.190 109.534   7
  -6  -8 -11 616.425 116.613  20
   6  -8  11 585.130 130.246  10
  -6  -8 -12-27.7706 74.8892  15
  -6  -8 -12 43.0561 62.9283  14
  -6  -8 -12-49.5700 61.6299  20
   6  -8  12 39.9462 66.1115  10
  -6  -8 -13 115.945 69.3200  15
  -6  -8 -13 224.846 84.4623  14
   6  -8  13 209.683 78.1090  10
  -6  -8 -14 721.561 116.680  14
  -6  -8 -14 649.507 117.821  20
  -6  -8 -15 3741.05 229.946  14
  -6  -8 -15 3804.70 241.724  20
  -6  -8 -16 83.3891 60.6311  14
  -6  -8 -16-41.2769 55.5207  13
  -6  -8 -16 99.4300 63.7462  20
   6   8  17 2911.52 193.971   9
  -6  -8 -17 2955.17 180.127  14
  -6  -8 -17 2942.53 173.905  13
  -6  -9   0 16282.4 427.353   4
   6  -9   0 15641.4 454.770   1
   6  -9   1 67.7221 48.0078   1
   6  -9  -1 56.3837 45.4063   1
  -6  -9   1 75.4397 43.7384   4
   6  -9   2 2752.41 200.077   1
   6  -9   3 5953.39 297.111   1
   6  -9   4 10063.7 387.465   1
   6  -9   5 231.397 71.9713   1
   6  -9   6 15984.3 499.394   1
   6  -9   7 491.635 97.7378   1
  -6   9  -8 349.213 79.5309  24
   6  -9  -8 309.493 86.3656  16
  -6  -9  -8 324.313 87.6189  15
   6  -9  -8 201.762 66.3842   7
   6  -9   8 326.216 96.0450  10
  -6  -9  -9 605.160 112.336  15
  -6   9  -9 491.282 75.7324  24
   6  -9  -9 567.404 109.424  16
   6  -9  -9 562.618 100.505   7
   6  -9   9 498.323 116.114  10
  -6  -9 -10 6963.49 333.695  15
   6  -9 -10 7114.27 328.600   7
   6  -9  10 7206.73 380.509  10
  -6  -9 -11 26.8265 62.0807  20
  -6  -9 -11-0.86253 66.7028  15
   6  -9 -11 98.5309 75.1483   7
   6  -9  11-53.2213 84.9730  10
   6  -9  12 4549.46 296.245  10
  -6  -9 -12 4448.90 269.952  15
  -6  -9 -12 4793.63 272.582  14
  -6  -9 -12 4622.28 279.298  20
  -6  -9 -13 49.8215 65.1944  15
  -6  -9 -13 59.0043 64.4779  14
  -6  -9 -13 118.010 78.5703  20
   6  -9  13 53.8674 74.1270  10
  -6  -9 -14 986.732 125.446  14
  -6  -9 -14 1070.89 133.679  20
  -6  -9 -15 144.773 61.4714  14
  -6  -9 -15 125.968 66.8225  20
   6   9  16 1471.73 147.535   9
  -6  -9 -16 1283.14 123.317  14
  -6  -9 -16 1381.72 130.593  20
  -6  -9 -16 1290.87 122.061  13
   6 -10   0 41020.3 771.593   1
  -6 -10   1 4337.37 238.162   4
   6 -10   1 4047.09 251.037   1
   6 -10  -1 4060.61 242.742   1
   6 -10   2 3893.40 249.594   1
   6 -10   3 53.0013 62.5506   1
   6 -10   4 4441.06 272.423   1
   6 -10   5 2509.25 209.262   1
   6 -10  -6 141.223 81.6482  16
   6 -10   6 174.966 88.6355  10
   6 -10  -7 1466.58 169.980  16
  -6 -10  -7 1352.43 146.354  15
  -6  10  -7 1529.14 133.509  24
   6 -10  -7 1457.72 150.657   7
   6 -10   7 1435.35 175.046  10
   6 -10  -8 2379.71 204.393  16
  -6 -10  -8 2382.60 195.856  15
  -6  10  -8 1970.18 155.927  24
   6 -10  -8 2193.03 185.521   7
   6 -10   8 1913.41 203.816  10
   6 -10  -9 402.728 106.673  16
  -6 -10  -9 205.323 77.5935  15
  -6  10  -9 329.085 74.9426  24
   6 -10   9 101.980 88.6959  10
   6 -10 -10 3313.38 236.020  16
  -6 -10 -10 3894.51 249.638  15
  -6  10 -10 3454.93 206.727  24
   6 -10  10 3736.18 273.256  10
  -6 -10 -11 189.292 87.6498  15
   6 -10  11 272.707 102.192  10
  -6 -10 -12 603.264 111.041  15
  -6 -10 -12 601.915 106.865  14
  -6 -10 -12 467.394 104.040  20
   6 -10  12 576.892 118.526  10
  -6 -10 -13 148.536 69.5256  15
  -6 -10 -13 108.519 65.1529  14
  -6 -10 -13 63.5996 58.3685  20
   6 -10  13 29.5997 67.5532  10
  -6 -10 -14 1004.40 122.759  14
  -6 -10 -14 1011.26 123.791  20
   6 -10  14 1114.68 133.508  10
  -6 -10 -15 531.930 86.1447  14
  -6 -10 -15 489.449 88.6604  20
  -6 -10 -16 145.502 56.1560  14
  -6 -10 -16 75.2879 46.0712  20
   6 -11   0 3.63826 55.9383   1
   6  11   0-41.9997 79.8758   6
   6 -11  -1 4383.16 269.891  16
  -6 -11   1 4163.31 247.647   4
   6 -11   1 4813.04 282.377   1
   6 -11  -1 4205.17 258.178   1
   6  11   1 4453.44 279.421   6
   6  11  -1 4203.32 271.484   6
   6 -11  -2 1538.85 167.495  16
  -6 -11   2 1522.74 155.345   4
   6 -11   2 1627.45 159.161   8
   6 -11   2 1719.03 174.610   1
   6  11   2 2001.57 194.405   6
   6  11  -2 1674.23 177.506   6
   6 -11  -3 10612.9 423.718  16
   6 -11   3 11042.9 406.493   8
   6  11   3 10901.8 435.914   6
   6  11  -3 10230.9 420.632   6
   6 -11   3 10736.3 427.635  10
   6 -11  -4 7.82198 74.8106  16
   6 -11   4 93.8428 72.8553   8
   6  11  -4 20.0758 72.3260   6
   6 -11   4 91.0813 85.6804  10
   6 -11  -5 94.5916 76.8303  16
   6 -11  -5 36.3099 69.5144  19
   6 -11   5 197.418 87.5599  10
   6 -11  -6 2283.69 207.039  16
   6 -11   6 2250.55 218.055  10
   6 -11  -6 2317.25 196.730  19
  -6  11  -7 5033.88 240.600  24
   6 -11  -7 5150.87 301.892  16
   6 -11   7 5314.44 327.557  10
   6 -11  -7 5257.77 286.015  19
   6 -11  -8 1115.82 150.082  16
  -6 -11  -8 1309.45 150.738  15
  -6  11  -8 1049.97 117.078  24
   6 -11   8 984.829 150.011  10
   6 -11  -9 3580.12 246.799  16
  -6 -11  -9 3393.29 230.210  15
  -6  11  -9 3355.36 205.048  24
   6 -11   9 3882.49 282.946  10
  -6 -11 -10 1514.48 166.296  15
  -6  11 -10 1412.82 138.352  24
   6 -11  10 1495.16 183.099  10
  -6 -11 -11 1033.60 137.198  15
   6 -11  11 1158.07 157.115  10
  -6 -11 -12 1999.01 175.507  15
  -6 -11 -12 1880.56 167.529  14
  -6 -11 -12 1679.48 164.218  20
   6 -11  12 1655.60 178.197  10
  -6 -11 -13 1150.83 124.714  14
  -6 -11 -13 1029.69 127.472  20
  -6 -11 -13 1135.08 134.325  15
  -6 -11 -14 225.216 64.5215  14
  -6 -11 -14 133.773 59.9784  20
  -6 -11 -15 117.650 52.0785  14
  -6 -11 -15 147.752 49.7491  20
   6 -12   0 5466.27 310.206  16
   6  12   0 5420.72 320.914   6
   6 -12  -1 1631.36 177.790  16
   6 -12   1 1750.19 184.297  16
   6  12   1 1694.06 195.060   6
   6  12  -1 1865.80 195.887   6
   6 -12  -2 2370.77 215.774  16
   6 -12   2 2369.88 195.410   8
   6  12   2 2350.18 215.792   6
   6  12  -2 2185.31 206.810   6
   6 -12  -3 5413.13 314.623  16
   6 -12   3 5190.52 284.473   8
   6  12  -3 5438.77 319.233   6
   6 -12   3 5838.30 324.199  10
   6 -12  -4 1847.76 182.968  19
   6 -12   4 1932.47 177.673   8
   6  12  -4 1830.00 190.985   6
   6 -12  -4 1694.98 185.271  16
   6 -12   4 1810.58 196.659  10
   6 -12  -5 423.858 119.433  16
   6 -12  -5 414.137 99.4121  19
   6 -12   5 490.186 102.475   8
   6  12  -5 326.705 99.5674   6
   6 -12   5 254.747 92.9463  10
   6 -12  -6 244.865 78.4092  16
   6 -12   6 252.292 89.3062   8
   6 -12  -6 86.2315 69.8602  19
   6 -12   6 191.075 80.9111  10
   6 -12  -7 2583.81 221.408  16
  -6  12  -7 2230.18 169.547  24
   6 -12   7 2326.95 222.187  10
   6 -12  -7 2563.77 206.282  19
   6 -12  -8 1894.53 189.965  16
  -6 -12  -8 1888.06 172.830  15
  -6  12  -8 1675.65 149.204  24
   6 -12   8 2035.57 212.369  10
   6 -12  -8 1979.67 178.446  19
  -6 -12  -9 546.281 110.273  15
  -6  12  -9 483.250 87.9579  24
   6 -12   9 510.211 119.976  10
   6 -12  10 2637.34 225.680  10
  -6 -12 -10 2450.05 193.578  15
  -6 -12 -11 48.7431 60.0676  15
  -6 -12 -11-14.4778 59.3140  20
  -6 -12 -12 71.5984 59.2277  15
  -6 -12 -12 35.1852 56.1591  14
  -6 -12 -12 7.97172 50.3855  20
  -6 -12 -13-26.5673 57.7900  15
  -6 -12 -13 101.082 58.1443  14
  -6 -12 -13 61.8140 48.7315  20
  -6 -12 -14 990.959 102.042  14
  -6 -12 -14 895.364 101.774  20
   6 -13   0 5122.06 301.575  16
   6  13   0 4810.26 305.297   6
   6 -13  -1 605.173 118.233  16
   6  13   1 491.715 120.513   6
   6  13  -1 584.538 124.265   6
   6 -13  -2 938.750 141.566  16
   6  13  -2 1006.09 152.314   6
   6 -13  -3 1377.77 169.649  16
   6  13  -3 1323.87 171.051   6
   6 -13  -3 1277.86 159.648  19
   6 -13  -4 3799.93 267.739  16
   6  13  -4 3921.90 272.195   6
   6 -13  -4 3446.70 243.848  19
  -6  13  -5 2496.40 178.592  24
   6 -13  -5 2085.66 199.112  16
   6  13  -5 2004.81 193.557   6
   6 -13  -5 1751.42 178.164  19
   6 -13  -6 1932.36 179.229  19
   6 -13  -6 1981.53 194.822  16
  -6  13  -6 2042.52 161.731  24
   6 -13   6 2265.20 192.635   8
   6 -13  -7 745.617 130.813  16
   6 -13   7 838.534 126.590   8
   6 -13  -7 656.416 108.761  19
  -6  13  -7 879.859 111.129  24
   6 -13  -8 271.280 88.2090  16
  -6 -13  -8 328.914 83.1528  15
   6 -13   8 406.652 87.2912   8
   6 -13  -8 284.247 74.8232  19
  -6  13  -8 205.712 66.8389  24
  -6  13  -9 964.089 117.762  24
  -6 -13  -9 1129.27 132.088  15
   6 -13   9 1109.86 134.262   8
   6 -13  -9 1104.93 129.139  19
  -6 -13 -10 1022.61 122.777  15
   6 -13  10 957.350 119.794   8
  -6 -13 -11 112.844 61.0721  15
  -6 -13 -11 19.1900 48.0859  14
   6 -13  11 41.3759 56.4768   8
  -6 -13 -11-36.5095 55.2348  20
  -6 -13 -12 212.778 66.2096  15
  -6 -13 -12 179.300 59.2445  14
   6 -13  12 184.011 61.6529   8
  -6 -13 -12 168.206 59.9943  20
  -6 -13 -13 254.179 66.0572  20
   6 -14   0 116.084 70.3128  16
   6  14   0 237.147 84.0998   6
   6 -14  -1 4993.81 295.937  16
   6  14  -1 4914.40 307.333   6
   6 -14  -1 5245.40 302.103  19
   6 -14  -2 97.8598 82.9418  16
   6  14  -2 221.692 96.9118   6
   6 -14  -2-50.9349 78.7135  19
   6 -14  -3 2551.94 216.408  16
   6  14  -3 2488.09 219.271   6
   6 -14  -3 2217.03 198.898  19
   6 -14  -4 155.808 94.0727  16
   6  14  -4-16.1210 67.4360   6
   6 -14  -4-29.0327 67.9925  19
   6 -14  -5 1766.64 179.512  16
   6  14  -5 2113.16 198.921   6
  -6  14  -5 1975.43 155.861  24
   6 -14  -5 1786.43 174.357  19
   6 -14  -6 555.176 114.496  16
  -6  14  -6 487.365 94.3291  24
   6 -14  -6 486.045 100.869  19
  -6  14  -7 4820.21 242.175  24
   6 -14  -7 5171.80 266.138  19
   6 -14  -8 244.163 79.5407  19
  -6  14  -8 176.400 69.1241  24
  -6 -14  -9 2049.09 158.201  15
   6 -14  -9 2017.94 157.674  19
  -6 -14 -10 1241.81 124.361  15
  -6 -14 -10 1401.14 134.019  20
  -6 -14 -11 89.4419 48.4903  15
  -6 -14 -11 121.670 47.5088  14
  -6 -14 -11 130.138 51.5354  20
   6 -15   0 2618.11 210.011  19
   6 -15  -1 417.717 100.332  16
   6 -15  -1 539.972 113.614  19
   6 -15   1 466.442 109.652  19
   6 -15  -2 126.902 69.6704  16
   6 -15  -2 94.3550 64.3363  19
   6 -15   2 268.084 88.6043  19
   6 -15  -3 538.304 101.248  16
   6 -15  -3 550.193 101.574  19
   6 -15  -4 1452.22 159.100  16
  -6  15  -4 1583.12 134.421  24
   6 -15  -4 1762.01 164.845  19
  -6  15  -5-7.79776 45.9248  24
   6 -15  -5-24.3287 59.8571  19
   6 -15  -5-62.1592 73.6448  16
  -6  15  -6 393.361 79.8346  24
   6 -15  -6 502.033 95.0724  19
  -6  15  -7 238.278 71.1623  24
   6 -15  -7 476.103 88.9022  19
   6 -15  -8 8.79069 46.5858  19
   6 -15  -9 143.189 52.0299  19
  -6  16   0 5597.10 211.617  24
   6 -16   0 6231.40 290.308  19
   6 -16  -1 411.331 91.1702  19
   6 -16   1 471.013 97.6960  19
   6 -16  -2 1578.30 148.782  16
   6 -16   2 1572.03 151.572  19
  -6  16  -2 1468.95 118.977  24
   6 -16  -2 1947.44 164.101  19
   6 -16  -3 14.2312 50.2205  19
   6 -16   3 40.2176 60.6552  19
  -6  16  -3-0.61426 40.9126  24
  -6  16  -4 116.288 48.1595  24
   6 -16  -4 382.135 77.6205  19
   6 -16   4 325.958 79.9726  19
  -6  16  -5-103.502 54.3308  24
   6 -16  -5-14.8763 50.3656  19
  -6  16  -6 116.542 55.4344  24
   6 -16  -6 276.459 67.3073  19
   6 -16  -7-57.4823 53.1412  19
   6 -17   0 159.814 54.2657  19
   6 -17  -1 429.173 78.1159  19
   6 -17   1 500.515 82.7284  19
   6 -17  -2 13.9245 47.6278  19
   6 -17  -3 633.021 85.9717  19
   7   0   0 64.9791 39.1395   1
   7   0   1-26.4686 41.7474   1
   7   0  -1 232.552 54.2173   1
   7   0   2 61519.7 695.567   1
   7   0  -2 61443.5 650.493   1
   7   0  -3-13.4241 37.9828   1
   7   0   3-13.6644 42.1809   1
   7   0   4 28825.0 500.466   1
   7   0   5-38.0577 48.7905   1
   7   0   6 10402.9 317.851   1
   7   0   7 18.4065 40.7196   1
  -7   0  -8 30307.1 535.443  23
  -7   0  -9-16.4771 50.0860  23
  -7   0 -10 456.619 82.4249  23
  -7   0 -11 65.6917 47.3583  23
  -7   0 -12 84.0306 57.9743  13
  -7   0 -12 96.6399 58.5705  23
   7   0  13-57.7337 75.2233   9
  -7   0 -13-50.6696 65.7099  13
   7   0  14 4701.04 300.633   9
  -7   0 -14 5093.12 290.887  13
  -7   0 -15-62.3808 71.4694  13
   7   0  15-102.473 79.3948   9
   7   0  16 1475.35 173.864   9
  -7   0 -16 1552.07 168.642  13
  -7   0 -17-7.38687 54.5804  13
   7   0  17-58.1217 72.9683   9
  -7   0 -18 2652.83 187.315  13
  -7   0 -19-46.5775 44.9953  13
   7  -1   0-1.27507 34.0267   1
   7   1   0 14.6133 38.1121   1
   7  -1   1 9435.69 269.828   1
   7  -1  -1 9166.35 257.849   1
   7   1   1 9483.95 272.369   1
   7   1  -1 9515.46 265.503   1
   7   1  -2 68876.5 700.629   1
   7  -1   2 67628.6 747.350   1
   7  -1  -2 69808.0 689.603   1
   7   1   2 67263.2 739.554   1
   7  -1   3 15478.2 364.792   1
   7   1   3 15920.2 368.626   1
   7  -1   4 25096.8 471.022   1
   7   1   4 24952.0 471.524   1
   7  -1   5 77478.5 844.542   1
   7   1   5 75953.4 835.641   1
   7  -1   6 30092.5 545.378   1
   7   1   6 30816.9 549.205   1
   7  -1   7 6280.23 252.828   1
   7   1   7 6104.10 253.583   1
  -7   1  -8 30551.2 535.022  23
  -7  -1  -8 30103.4 538.906  23
  -7   1  -9 12790.3 368.794  23
  -7  -1  -9 12672.4 368.485  23
  -7   1 -10 19092.0 468.692  23
  -7  -1 -10 19291.5 478.122  23
  -7   1 -11 1.47900 50.5838  23
  -7  -1 -11 3.13519 51.2368  23
   7   1  12 31483.6 741.867   9
  -7   1 -12 33625.0 706.965  13
  -7  -1 -12 33959.0 711.306  13
  -7   1 -12 33693.2 669.672  23
  -7  -1 -12 33818.5 677.145  23
   7  -1  13 594.062 114.979   9
   7   1  13 767.537 132.218   9
  -7  -1 -13 624.872 112.608  14
  -7   1 -13 783.484 126.939  13
  -7  -1 -13 707.005 118.300  13
   7  -1  14 84.0039 68.8189   9
   7   1  14 205.087 94.7097   9
  -7  -1 -14 161.348 76.7270  14
  -7  -1 -14 216.387 80.1666  13
  -7   1 -14 221.408 71.1042  13
   7  -1  15 920.006 140.480   9
   7   1  15 1039.62 152.771   9
  -7   1 -15 1187.01 154.629  13
  -7  -1 -15 1205.75 150.697  13
  -7  -1 -16 16.7669 65.9601  13
   7   1  16-9.60810 76.2923   9
  -7   1 -16 79.0739 72.6618  13
  -7   1 -17 1027.26 132.339  13
  -7  -1 -17 1117.91 137.754  13
   7   1  17 1022.94 138.154   9
  -7  -1 -18-27.8284 49.1308  13
   7   1  18-20.2589 60.2655   9
  -7   1 -18 69.2123 58.4894  13
  -7  -1 -19 508.366 81.9293  13
  -7   1 -19 545.462 80.0879  12
   7   2   0-14.0651 38.9997   1
   7  -2   0-23.6174 40.2224   1
   7  -2   1 46151.0 606.344   1
   7   2   1 46491.9 613.954   1
   7  -2  -1 46498.9 588.080   1
   7  -2   2 9299.35 281.069   1
   7  -2  -2 9543.17 261.494   1
   7   2   2 9024.89 275.673   1
   7  -2   3 5564.96 225.233   1
   7   2   3 5697.80 227.347   1
   7  -2   4 10805.7 314.045   1
   7   2   4 10258.6 308.403   1
   7  -2   5 14824.9 380.196   1
   7   2   5 15015.3 379.569   1
   7   2   6 2311.00 158.663   1
   7  -2   6 2178.12 152.087   1
   7   2   7 934.449 103.898   1
   7  -2   7 784.498 94.6808   1
   7  -2   8-1.13135 56.4316   1
  -7   2  -8 150.636 52.5496  23
  -7   2  -9 6722.40 271.369  23
  -7  -2  -9 6601.95 270.694  23
  -7   2 -10 0.73147 52.7758  23
  -7  -2 -10 45.3047 48.4207  23
  -7   2 -11 14765.9 428.391  23
  -7  -2 -11 15945.8 452.397  23
   7  -2  12-10.3213 63.9739   9
  -7  -2 -12 6.54639 45.5724  14
  -7   2 -12 57.8083 55.1033  13
  -7   2 -12 13.2748 46.3468  23
  -7  -2 -12-93.6013 70.3114  20
   7   2  13 640.825 130.288   9
  -7  -2 -13 435.315 100.237  14
  -7   2 -13 397.483 97.4340  13
  -7  -2 -13 510.302 112.542  13
  -7   2 -14 38.8020 68.7560  13
   7   2  14 46.5346 88.5312   9
  -7  -2 -14 82.6015 57.9941  14
  -7  -2 -14 36.0274 63.3257  13
  -7  -2 -15 1708.80 170.228  14
  -7   2 -15 1964.43 185.583  13
  -7  -2 -15 1860.71 180.409  13
   7   2  15 2124.13 208.771   9
  -7   2 -16 71.9153 64.4837  13
   7   2  16 118.747 69.6933   9
  -7  -2 -16 69.6437 62.8234  13
   7   2  17 192.788 79.8760   9
  -7   2 -17 177.870 73.9261  13
  -7  -2 -17 277.762 71.9425  13
   7   2  18 245.093 75.3280   9
  -7  -2 -18 214.981 70.1660  13
  -7  -2 -19-2.49910 42.7421  13
   7   2  19-59.3782 53.3695   9
  -7   2 -19-44.7855 41.8428  12
   7  -3   0 49.0349 43.4652   1
   7  -3   1 2168.85 139.672   1
   7  -3  -1 2276.57 136.658   1
   7  -3   2 9604.30 293.375   1
   7  -3  -2 9860.67 273.685   1
   7  -3   3 64521.5 771.501   1
   7  -3   4 2486.63 161.594   1
   7  -3   5 271908. 1666.99   1
   7  -3   6 5724.86 252.082   1
  -7   3  -7 924.220 94.4329  23
   7  -3   7 748.523 99.2070   1
   7  -3   8 358.460 79.6950   1
  -7   3  -8 168.894 46.6314  23
  -7  -3  -8 443.344 77.2063  23
  -7   3  -9 18921.9 445.273  23
  -7  -3  -9 18982.3 461.560  23
  -7  -3  -9 18041.3 427.984  22
  -7   3 -10 222.582 61.1808  23
  -7  -3 -10 17.4666 54.3371  23
  -7  -3 -10 157.065 54.6642  22
  -7  -3 -11 1291.84 135.337  23
  -7   3 -12 1033.13 136.568  13
  -7  -3 -12 798.737 119.217  14
  -7  -3 -12 861.228 125.082  20
  -7  -3 -13 7318.81 336.272  14
  -7   3 -13 8378.72 369.148  13
  -7  -3 -13 7655.74 354.750  20
   7   3  14 1658.64 195.152   9
  -7  -3 -14 1267.30 148.552  14
  -7   3 -14 1452.86 163.863  13
  -7  -3 -14 1441.75 163.079  13
   7   3  15 7320.38 373.452   9
  -7  -3 -15 7095.25 333.042  14
  -7   3 -15 6752.40 333.190  13
  -7  -3 -15 7412.00 345.280  13
   7   3  16 10.7904 67.0915   9
  -7  -3 -16-36.7716 62.6165  14
  -7   3 -16-81.6250 78.0987  13
  -7  -3 -16-31.9082 70.6508  13
   7   3  17 1604.64 169.418   9
  -7  -3 -17 1752.36 165.705  13
   7   3  18-29.6786 59.2790   9
  -7  -3 -18-14.7399 49.6247  13
  -7  -3 -19 1608.14 129.567  13
   7  -4   0 28.5458 41.0904   1
   7  -4  -1 7582.02 256.313   1
   7  -4   1 7283.75 259.829   1
   7  -4   2 30251.5 536.051   1
   7  -4  -2 29667.7 492.861   1
   7  -4   3 393.455 70.5275   1
   7  -4   4 14283.6 390.989   1
   7  -4   5 39290.2 657.352   1
   7  -4   6 5370.06 250.149   1
   7  -4   7 186.717 66.8062   1
  -7  -4  -8 13136.1 367.062  23
   7  -4   8 12746.9 398.948   1
  -7  -4  -9 5087.30 243.725  23
  -7  -4  -9 4750.70 229.123  22
  -7  -4 -10-33.4012 60.7053  23
  -7  -4 -10-45.3799 52.8482  22
   7  -4 -11 5334.98 282.125   7
  -7  -4 -11 5642.41 269.237  23
  -7  -4 -11 5385.55 261.628  22
  -7  -4 -12 2623.71 200.300  14
  -7   4 -12 2366.96 199.252  13
  -7  -4 -12 2643.76 210.507  20
   7  -4  12 2462.49 218.836  10
  -7  -4 -13 97.4372 68.4126  20
  -7  -4 -13 86.8882 70.8011  14
  -7   4 -13 57.5093 56.9091  13
  -7   4 -14-26.8873 68.5108  13
  -7  -4 -14 40.2658 60.0400  14
  -7  -4 -14 24.0494 71.6189  20
   7   4  15 1343.68 182.801   9
  -7  -4 -15 1605.85 163.177  14
  -7   4 -15 1324.34 153.507  13
  -7  -4 -15 1120.79 135.869  13
   7   4  16 132.059 73.1036   9
  -7  -4 -16 42.8337 63.3640  14
  -7  -4 -16 10.0379 68.6371  13
   7   4  17 46.5404 64.4479   9
  -7  -4 -17-50.2543 53.1720  13
   7   4  18 926.774 119.698   9
  -7  -4 -18 1189.12 121.802  13
  -7   4 -18 1035.88 103.493  12
   7  -5   0-2.60083 42.8746   1
   7  -5   1 3758.26 196.994   1
   7  -5  -1 3992.14 195.908   1
   7  -5   2 158546. 1273.45   1
   7  -5  -2 160551. 1190.25   1
   7  -5   3 10143.9 331.791   1
   7  -5   4 41146.5 681.674   1
   7  -5   5 108.372 54.9332   1
   7  -5   6 6515.78 286.098   1
  -7  -5  -7 5977.18 240.370  23
   7  -5   7 5322.21 264.949   1
  -7  -5  -8 8239.05 295.683  23
   7  -5   8 7805.09 324.781   1
  -7  -5  -9 100.481 52.9867  23
  -7  -5  -9 96.2284 48.3756  22
  -7  -5 -10 24168.6 542.852  23
  -7  -5 -10 23197.3 539.381  22
  -7  -5 -11 2630.46 195.538  14
  -7   5 -11 2850.92 214.723  13
   7  -5  11 2411.51 214.281  10
   7  -5 -11 2762.23 210.607   7
  -7  -5 -11 2685.08 208.815  20
  -7  -5 -12 19817.1 541.828  14
  -7   5 -12 21113.6 577.626  13
  -7  -5 -12 20676.7 573.065  20
   7  -5  12 19692.3 600.164  10
  -7  -5 -13 909.606 128.808  14
  -7  -5 -13 1089.02 141.821  20
  -7  -5 -14 424.013 91.3892  14
  -7  -5 -14 367.951 95.8472  20
  -7  -5 -15 99.4849 63.2400  14
  -7  -5 -15 87.2150 59.5824  13
  -7  -5 -15 43.9815 58.1258  20
   7   5  16 247.045 99.9694   9
  -7  -5 -16 166.409 73.3772  14
  -7  -5 -16 221.930 76.4091  13
   7   5  17 87.3006 73.2006   9
  -7  -5 -17 26.4518 52.6421  14
  -7  -5 -17-28.8383 49.3389  13
  -7  -5 -18 34.2011 48.0410  13
   7   5  18 49.7380 58.0994   9
   7  -6   0 196.781 54.3042   1
   7  -6   1 362.810 70.1260   1
   7  -6  -1 291.784 65.2015   1
   7  -6   2 36800.9 641.659   1
   7  -6  -2 35415.3 588.694   1
   7  -6   3 760.455 100.679   1
   7  -6   4 6975.38 293.643   1
   7  -6   5 85.2729 48.4386   1
   7  -6   6 110.782 64.6114   1
   7  -6   7 877.835 129.398   1
   7  -6   8 15568.8 472.466   1
  -7  -6  -9 3335.63 206.951  22
   7  -6  10 592.220 120.613  10
  -7  -6 -10 394.919 92.4739  15
   7  -6 -10 553.232 111.748   7
  -7  -6 -10 570.506 106.240  20
  -7  -6 -11 5442.17 292.525  15
  -7  -6 -11 5496.28 283.423  14
   7  -6 -11 5689.47 299.732   7
  -7  -6 -11 5782.02 303.987  20
   7  -6  11 5646.07 329.249  10
  -7  -6 -12 1673.70 167.240  14
  -7  -6 -12 1536.29 164.579  20
   7  -6  12 1720.79 188.127  10
  -7  -6 -13 255.778 87.3362  14
  -7  -6 -13 103.924 70.7746  20
   7  -6  13 16.5328 71.2928  10
  -7  -6 -14-8.14997 64.8427  14
  -7  -6 -14 5.62642 61.5194  20
   7   6  15 291.847 105.948   9
  -7  -6 -15 220.919 70.8274  14
  -7  -6 -15 316.008 85.1423  20
   7   6  16 84.7847 86.6069   9
  -7  -6 -16 54.6209 55.9370  14
  -7  -6 -16 53.4669 70.3757  13
   7   6  17 141.895 68.3966   9
  -7  -6 -17-23.6977 55.7903  14
  -7  -6 -17 102.426 56.8997  13
   7   6  18 214.048 64.0054   9
  -7  -6 -18 277.110 66.1805  13
   7  -7   0-3.45942 51.7401   1
   7  -7   1 6768.07 286.881   1
   7  -7  -1 6739.56 276.008   1
   7  -7   2 12761.9 397.085   1
   7  -7   3 8719.84 334.468   1
   7  -7   4 9185.86 350.016   1
   7  -7   5 99263.6 1167.08   1
   7  -7   6 4300.72 252.657   1
   7  -7   7-28.3738 50.1043   1
   7  -7   8 598.555 108.198   1
   7  -7  -9 11834.8 414.006   7
  -7  -7  -9 12261.6 407.367  22
   7  -7   9 11220.3 453.031  10
   7  -7  10 1014.39 148.266  10
  -7  -7 -10 890.132 132.495  15
   7  -7 -10 865.817 129.648   7
  -7  -7 -10 978.394 131.581  20
   7  -7  11 459.164 116.462  10
  -7  -7 -11 694.341 119.724  15
  -7  -7 -11 560.881 107.429  14
   7  -7 -11 417.624 91.1091   7
  -7  -7 -11 431.094 98.1288  20
  -7  -7 -12 1949.60 177.634  15
  -7  -7 -12 2018.10 181.040  14
  -7  -7 -12 1889.94 186.050  20
   7  -7  12 1834.57 197.899  10
  -7  -7 -13 5997.48 300.380  14
  -7  -7 -13 5654.30 304.586  20
   7  -7  13 5700.97 325.995  10
  -7  -7 -14 318.352 80.0901  14
  -7  -7 -14 457.229 104.193  20
   7   7  15 4613.25 281.992   9
  -7  -7 -15 4788.34 257.545  14
  -7  -7 -15 4781.69 265.110  20
   7   7  16 150.875 74.4962   9
  -7  -7 -16-8.56959 50.3745  14
  -7  -7 -16 77.5548 58.0499  13
   7   7  17 1036.19 125.324   9
  -7  -7 -17 929.942 107.190  14
  -7  -7 -17 816.548 98.9139  13
   7  -8   0-2.08314 54.1283   1
   7  -8  -1 15901.9 444.262   1
   7  -8   1 15753.2 456.362   1
   7  -8   2-2.83689 52.2408   1
   7  -8   3 7877.45 333.150   1
   7  -8   4 2332.58 189.574   1
   7  -8   5 9880.37 386.967   1
   7  -8   6 14.3362 51.6097   1
   7  -8   7 80.0784 54.9208   1
   7  -8  -8 1465.31 152.535   7
   7  -8   8 1644.35 169.873   1
   7  -8   8 1630.42 180.595  10
  -7  -8  -9 1923.27 177.073  15
   7  -8  -9 1970.68 179.803   7
   7  -8   9 1954.48 202.281  10
  -7  -8 -10 980.247 134.479  15
   7  -8 -10 889.038 129.961   7
  -7  -8 -10 958.255 137.395  20
   7  -8  10 1035.19 156.607  10
  -7  -8 -11 2887.83 218.717  15
  -7  -8 -11 2958.56 213.563  14
   7  -8 -11 2729.05 210.739   7
  -7  -8 -11 2767.14 218.031  20
   7  -8  11 3026.35 249.178  10
  -7  -8 -12 1179.10 149.670  15
  -7  -8 -12 901.862 123.246  14
  -7  -8 -12 967.975 135.739  20
   7  -8  12 1052.39 158.466  10
  -7  -8 -13 94.7230 70.0211  14
  -7  -8 -13 13.4940 63.4645  20
   7  -8  13 81.9624 77.1296  10
  -7  -8 -14 90.2378 61.4352  14
  -7  -8 -14 42.4266 60.1333  20
   7  -8  14 64.2853 63.3263  10
   7   8  15 1388.54 158.299   9
  -7  -8 -15 1093.55 124.064  14
  -7  -8 -15 1030.13 124.700  20
   7   8  16 524.935 95.3211   9
  -7  -8 -16 443.738 83.1871  14
  -7  -8 -16 352.514 70.7851  13
   7  -9   0-101.261 75.1853   1
   7  -9   1 794.911 112.115   1
   7  -9  -1 968.106 119.633   1
   7  -9   2 19826.0 543.230   1
   7  -9   3 21181.9 571.293   1
   7  -9   4 27.2985 55.8745   1
   7  -9   5 16110.0 510.332   1
   7  -9  -6 976.013 131.879  16
   7  -9   6 1061.61 141.614   1
   7  -9   6 1229.49 155.315  10
   7  -9  -7 1341.28 157.943  16
  -7   9  -7 1835.10 145.315  24
   7  -9  -7 1374.79 146.954   7
   7  -9   7 1309.38 167.507  10
  -7   9  -8 6632.85 264.918  24
   7  -9  -8 7551.97 352.879  16
   7  -9   8 7661.37 381.299  10
   7  -9  -8 7570.97 336.910   7
  -7  -9  -9 1993.98 181.265  15
   7  -9  -9 2009.29 184.521   7
   7  -9   9 1999.72 208.013  10
  -7  -9 -10 4319.69 263.952  15
   7  -9 -10 4156.71 252.506   7
   7  -9  10 4100.57 288.993  10
  -7  -9 -11 1095.02 140.057  15
  -7  -9 -11 1408.70 150.667  14
   7  -9 -11 1404.83 154.854   7
  -7  -9 -11 1474.67 165.614  20
   7  -9  11 1333.63 169.933  10
  -7  -9 -12 8680.91 365.169  15
  -7  -9 -12 8885.75 360.101  14
  -7  -9 -12 8858.56 374.935  20
   7  -9  12 8583.24 398.814  10
  -7  -9 -13 2382.95 189.326  14
  -7  -9 -13 2640.36 203.740  20
   7  -9  13 2543.28 212.866  10
   7   9  14 223.409 82.8077   9
  -7  -9 -14 36.5253 51.3690  14
  -7  -9 -14 112.889 59.6173  20
   7  -9  14 173.859 79.0618  10
   7   9  15 173.306 73.1443   9
  -7  -9 -15 224.099 61.7613  14
  -7  -9 -15 146.483 60.8315  20
   7   9  16 35.4149 57.9119   9
  -7  -9 -16 6.51184 43.1435  14
  -7  -9 -16 41.7355 45.5317  13
   7 -10   0 100.891 75.6244   1
   7 -10   1 140.756 63.8665   1
   7 -10  -1 184.167 68.4224   1
   7 -10   2 15374.7 500.831   1
   7 -10   3 466.615 97.9190   1
   7 -10  -4 3791.57 256.575  16
   7 -10   4 3639.48 239.760   8
   7 -10   4 3215.00 241.198   1
   7  10  -4 3553.71 242.332   6
   7 -10   4 3689.14 255.117  10
   7 -10  -5 2480.56 212.698  16
   7 -10   5 2730.56 230.163  10
   7 -10  -5 2590.28 204.012  19
   7 -10  -6 5938.12 318.824  16
  -7  10  -6 6855.75 268.185  24
   7 -10   6 6267.74 347.325  10
   7 -10  -7-55.8316 79.0518  16
   7 -10  -7 62.3366 69.9301   7
   7 -10   7 60.7852 79.6787  10
   7 -10  -8 1194.41 155.784  16
  -7  10  -8 1209.28 124.119  24
   7 -10  -8 1107.04 138.231   7
   7 -10   8 1138.25 165.237  10
   7 -10  -9 25.8942 70.3490  16
  -7 -10  -9 59.6972 56.7469  15
  -7  10  -9 48.2062 54.1084  24
   7 -10  -9 67.4813 62.3934   7
   7 -10   9-29.4937 70.6155  10
  -7 -10 -10 70.9134 69.2606  15
   7 -10 -10 112.524 69.2561   7
   7 -10  10-9.29303 73.6995  10
  -7 -10 -11 180.520 79.6530  15
  -7 -10 -11 134.142 65.4528  14
  -7 -10 -11 132.823 77.6970  20
   7 -10  11 2.99117 72.7525  10
  -7 -10 -12 96.2601 68.8589  15
  -7 -10 -12 154.650 63.0000  14
  -7 -10 -12 213.623 73.6055  20
   7 -10  12 170.809 87.6011  10
  -7 -10 -13 639.072 97.8864  14
  -7 -10 -13 772.395 114.389  20
   7 -10  13 696.858 120.709  10
  -7 -10 -14 900.406 109.309  14
  -7 -10 -14 764.686 106.889  20
   7 -10  14 848.402 115.872  10
  -7 -10 -15 11.1732 47.0231  14
  -7 -10 -15 33.0395 40.9785  20
   7 -11   0 61.2635 75.5461  16
   7 -11   0-25.3423 68.5274   8
   7 -11  -1 2910.49 229.852  16
   7 -11   1 2840.20 225.321  16
   7 -11  -1 3118.79 224.001   8
   7 -11   1 2895.06 218.152   8
   7  11  -1 3073.36 242.444   6
   7 -11  -2 9879.24 413.729  16
   7 -11   2 10331.6 410.249  16
   7 -11  -2 10385.2 397.295   8
   7 -11   2 10574.4 404.943   8
   7  11  -2 9841.54 418.703   6
   7 -11  -3 13.0380 66.6914  16
   7 -11   3 48.6083 60.9734   8
   7  11  -3 25.4286 70.5249   6
   7 -11  -4 4768.26 295.795  16
   7 -11   4 4860.77 285.516   8
   7  11  -4 4752.35 289.908   6
   7 -11   4 4688.74 296.692  10
   7 -11  -5 3741.51 260.821  16
   7 -11  -5 3541.48 242.466  19
   7 -11   5 3740.89 251.242   8
   7 -11   5 3825.08 271.867  10
   7 -11  -6 1569.43 173.757  16
   7 -11   6 1714.86 174.360   8
   7 -11   6 1598.83 185.590  10
   7 -11  -6 1609.17 167.958  19
   7 -11  -7 3096.79 238.309  16
  -7  11  -7 2611.73 173.910  24
   7 -11  -7 2961.48 213.865   7
   7 -11   7 2786.95 239.742  10
   7 -11  -8 2127.87 195.475  16
  -7  11  -8 1922.45 156.317  24
   7 -11  -8 2206.89 184.701   7
   7 -11   8 1802.47 194.863  10
   7 -11  -9 1923.58 183.687  16
  -7 -11  -9 1905.96 174.812  15
  -7  11  -9 1830.50 150.457  24
   7 -11   9 1977.23 200.424  10
   7 -11  -9 2090.78 178.224   7
  -7 -11 -10 4069.04 245.290  15
  -7  11 -10 3737.68 207.702  24
   7 -11  10 3631.60 265.188  10
  -7 -11 -11 1558.26 157.455  15
  -7 -11 -11 1563.95 160.765  20
   7 -11  11 1508.87 174.096  10
  -7 -11 -12 5333.35 266.767  15
  -7 -11 -12 5312.46 258.112  14
  -7 -11 -12 5109.83 268.463  20
   7 -11  12 4981.94 284.890  10
  -7 -11 -13 48.6810 55.3398  14
  -7 -11 -13 96.3821 59.3606  20
   7 -11  13-51.9934 55.4896  10
  -7 -11 -14 47.6059 41.6491  14
  -7 -11 -14 49.1385 50.0477  20
   7 -12   0 2.19134 71.0666  16
   7 -12   0-17.0411 62.3369   8
   7 -12   1 1414.84 166.467  16
   7 -12  -1 1315.52 166.535  16
   7 -12  -1 1409.93 156.990   8
   7 -12   1 1174.10 147.076   8
   7  12  -1 950.628 139.912   6
   7 -12  -2-57.2607 87.3796  16
   7 -12   2 20.6416 76.6089  16
   7 -12  -2 123.742 87.2381   8
   7 -12   2-0.99840 64.1909   8
   7  12  -2-69.3006 97.8532   6
   7 -12  -3 609.067 119.852  16
   7 -12   3 610.129 115.511   8
   7  12  -3 657.373 120.563   6
   7 -12  -4 1004.37 150.580  16
   7 -12   4 852.187 126.796   8
   7  12  -4 883.091 139.957   6
   7 -12  -4 749.554 123.043  19
   7 -12   4 1046.78 155.924  10
   7 -12  -5 1833.90 189.730  16
   7 -12   5 1882.61 179.935   8
   7 -12   5 1749.92 192.090  10
   7 -12  -5 1824.95 177.672  19
   7 -12  -6 71.1678 71.1502  16
   7 -12   6 42.9384 62.6156   8
   7 -12  -6-46.3932 68.9919  19
   7 -12   6-79.1444 83.3155  10
   7 -12  -7 502.021 105.272  16
   7 -12   7 886.509 134.333   8
  -7  12  -7 766.769 106.897  24
   7 -12  -7 676.150 113.659  19
   7 -12   7 663.802 129.710  10
  -7  12  -8 14.8697 53.8254  24
   7 -12  -8 131.665 62.4715  16
   7 -12   8-62.8904 73.2763   8
   7 -12   8 103.294 81.1256  10
   7 -12  -9 557.520 108.714  16
   7 -12   9 507.620 102.060   8
  -7  12  -9 569.755 87.3225  24
   7 -12   9 553.519 123.073  10
  -7 -12 -10-24.8404 63.5282  15
  -7 -12 -10 22.2975 58.5482  20
   7 -12  10-35.6964 67.7592  10
  -7 -12 -11 1572.46 147.947  15
  -7 -12 -11 1724.34 159.663  20
  -7 -12 -12 20.7524 43.6125  14
  -7 -12 -12 1.63541 48.2912  20
  -7 -12 -13 51.2510 45.5570  14
   7 -12  13 68.3579 53.4760   8
  -7 -12 -13-70.0506 51.6546  20
   7 -13   0 2.63536 78.9142  16
   7 -13  -1 236.495 85.4999  16
   7 -13   1 349.961 84.1075   8
   7 -13  -2 406.203 112.795  16
   7 -13   2 217.340 77.2832   8
   7 -13  -3 2074.19 203.373  16
   7 -13   3 2173.53 190.676   8
   7 -13  -3 1973.61 187.354  19
   7 -13  -4 4205.88 274.521  16
   7 -13   4 4229.34 260.423   8
   7 -13  -4 4434.46 269.277  19
   7 -13  -5 6575.81 340.347  16
   7 -13   5 6980.79 327.366   8
   7 -13  -5 6684.46 323.880  19
  -7  13  -5 6079.41 258.297  24
   7 -13  -6 2919.12 225.431  16
   7 -13   6 3507.99 232.336   8
  -7  13  -6 3135.18 193.160  24
   7 -13  -6 2752.98 209.030  19
   7 -13  -7-2.25950 67.2897  16
   7 -13   7-7.74622 57.8761   8
   7 -13  -7 80.4741 64.0721  19
  -7  13  -7-14.3557 54.1317  24
   7 -13  -8 393.722 94.5999  16
   7 -13   8 471.273 95.4566   8
  -7  13  -8 336.098 79.7960  24
   7 -13   9 1038.56 124.129   8
  -7  13  -9 909.095 105.111  24
   7 -13  10 189.709 66.2014   8
  -7 -13 -10 170.622 64.1032  20
  -7 -13 -11 90.2455 53.6683  15
   7 -13  11 15.2312 45.4701   8
  -7 -13 -11 130.475 57.4124  20
   7 -13  12 11.9787 39.9861   8
  -7 -13 -12-23.1103 47.8106  20
   7 -14   0-42.9464 84.5140  16
   7 -14  -1 338.273 94.9590  16
   7 -14  -1 451.586 106.135  19
   7 -14  -2 847.080 130.958  19
   7 -14  -2 723.034 124.126  16
   7 -14  -3 341.377 90.8491  16
   7 -14  -3 513.212 108.647  19
   7 -14  -4 1332.32 157.782  16
  -7  14  -4 1763.21 149.806  24
   7 -14  -4 1301.18 149.003  19
   7 -14  -5 1105.38 135.611  19
  -7  14  -5 1118.67 120.166  24
   7 -14  -6 103.400 66.1580  16
   7 -14   6 105.834 58.8510   8
  -7  14  -6 50.5533 51.3980  24
   7 -14  -6-3.80600 60.5327  19
   7 -14  -7-91.8336 70.3393  16
   7 -14   7-8.99673 54.6006   8
  -7  14  -7-146.783 61.6762  24
   7 -14  -7-27.5055 54.2098  19
   7 -14   8 818.264 104.309   8
  -7  14  -8 748.390 98.5832  24
   7 -14  -8 721.060 100.857  19
   7 -14   9 264.122 63.9114   8
  -7 -14  -9 245.253 69.1314  20
   7 -14  10 2.84031 42.3320   8
  -7 -14 -10 20.7535 45.3332  20
   7 -15   0 56.9539 71.8972  19
   7 -15  -1 1123.25 139.965  16
   7 -15   1 1226.89 149.083  19
   7 -15  -1 1218.24 147.037  19
   7 -15  -2 3940.15 242.184  16
   7 -15  -2 4186.94 249.820  19
  -7  15  -3 2038.42 145.549  24
   7 -15  -3 1793.47 166.054  16
   7 -15  -3 2007.03 173.678  19
   7 -15  -4 130.653 63.7828  16
  -7  15  -4 246.004 66.5878  24
   7 -15  -4 183.967 71.1012  19
   7 -15  -5 209.233 75.0778  16
  -7  15  -5 88.2065 51.6802  24
   7 -15  -5 193.416 66.2107  19
  -7  15  -6-33.0228 47.7814  24
   7 -15  -6 5.29906 52.0232  19
  -7  15  -7 10.9750 41.9585  24
   7 -15  -7 21.8651 48.2542  19
   7 -15  -8 362.545 71.5623  19
  -7  16   0 912.289 95.7177  24
   7 -16   0-103.272 62.5513  19
   7 -16  -1 229.011 70.6120  19
   7 -16   1 80.2637 61.9789  19
   7 -16  -2 777.392 104.585  16
  -7  16  -2 1021.08 97.2108  24
   7 -16  -2 962.871 116.076  19
   7 -16   2 776.428 104.346  19
  -7  16  -3-0.40604 39.4421  24
   7 -16  -3 32.2665 52.6815  19
   7 -16  -4 97.6738 56.4572  19
   7 -16   4 57.3251 50.5225  19
  -7  16  -4 60.4995 43.3483  24
  -7  16  -5 127.553 46.6569  24
   7 -16  -5 120.933 47.7132  19
   7 -16   5 128.050 60.3348  19
  -7  16  -6-162.364 50.8035  24
   8   0   0 15045.4 365.601   1
   8   0  -1 35.3341 39.1851   1
   8   0   1 146.621 50.6871   1
   8   0   2 44959.3 651.636   1
   8   0  -2 45318.5 614.833   1
   8   0   3-26.5783 46.8769   1
   8   0   4 21165.2 467.080   1
   8   0   5 39.4286 41.7091   1
   8   0   6 81258.1 960.854   1
   8   0   7 195.502 64.2814   1
  -8   0  -8 36036.8 613.873  23
   8   0   8 36176.0 667.089   1
  -8   0  -9 91.6488 52.6861  23
  -8   0 -10 2624.24 185.808  23
  -8   0 -11-62.9157 62.8122  23
  -8   0 -12 3606.19 244.342   5
   8   0  12 3578.70 263.355   9
  -8   0 -12 3895.92 249.745  13
  -8   0 -13-22.9476 79.3542   5
   8   0  13-12.7320 73.6636   9
  -8   0 -13 17.5051 64.4864  13
   8   0  14 3495.36 259.855   9
  -8   0 -14 3624.11 244.006  13
   8   0  15-7.67328 65.4095   9
  -8   0 -15 88.4898 66.8573  13
   8   0  16 20368.1 586.764   9
  -8   0 -16 20390.7 549.425  13
  -8   0 -17-33.4716 56.3289  13
   8   0  17-48.2677 63.6138   9
  -8   0 -18 905.757 108.721  13
   8  -1   0 45645.3 631.025   1
   8   1   0 45300.9 639.916   1
   8  -1   1 3169.60 173.015   1
   8  -1  -1 3301.25 168.842   1
   8   1   1 2808.11 164.157   1
   8   1  -1 3276.25 170.397   1
   8   1  -2 983.940 96.1015   1
   8  -1   2 995.256 103.636   1
   8  -1  -2 982.435 95.5501   1
   8   1   2 1116.49 108.241   1
   8  -1   3 1527.25 127.037   1
   8   1   3 1297.22 118.158   1
   8  -1   4 23632.9 494.196   1
   8   1   4 21818.5 473.470   1
   8  -1   5 2167.79 156.477   1
   8   1   5 2117.31 155.856   1
   8  -1   6 19642.9 473.122   1
   8   1   6 19656.3 472.170   1
   8   1   7 844.131 107.453   1
   8  -1   7 970.464 111.230   1
  -8   1  -8 104.386 53.9758  23
   8  -1   8 57.4760 52.7370   1
  -8   1  -9 3183.41 193.866  23
  -8  -1  -9 3078.19 191.794  23
  -8   1 -10 3661.74 214.429  23
  -8  -1 -10 3812.50 226.069  23
   8   1  11 3185.91 240.433   9
  -8   1 -11 3011.94 204.236  23
  -8  -1 -11 3082.55 208.241  23
  -8   1 -12 66.8124 59.6874   5
   8  -1  12-63.2273 73.7191   9
   8   1  12 62.0290 63.2461   9
  -8   1 -12 109.786 71.8950  13
  -8  -1 -12 2.23330 69.6196  13
  -8   1 -13 52.9457 75.4946   5
   8  -1  13 70.8523 69.7195   9
  -8  -1 -13 258.107 92.2165   5
   8   1  13 49.5371 68.0684   9
  -8   1 -13 147.130 65.6483  13
  -8  -1 -13 184.593 77.2307  13
  -8  -1 -14 1029.53 135.705   5
   8  -1  14 1205.48 163.442   9
   8   1  14 870.371 143.054   9
  -8  -1 -14 1323.82 155.482  13
  -8   1 -14 1120.66 138.017  13
   8  -1  15 477.229 108.426   9
   8   1  15 376.024 102.346   9
  -8   1 -15 477.885 98.7984  13
  -8  -1 -15 457.789 110.251  13
   8  -1  16 437.941 100.186   9
   8   1  16 404.283 100.185   9
  -8   1 -16 595.639 107.253  13
  -8  -1 -16 524.495 109.033  13
   8   1  17 67.8442 59.8349   9
  -8   1 -17 53.4663 50.1125  13
  -8  -1 -17 35.6048 55.5807  13
  -8  -1 -18 1.95406 45.1477  13
   8   1  18-45.1480 57.8596   9
  -8   1 -18 19.8851 45.5154  13
   8  -2   0 1070.70 104.880   1
   8   2   0 1008.29 106.618   1
   8   2   1 121804. 1078.00   1
   8  -2  -1 122014. 1033.16   1
   8   2   2 5840.17 243.426   1
   8  -2   2 6047.36 245.981   1
   8  -2  -2 5866.81 223.398   1
   8   2   3 26139.4 517.189   1
   8  -2   3 25964.1 517.555   1
   8   2   4 1861.53 144.424   1
   8  -2   4 1675.79 140.190   1
   8   2   5 3283.56 194.036   1
   8  -2   5 3041.35 188.852   1
   8   2   6 12196.8 375.356   1
   8  -2   6 12932.8 392.512   1
   8  -2   7 213.598 65.0882   1
   8  -2   8 8379.49 331.079   1
  -8   2  -8 8426.82 298.530  23
  -8  -2  -8 8709.24 309.205  23
  -8   2  -9 66547.8 876.039  23
  -8  -2  -9 67568.4 890.180  23
  -8   2 -10 78.8119 54.0823  23
  -8  -2 -10 129.996 54.2408  23
  -8   2 -11 5379.56 295.053   5
   8  -2  11 4705.48 287.519   9
   8   2  11 5199.10 305.320   9
  -8   2 -11 5316.83 281.264  13
  -8   2 -11 5299.97 264.890  23
  -8  -2 -11 5345.29 270.689  23
  -8  -2 -11 5026.70 271.131  20
   8  -2  11 5068.70 299.979  10
  -8   2 -12 1599.60 171.214   5
   8  -2  12 1365.11 167.377   9
   8   2  12 1361.97 165.589   9
  -8   2 -12 1837.94 174.666  13
   8  -2  12 1839.22 187.281  10
  -8   2 -13 17047.6 522.650   5
   8  -2  13 16491.0 548.255   9
   8   2  13 17214.2 574.359   9
  -8  -2 -13 17108.6 503.450  14
  -8   2 -13 17032.2 517.326  13
  -8  -2 -13 16817.4 521.725  13
  -8  -2 -14 135.043 66.3587   5
   8   2  14 141.015 76.9759   9
  -8  -2 -14 177.531 77.2513  14
  -8  -2 -14 144.447 74.6156  13
  -8   2 -14 67.9948 58.6493  13
   8   2  15 3218.65 252.578   9
  -8   2 -15 3478.21 237.633  13
  -8  -2 -15 3294.22 229.448  13
   8   2  16 2182.48 200.791   9
  -8   2 -16 2169.25 183.350  13
  -8  -2 -16 2426.22 194.656  13
   8   2  17 82.9275 67.2747   9
  -8   2 -17 202.355 68.6694  13
  -8  -2 -17 133.697 62.6143  13
  -8  -2 -18 81.9478 54.1374  13
   8   2  18 84.2994 53.8017   9
   8  -3   0 5430.08 228.455   1
   8  -3   1 8886.15 299.136   1
   8  -3  -1 8776.24 286.770   1
   8  -3  -2 1791.44 128.649   1
   8  -3   2 1615.18 131.686   1
   8  -3   3 3718.32 202.263   1
   8  -3   4 594.506 89.3072   1
   8  -3   5 161.232 60.3200   1
   8  -3   6 16169.8 447.909   1
   8  -3   7 5125.78 258.222   1
  -8   3  -8 299.012 62.9189  23
   8  -3   8 205.336 57.7753   1
  -8  -3  -8 324.968 72.2454  23
  -8  -3  -9 2365.53 174.848  23
  -8  -3  -9 2337.15 163.940  22
  -8  -3 -10-60.2160 61.5927  23
   8  -3  11-3.84282 69.6438  10
  -8   3 -11-58.1389 71.7563   5
   8  -3  11-10.8351 69.0523   9
   8   3  11 134.940 86.0475   9
  -8   3 -11 32.1896 59.5015  13
  -8  -3 -11 22.2564 54.4054  20
   8  -3  12 49.2682 71.5983  10
  -8   3 -12 177.402 71.0645   5
   8   3  12 180.654 89.1720   9
  -8   3 -12 79.9091 71.0466  13
  -8  -3 -12 107.700 68.0082  20
   8   3  13 4967.20 311.054   9
  -8  -3 -13 4738.13 267.894  14
  -8   3 -13 4749.47 279.914  13
   8   3  14 846.974 147.143   9
  -8  -3 -14 661.225 109.324  14
  -8   3 -14 478.761 93.9714  13
  -8  -3 -14 856.799 128.557  13
  -8  -3 -15 453.343 97.4766   5
   8   3  15 446.531 113.907   9
  -8  -3 -15 497.849 104.580  14
  -8   3 -15 385.128 93.6652  13
  -8  -3 -15 253.804 84.0372  13
   8   3  16 302.370 92.7585   9
  -8   3 -16 246.084 83.0438  13
  -8  -3 -16 163.517 70.5410  13
   8   3  17-58.7735 69.0054   9
  -8  -3 -17-29.6796 57.1213  13
   8   3  18 68.7025 53.9638   9
  -8  -3 -18 113.662 52.8313  13
   8  -4   0 5918.88 247.906   1
   8  -4   1 54577.8 755.052   1
   8  -4  -1 53245.8 721.936   1
   8  -4   2 43481.4 687.461   1
   8  -4  -2 43915.8 642.770   1
   8  -4   3 15071.5 416.201   1
   8  -4   4 26764.9 561.211   1
   8  -4   5 7996.85 314.808   1
   8  -4   6 49890.7 798.793   1
   8  -4   7 4276.38 243.213   1
   8  -4   8 33455.3 685.019   1
  -8  -4  -8 34594.0 623.260  23
  -8  -4  -9 35628.6 660.579  23
  -8  -4 -10 879.290 113.452  23
  -8  -4 -10 946.050 115.150  22
   8   4  11 4753.08 295.866   9
  -8   4 -11 4058.95 251.846  13
   8  -4 -11 4355.36 264.277   7
  -8  -4 -11 4114.44 250.736  20
   8  -4  11 3987.22 273.985  10
  -8   4 -11 4427.86 271.358   5
   8   4  12 1690.96 193.545   9
  -8   4 -12 1500.41 161.264  13
   8  -4  12 1632.41 181.340  10
  -8  -4 -12 1727.36 172.008  20
  -8   4 -12 1799.89 177.551   5
   8   4  13 6438.60 354.080   9
  -8  -4 -13 6138.75 303.046  14
  -8   4 -13 6043.30 313.000  13
  -8  -4 -13 5831.23 308.055  20
   8  -4  13 6173.84 334.665  10
   8   4  14 314.241 102.585   9
  -8  -4 -14 267.772 78.5484  14
  -8   4 -14 127.826 64.7130  13
  -8  -4 -14 240.252 78.1737  13
   8   4  15 3366.06 251.677   9
  -8  -4 -15 3283.88 220.068  14
  -8  -4 -15 3385.06 227.329  13
   8   4  16 3766.37 251.153   9
  -8  -4 -16 4022.20 241.424  13
   8   4  17 477.631 95.4804   9
  -8  -4 -17 464.645 87.4754  13
   8   4  18 0.65399 53.3912   9
  -8  -4 -18 53.6471 42.3616  13
   8  -5   0 47454.6 721.383   1
   8  -5   1 4732.56 233.422   1
   8  -5  -1 4930.81 232.521   1
   8  -5   2 5057.35 244.844   1
   8  -5   3 735.740 100.163   1
   8  -5   4 25962.1 574.611   1
   8  -5   5 762.185 116.938   1
   8  -5   6 8350.26 340.667   1
   8  -5   7 23.0259 51.9106   1
  -8  -5  -8 108.836 57.4495  23
   8  -5   8 107.039 67.9007   1
  -8  -5  -9-47.7931 59.0011  23
   8   5  10 1671.80 183.545   9
  -8   5 -10 1532.21 158.325  13
   8  -5 -10 1618.75 166.032   7
  -8  -5 -10 1403.57 149.855  20
   8  -5  10 1744.21 187.104  10
   8  -5  11 22.4823 72.6217  10
   8   5  11 203.195 110.780   9
  -8   5 -11 7.18568 55.8807  13
   8  -5 -11 52.7939 76.5535   7
  -8  -5 -11 71.1612 59.2254  20
   8  -5  12 67.0918 77.7461  10
   8   5  12 252.212 109.302   9
  -8  -5 -12 49.0107 61.4514  20
   8  -5  13 590.657 122.579  10
   8   5  13 606.795 128.498   9
  -8  -5 -13 460.312 93.2705  14
  -8  -5 -13 462.986 103.051  20
   8   5  14 1021.44 150.515   9
  -8  -5 -14 1012.46 129.146  14
  -8  -5 -14 951.664 122.590  20
   8   5  15 92.6618 79.3824   9
  -8  -5 -15 26.6981 54.4848  14
  -8  -5 -15-1.05948 67.3029  13
   8   5  16 1206.85 148.280   9
  -8  -5 -16 1268.62 134.604  14
  -8  -5 -16 1171.74 129.935  13
   8   5  17-70.9814 57.1585   9
  -8  -5 -17-35.5193 44.5046  13
   8   5  18 29.3082 49.0661   9
   8  -6   0 1212.86 125.764   1
   8  -6   1 9608.92 341.717   1
   8  -6  -1 9415.82 326.732   1
   8  -6   2 24699.6 556.287   1
   8  -6   3 6722.29 298.681   1
   8  -6   4 8151.30 335.505   1
   8  -6   5 730.292 111.083   1
   8  -6   6 54250.4 894.388   1
   8  -6   7 74.5796 61.4861   1
   8  -6   8 29978.2 677.871   1
  -8  -6  -9 13762.7 439.941  15
  -8  -6  -9 14409.6 456.397  20
   8  -6   9 14869.9 519.047  10
   8  -6  -9 14913.1 470.930   7
   8  -6  10 144.182 84.7236  10
   8   6  10 228.721 98.2856   9
   8  -6 -10 30.2130 62.7949   7
  -8  -6 -10 56.5280 71.8131  20
   8   6  11 1737.77 187.541   9
   8  -6 -11 1649.19 171.673   7
  -8  -6 -11 1452.87 157.185  20
   8  -6  11 1657.01 185.399  10
   8  -6  12 203.546 77.2932  10
   8   6  12 313.928 112.226   9
  -8  -6 -12 393.654 97.3384  20
   8  -6  13 866.242 138.973  10
   8   6  13 1039.94 155.209   9
  -8  -6 -13 969.763 130.965  20
   8   6  14 1596.22 177.384   9
  -8  -6 -14 1769.36 162.119  14
  -8  -6 -14 1736.49 169.025  20
   8  -6  14 1765.74 179.129  10
   8   6  15 66.5988 74.9748   9
  -8  -6 -15 47.3455 58.1537  14
  -8  -6 -15 24.1152 53.5174  13
   8   6  16 6570.46 311.713   9
  -8  -6 -16 6483.66 277.022  14
  -8  -6 -16 6432.67 284.906  13
   8   6  17-13.4013 46.5813   9
  -8  -6 -17 54.8852 48.2433  13
   8  -7   0 1599.96 148.537   1
   8  -7   1 1654.70 152.492   1
   8  -7  -1 1831.86 152.424   1
   8  -7   2 3361.39 219.488   1
   8  -7   3 7024.78 316.275   1
   8  -7   4 630.040 106.484   1
   8  -7   5 45.5631 48.6427   1
   8  -7   6 2396.13 200.100   1
   8  -7   7 5039.89 290.131   1
   8  -7   8 915.674 136.732  10
   8  -7  -8 852.293 126.828   7
   8  -7   8 792.100 121.749   1
   8  -7   9 484.575 124.423  10
   8  -7  -9 222.707 82.3237   7
  -8  -7  -9 318.425 92.7077  20
   8  -7  10 293.628 96.1344  10
  -8  -7 -10 187.192 71.5563  15
   8  -7 -10 283.328 93.4441   7
  -8  -7 -10 305.660 83.8100  20
   8  -7  11 134.786 75.0651  10
   8  -7 -11-29.9398 70.1456   7
  -8  -7 -11 74.1036 66.2812  20
   8   7  12 294.763 101.153   9
  -8  -7 -12 288.401 90.6025  20
   8  -7  12 177.023 88.3194  10
   8   7  13 1854.01 190.788   9
  -8  -7 -13 1717.16 168.949  20
   8  -7  13 1570.78 181.322  10
   8   7  14 57.5195 66.3278   9
  -8  -7 -14 16.6215 54.2990  14
  -8  -7 -14-95.7419 64.9720  20
   8  -7  14-12.9644 64.5577  10
   8   7  15 1009.00 135.584   9
  -8  -7 -15 1032.32 120.287  14
   8   7  16-10.1263 50.7278   9
  -8  -7 -16 29.8682 45.1917  14
  -8  -7 -16 53.3661 53.6769  13
   8   7  17 94.0795 43.8314   9
  -8  -7 -17 36.8634 42.2964  13
   8  -8   0 3932.70 237.101   1
   8  -8   1 71394.1 1007.49   1
   8  -8  -1 74125.3 992.494   1
   8  -8   2 1177.89 137.105   1
   8  -8   3 6996.84 328.701   1
   8  -8   4 1362.33 151.444   1
   8  -8   5 1790.46 173.975   1
   8  -8   6 377.320 90.9691   1
   8  -8   7 84.2238 76.5232  10
   8  -8  -7 136.692 66.9977  16
   8  -8   8 12.0030 81.5720  10
   8  -8  -8 97.9191 76.8087   7
   8  -8  -9 20839.5 565.508   7
  -8  -8  -9 20570.9 561.505  20
   8  -8   9 21438.0 635.622  10
  -8  -8 -10 647.113 116.214  15
   8  -8 -10 660.051 117.384   7
  -8  -8 -10 497.354 118.044  20
   8  -8  10 483.020 114.077  10
   8  -8 -11 3431.83 236.138   7
  -8  -8 -11 3079.53 225.690  20
   8  -8  11 3484.19 264.312  10
  -8  -8 -12 2405.36 201.451  20
   8  -8  12 2076.28 202.288  10
   8   8  13 5225.96 295.246   9
  -8  -8 -13 5270.12 281.732  20
   8  -8  13 4953.73 293.508  10
   8   8  14 874.952 129.311   9
  -8  -8 -14 886.041 113.842  14
  -8  -8 -14 715.082 108.903  20
   8  -8  14 613.035 108.765  10
   8   8  15 1305.18 143.622   9
  -8  -8 -15 1183.70 122.101  14
  -8  -8 -15 1226.22 129.428  20
   8   8  16 118.872 57.7042   9
  -8  -8 -16 212.810 61.0490  14
  -8  -8 -16 160.495 57.2401  13
   8  -9   0 7635.07 338.246   1
   8  -9   1 180.747 72.9807   1
   8  -9   2-62.4571 63.8428   1
   8  -9   3 1043.33 137.558   1
   8  -9  -4 2676.24 212.881  16
   8  -9   4 2387.94 195.970   8
   8  -9   4 2565.53 212.944   1
   8  -9  -5 8.81988 62.0649  16
   8  -9   5-50.1806 69.3477  10
   8  -9  -6 3743.23 251.634  16
   8  -9   6 3434.33 255.792  10
   8  -9  -7 839.588 132.916  16
   8  -9  -7 764.836 122.313   7
   8  -9   7 721.170 127.253  10
   8  -9  -8-19.8391 65.9619  16
   8  -9  -8 65.6131 65.2527   7
   8  -9   8 7.02530 69.9349  10
  -8  -9  -9 2345.37 199.659  20
   8  -9   9 2595.64 231.237  10
   8  -9  -9 2771.12 215.885   7
  -8  -9 -10 2703.94 207.823  15
   8  -9 -10 2609.64 204.963   7
  -8  -9 -10 2742.83 213.696  20
   8  -9  10 2718.25 234.972  10
  -8  -9 -11 417.629 97.7193  15
   8  -9 -11 399.774 95.8233   7
  -8  -9 -11 519.639 107.114  20
   8  -9  11 664.353 126.843  10
  -8  -9 -12 49.6757 62.1551  20
   8  -9  12 189.843 81.3536  10
  -8  -9 -13 155.423 65.2488  20
   8  -9  13 155.245 76.1767  10
  -8  -9 -14 271.657 76.2777  20
   8  -9  14 176.778 73.7721  10
  -8  -9 -15 345.685 71.8651  14
  -8  -9 -15 202.718 64.0224  20
   8 -10   0-25.2663 85.3829  16
   8 -10   0 5.60466 64.4295   8
   8 -10   0 84.4228 68.7953   1
   8 -10  -1 1301.07 156.625  16
   8 -10   1 1304.33 151.189  16
   8 -10  -1 1172.71 143.959   8
   8 -10   1 1215.56 154.188   8
   8 -10  -2 15031.6 500.967  16
   8 -10   2 14199.5 479.463  16
   8 -10  -2 14253.8 470.611   8
   8 -10   2 13829.2 463.023   8
   8 -10  -3 135.371 84.5616  16
   8 -10   3 209.968 78.1451  16
   8 -10  -3 44.7112 64.2082   8
   8 -10   3 235.275 87.3965   8
   8 -10  -4 6334.18 333.267  16
   8 -10   4 5771.09 305.492  16
   8 -10   4 6267.47 317.397   8
   8 -10   4 6648.23 341.647  10
   8 -10  -5 2162.05 204.217  16
   8 -10   5 2462.34 204.955   8
   8 -10   5 2175.45 209.885  10
   8 -10  -6 13805.2 483.642  16
  -8  10  -6 12495.1 344.772  24
   8 -10   6 13556.8 500.648  10
   8 -10  -7 2563.12 216.058  16
  -8  10  -7 2721.24 169.884  24
   8 -10  -7 2421.54 201.055   7
   8 -10   7 2311.63 215.119  10
   8 -10  -8 3834.90 255.854  16
  -8  10  -8 3563.40 200.106  24
   8 -10  -8 3964.30 250.439   7
   8 -10   8 4126.66 287.457  10
   8 -10  -9 131.413 76.9730  16
   8 -10  -9 260.634 83.9669   7
  -8 -10  -9 376.217 96.1506  20
   8 -10   9 141.633 89.0884  10
   8 -10 -10-56.5323 65.2116   7
  -8 -10 -10 39.5814 57.6387  20
   8 -10  10-10.5945 79.7800  10
  -8 -10 -11 81.5594 59.0934  15
   8 -10 -11 103.356 59.3079   7
  -8 -10 -11 76.5870 72.2652  20
   8 -10  11 13.0873 61.7350  10
  -8 -10 -12 1780.45 163.394  20
   8 -10  12 1584.63 167.212  10
  -8 -10 -13 63.4856 59.1113  20
   8 -10  13 70.7325 57.8517  10
  -8 -10 -14 193.328 59.6888  20
   8 -10  14 77.1470 52.6144  10
   8 -11   0 3283.28 243.943  16
   8 -11   0 2954.36 220.731   8
   8 -11  -1 170.328 83.3011  16
   8 -11   1 301.955 104.133  16
   8 -11  -1 286.719 90.0206   8
   8 -11   1 163.639 74.3388   8
   8 -11  -2 1164.40 157.427  16
   8 -11   2 1194.96 156.561  16
   8 -11  -2 1357.74 160.370   8
   8 -11   2 1191.32 153.125   8
   8 -11  -3 715.132 128.458  16
   8 -11   3 916.277 135.192  16
   8 -11   3 730.503 119.794   8
   8 -11  -4 19.6473 76.1427  16
   8 -11   4 88.9452 59.4447   8
   8 -11   4 113.685 78.4233  10
   8 -11  -5 479.993 116.807  16
   8 -11   5 610.924 117.054   8
   8 -11  -5 441.570 97.5146  19
   8 -11   5 384.395 98.5953  10
   8 -11  -6 831.129 135.548  16
   8 -11   6 709.105 120.704   8
   8 -11   6 670.264 129.657  10
   8 -11  -7 696.749 121.842  16
   8 -11   7 754.638 131.888   8
   8 -11  -7 653.448 111.431   7
  -8  11  -7 730.541 103.839  24
   8 -11   7 589.963 124.556  10
   8 -11  -8 131.420 74.5906  16
   8 -11   8 404.656 106.047   8
  -8  11  -8 190.128 65.6955  24
   8 -11  -8 314.122 83.2262   7
   8 -11   8 280.003 99.9472  10
   8 -11  -9 1186.11 144.515  16
  -8  11  -9 1378.67 131.961  24
  -8 -11  -9 1690.72 164.499  20
   8 -11   9 1772.27 186.419  10
   8 -11  -9 1372.63 146.544   7
   8 -11 -10 3.84602 51.0120   7
  -8 -11 -10-14.5309 62.6208  20
   8 -11  10 50.0222 72.2710  10
  -8 -11 -11 195.330 71.8900  20
   8 -11  11 243.209 91.1735  10
  -8 -11 -12 48.4190 51.4380  20
   8 -11  12 78.5185 63.8922  10
  -8 -11 -13 370.856 77.8653  20
   8 -11  13 482.860 93.4641  10
   8 -11  14 60.7999 42.0664   8
   8 -12   0 4449.81 285.226  16
   8 -12   0 4534.22 274.498   8
   8 -12  -1 7196.10 359.866  16
   8 -12   1 6558.29 341.055  16
   8 -12  -1 6583.42 327.664   8
   8 -12   1 7327.26 346.157   8
   8 -12  -2 1416.12 168.290  16
   8 -12   2 1473.04 171.724  16
   8 -12   2 1408.21 157.752   8
   8 -12  -3 2255.17 207.327  16
   8 -12   3 2539.28 211.347  16
   8 -12   3 2406.46 203.567   8
   8 -12  -4 25.6588 73.4541  16
   8 -12   4 86.3745 79.1391   8
   8 -12  -4 145.259 83.9751  19
   8 -12  -5-17.3609 79.1328  16
   8 -12   5-10.2749 63.8795   8
   8 -12  -5 42.9780 66.8908  19
   8 -12   5-24.6709 74.7751  10
   8 -12  -6 3696.80 257.950  16
   8 -12   6 3852.69 253.301   8
  -8  12  -6 3713.98 204.956  24
   8 -12  -6 4027.71 243.414   7
   8 -12   6 3394.49 253.310  10
   8 -12  -7 58.7849 71.6572  16
   8 -12   7 266.059 91.3628   8
  -8  12  -7 92.4001 57.9789  24
   8 -12  -7 245.425 78.6617   7
   8 -12   7 106.471 81.6231  10
   8 -12  -8 1845.27 178.377  16
   8 -12   8 1946.28 176.808   8
  -8  12  -8 1751.03 140.560  24
   8 -12  -8 1822.46 157.773   7
   8 -12   8 1837.16 186.477  10
   8 -12  -9 4131.93 247.058  16
   8 -12   9 4576.07 258.848   8
  -8  12  -9 4418.39 216.557  24
   8 -12  -9 4299.65 235.423   7
  -8 -12  -9 4584.09 251.089  20
   8 -12   9 4067.15 265.168  10
   8 -12  10 402.338 86.7857   8
  -8 -12 -10 432.845 90.9969  20
   8 -12  10 399.066 94.3010  10
   8 -12  11 574.859 94.9375   8
  -8 -12 -11 562.390 87.3541  20
   8 -12  12 39.5524 46.4945   8
  -8 -12 -12-1.34152 44.8867  20
   8 -13   0 257.490 91.6441  16
   8 -13   0 312.270 93.4406   8
   8 -13  -1 2164.30 202.245  16
   8 -13   1 2495.91 212.214  16
   8 -13   1 2236.45 190.932   8
   8 -13  -2 117.763 78.6344  16
   8 -13   2 196.575 81.5057  16
   8 -13   2 77.2267 61.9741   8
   8 -13  -3 769.764 128.856  16
   8 -13   3 942.158 130.825   8
   8 -13  -3 602.975 114.368  19
   8 -13  -4 380.423 95.4808  16
   8 -13   4 305.468 91.8447   8
   8 -13  -5 764.063 127.113  16
   8 -13   5 808.456 123.997   8
   8 -13  -5 849.656 125.612  19
   8 -13  -6 467.117 106.369  16
   8 -13   6 361.984 88.0389   8
  -8  13  -6 650.693 93.3796  24
   8 -13  -6 306.380 79.4557  19
   8 -13  -7 500.950 104.925  16
   8 -13   7 455.947 93.1605   8
  -8  13  -7 303.722 83.1247  24
   8 -13  -8 144.789 67.4384  16
   8 -13   8 112.836 56.0264   8
  -8  13  -8 33.3114 48.4108  24
   8 -13   9 84.7423 58.6213   8
  -8 -13  -9 68.4208 51.8857  20
   8 -13  10 31.4518 46.9762   8
  -8 -13 -10 38.9469 46.0299  20
   8 -13  11-63.7982 46.4324   8
  -8 -13 -11-0.26695 42.1699  20
   8 -14   0 1698.16 173.089  16
   8 -14  -1 6382.50 320.154  16
   8 -14   1 5911.87 303.486  16
   8 -14   1 5923.52 288.767   8
   8 -14  -1 6519.41 316.495  19
   8 -14  -2 890.163 134.839  16
   8 -14   2 789.727 115.423   8
   8 -14  -2 838.905 130.397  19
   8 -14   3 93.5791 74.8355   8
   8 -14  -3 64.3137 69.1995  19
   8 -14  -4 1692.00 171.663  16
   8 -14   4 1893.33 166.326   8
  -8  14  -4 2125.70 151.334  24
   8 -14  -4 1639.88 159.886  19
   8 -14  -5 127.540 67.9515  16
   8 -14   5 110.754 53.4931   8
   8 -14  -5 273.890 77.2945  19
   8 -14  -6 1325.33 140.541  16
   8 -14   6 1589.42 146.957   8
  -8  14  -6 1451.30 124.531  24
   8 -14  -6 1543.84 144.348  19
   8 -14   7 909.713 112.167   8
  -8  14  -7 824.181 94.6775  24
   8 -14   8 317.048 74.1284   8
  -8  14  -8 39.8703 44.3957  24
   8 -14   9 1477.52 129.208   8
  -8 -14  -9 1425.41 122.058  20
   8 -15   0 580.672 100.375  16
   8 -15   0 516.368 98.7871  19
   8 -15  -1-2.40210 56.8112  16
   8 -15   1-54.6458 67.6704  19
   8 -15  -2 170.136 65.6663  16
   8 -15  -2 262.319 76.7473  19
   8 -15   2 240.569 79.3491  19
   8 -15  -3-32.1824 68.4668  16
   8 -15  -3 36.0115 53.2316  19
   8 -15  -4-27.5465 55.2740  16
  -8  15  -4 124.510 55.6806  24
   8 -15  -4-57.8394 62.7868  19
   8 -15  -5-25.7571 61.0550  16
  -8  15  -5-19.7918 41.8905  24
   8 -15  -5-39.7505 56.2113  19
  -8  15  -6-19.5305 40.3545  24
   8 -15  -6 106.337 52.7113  19
  -8  15  -7-185.851 54.1608  24
  -8  16   0 1670.39 112.628  24
   8 -16   0 718.614 98.0154  19
   8 -16  -1 85.4755 57.2865  16
   8 -16  -1 122.073 59.1387  19
   8 -16   1 71.5553 48.7184  19
  -8  16  -2 1049.91 97.5064  24
   8 -16  -2 1049.85 115.414  16
   8 -16  -2 1259.12 123.361  19
  -8  16  -3 240.811 57.4105  24
   8 -16  -3 420.122 81.9581  16
   8 -16  -3 430.652 76.0661  19
   8 -16   3 395.798 78.4742  19
  -8  16  -4 77.9462 46.2468  24
   9   0   0 0.86298 43.8939   1
   9   0   1 16.8866 39.3964   1
   9   0  -1 69.2083 47.6895   1
   9   0   2 47166.9 725.033   1
   9   0  -2 46620.6 680.266   1
   9   0   3-18.3801 49.3510   1
   9   0   4 1566.75 141.554   1
   9   0   5-31.9772 55.8679   1
   9   0   6 489.088 85.6427   1
   9   0   7 62.4775 51.2861   1
   9   0   8 37631.4 725.125   1
  -9   0  -9 83.8945 52.7330  23
  -9   0 -10 11377.3 427.931   5
   9   0  10 11047.8 442.712   9
  -9   0 -10 11630.9 403.064  23
   9   0  11 11.8911 70.4740  10
   9   0  11 111.715 82.9603   9
  -9   0 -11 90.4934 80.0240   5
  -9   0 -11 36.6673 56.3271  13
  -9   0 -12 9945.28 411.601   5
   9   0  12 10308.9 445.742   9
  -9   0 -12 10090.7 395.299  13
   9   0  12 9748.83 418.736  10
  -9   0 -13-167.504 95.3586   5
   9   0  13-118.063 94.0651   9
  -9   0 -13-65.6972 60.7906  13
  -9   0 -14 8340.05 366.775   5
   9   0  14 8796.61 407.195   9
  -9   0 -14 8273.17 360.860  13
   9   0  15-29.2246 83.4119   9
  -9   0 -15 33.4091 63.4112  13
   9   0  16 38.0731 59.9832   9
  -9   0 -16-30.3168 58.9878  13
  -9   0 -17-12.1953 49.5797  13
  -9   0 -18 1581.91 131.766  13
   9   1   0 236.574 64.8268   1
   9  -1   0 40.4283 52.9267   1
   9   1  -1 4837.81 224.614   1
   9  -1   1 4768.04 230.251   1
   9  -1  -1 4787.86 222.030   1
   9   1   1 4817.07 234.072   1
   9  -1   2 3372.32 194.700   1
   9  -1  -2 3371.53 185.036   1
   9   1   2 3760.53 209.958   1
   9  -1   3 20171.7 483.620   1
   9   1   3 20636.7 492.089   1
   9  -1   4 41615.9 710.360   1
   9   1   4 42200.9 713.343   1
   9  -1   5 1554.31 143.980   1
   9   1   5 1717.20 151.242   1
   9  -1   6 47248.8 790.614   1
   9   1   6 44221.1 762.473   1
   9  -1   7 6765.97 305.882   1
   9   1   7 6505.61 301.258   1
   9  -1   8-65.3998 65.1720   1
   9   1   8 8.15757 52.3208   1
  -9   1  -8 118.349 62.1821  23
  -9   1  -9 838.014 111.457  23
  -9  -1  -9 934.237 117.986  23
  -9   1 -10 9470.64 396.542   5
   9  -1  10 10920.2 442.229   9
   9   1  10 10292.3 428.080   9
  -9   1 -10 10645.5 381.494  23
  -9  -1 -10 11105.0 393.624  23
  -9   1 -11 3154.01 235.082   5
   9  -1  11 3445.59 259.668   9
   9   1  11 3471.56 260.614   9
  -9   1 -11 3354.10 227.161  13
  -9  -1 -11 3563.25 235.847  13
   9  -1  11 3193.06 247.970  10
   9   1  11 3391.83 250.317  10
  -9   1 -12 4673.76 283.788   5
  -9  -1 -12 4490.62 277.957   5
   9  -1  12 4766.22 303.904   9
   9   1  12 4114.36 283.985   9
  -9   1 -12 4411.88 262.752  13
  -9  -1 -12 4611.63 269.307  13
   9  -1  12 4314.16 282.839  10
  -9   1 -13 3846.81 257.075   5
  -9  -1 -13 4065.42 265.055   5
   9  -1  13 3997.55 281.893   9
   9   1  13 4164.19 290.362   9
  -9   1 -13 3973.72 251.406  13
  -9  -1 -13 4677.71 274.695  13
  -9   1 -14 3204.92 229.081   5
  -9  -1 -14 3138.57 229.654   5
   9  -1  14 3327.39 253.299   9
   9   1  14 3562.21 264.263   9
  -9   1 -14 3409.11 235.770  13
  -9  -1 -14 3354.62 231.225  13
  -9  -1 -15 308.081 84.5641   5
   9  -1  15 80.5008 75.3115   9
   9   1  15 281.046 95.8059   9
  -9  -1 -15 359.234 95.2553  13
  -9   1 -15 286.882 82.1997  13
   9   1  16 214.659 82.4549   9
  -9   1 -16 213.890 64.9671  13
  -9  -1 -16 242.710 75.4036  13
   9   1  17-67.9345 67.9884   9
  -9   1 -17-8.75109 49.5242  13
  -9  -1 -17-19.7686 52.0378  13
  -9  -1 -18 675.857 88.3321  13
   9  -2   0 19.1360 41.3639   1
   9  -2   1 49245.0 737.759   1
   9  -2  -1 50448.4 718.050   1
   9  -2   2 226.809 57.8738   1
   9  -2  -2 333.294 69.6393   1
   9   2   2 286.726 68.8044   1
   9   2   3 107.263 54.7465   1
   9  -2   3 154.172 60.9273   1
   9   2   4 3090.13 200.952   1
   9  -2   4 3456.50 211.372   1
   9   2   5 68165.3 935.354   1
   9  -2   5 67172.5 929.025   1
   9  -2   6 527.221 93.2319   1
   9  -2   7 8862.56 352.034   1
   9  -2   8 1717.26 163.427   1
  -9   2  -8 1760.48 147.911  23
  -9   2  -9 14739.3 426.786  23
  -9  -2  -9 14517.8 433.561  23
  -9   2 -10 3793.25 254.697   5
   9  -2  10 4169.95 274.606   9
   9   2  10 4012.38 268.795   9
   9  -2 -10 4024.56 243.609   7
  -9   2 -10 4040.34 234.127  23
   9  -2  10 3993.37 267.389  10
  -9   2 -11 5171.71 300.065   5
   9  -2  11 4932.20 305.961   9
   9   2  11 5145.49 315.504   9
  -9   2 -11 5319.03 283.829  13
   9  -2  11 5306.70 314.575  10
  -9   2 -12 1612.78 174.923   5
   9  -2  12 1729.78 189.608   9
   9   2  12 1740.67 187.024   9
  -9   2 -12 1482.30 158.561  13
  -9  -2 -12 1625.97 169.581  13
   9  -2  12 1737.29 184.668  10
   9  -2  13-23.5116 74.6871  10
  -9   2 -13 83.1898 67.6422   5
   9  -2  13-41.2315 61.7986   9
   9   2  13 153.843 86.4598   9
  -9  -2 -13 39.6947 64.1185   5
  -9   2 -13 70.2276 61.3836  13
  -9  -2 -13 174.544 78.4823  13
  -9   2 -14 1165.79 140.536  13
  -9   2 -14 1185.49 147.160   5
   9  -2  14 1253.47 160.895   9
  -9  -2 -14 1075.77 142.947   5
   9   2  14 1287.24 165.117   9
  -9  -2 -14 1377.98 153.013  13
  -9  -2 -15 3065.14 217.607   5
   9   2  15 2975.89 235.738   9
  -9   2 -15 2941.10 212.735  13
  -9  -2 -15 3116.01 219.455  13
  -9  -2 -16 303.323 85.5619  13
   9   2  16 147.072 68.6743   9
  -9   2 -16 180.007 67.8416  13
   9   2  17 828.761 115.475   9
  -9  -2 -17 813.887 104.870  13
   9   2  18 28.3639 51.7246   9
  -9  -2 -18 152.020 55.7706  13
   9  -3   0 56.3325 48.3924   1
   9  -3   1 24555.4 531.787   1
   9  -3  -1 24339.7 513.607   1
   9  -3   2 13441.3 402.993   1
   9  -3   3 71916.2 943.873   1
   9  -3   4 4845.09 253.519   1
   9  -3   5 19983.6 519.226   1
   9  -3   6 1328.57 143.172   1
   9  -3   7 14470.0 458.514   1
   9  -3   8 1672.92 162.467   1
  -9  -3  -8 1922.72 161.376  23
  -9  -3  -9 1866.07 159.973  23
   9  -3  10 101.718 77.3425  10
  -9   3 -10-66.3378 76.4229   5
   9   3  10-15.9364 63.2386   9
   9  -3 -10-31.6063 59.1515   7
  -9   3 -11 6842.57 342.077   5
   9   3  11 7153.29 370.954   9
  -9   3 -11 6859.91 327.822  13
  -9  -3 -11 6490.24 312.000  20
   9  -3  11 6886.76 360.328  10
   9  -3  12 271.460 99.9279  10
  -9   3 -12 295.676 93.8671   5
   9   3  12 290.019 99.5473   9
  -9   3 -12 327.285 95.2442  13
   9   3  13 6269.52 348.412   9
  -9   3 -13 5910.36 306.800  13
  -9  -3 -13 6526.20 322.548  13
   9  -3  13 5908.21 329.655  10
  -9   3 -13 6162.89 319.604   5
   9   3  14 464.197 109.382   9
  -9  -3 -14 457.540 93.1523   5
  -9   3 -14 471.437 103.560  13
  -9  -3 -14 409.223 89.2523  13
  -9  -3 -15 49.1069 56.3982   5
   9   3  15-3.16659 74.7795   9
  -9   3 -15-74.7884 70.0688  13
  -9  -3 -15-41.4383 61.6339  13
   9   3  16-66.6900 68.3502   9
  -9  -3 -16 122.293 64.8480  13
   9   3  17 138.644 58.2358   9
  -9  -3 -17 162.346 62.6138  13
   9  -4   0 59.7912 47.7560   1
   9  -4   1 13072.6 397.538   1
   9  -4  -1 12927.9 381.229   1
   9  -4   2 18156.2 474.641   1
   9  -4   3 1491.85 142.292   1
   9  -4   4 12521.1 410.840   1
   9  -4   5 4457.72 251.795   1
   9  -4   6 8661.73 356.629   1
   9  -4   7 2891.79 212.557   1
   9  -4   8 9506.56 386.074   1
  -9  -4  -8 9829.86 347.660  23
   9   4   9 1955.49 192.630   9
   9  -4  -9 1906.75 171.628   7
  -9  -4  -9 1969.28 163.671  23
   9  -4   9 2313.28 204.121  10
  -9   4  -9 2045.51 188.926   5
   9   4  10 2902.46 234.268   9
   9  -4 -10 2562.27 202.344   7
   9  -4  10 2463.31 219.083  10
  -9   4 -10 2444.21 208.455   5
   9   4  11 3620.04 263.385   9
  -9   4 -11 3448.99 233.845  13
   9  -4 -11 3305.69 234.737   7
  -9  -4 -11 3110.46 223.008  20
   9  -4  11 3142.28 250.761  10
  -9   4 -11 3601.91 254.648   5
   9   4  12 3241.33 254.068   9
  -9   4 -12 3699.04 243.983  13
  -9  -4 -12 3369.54 231.382  20
   9  -4  12 3323.38 256.626  10
   9  -4  13 221.498 80.8633  10
   9   4  13 260.248 96.4041   9
  -9   4 -13 122.006 62.9169  13
   9   4  14 3641.13 261.780   9
  -9  -4 -14 3857.80 244.561  13
   9  -4  14 3340.59 241.164  10
   9   4  15 90.2390 63.1112   9
  -9  -4 -15 48.5934 60.5760   5
  -9  -4 -15 173.473 76.6743  13
  -9  -4 -16 3.92131 47.8571   5
   9   4  16 44.6546 66.1427   9
  -9  -4 -16-27.4376 53.8526  13
   9   4  17 268.737 76.9269   9
  -9  -4 -17 568.300 87.2721  13
   9  -5   0 427.341 84.2693   1
   9  -5   1 3843.58 223.820   1
   9  -5  -1 3882.06 216.377   1
   9  -5   2 20208.9 516.826   1
   9  -5   3 5933.44 286.277   1
   9  -5   4 45237.6 795.067   1
   9  -5   5 4972.23 271.223   1
   9  -5   6 24359.0 606.440   1
   9  -5   7 947.429 130.989   1
   9  -5   8 804.173 125.413   1
  -9  -5  -8 920.152 116.305  23
   9  -5   9 541.833 126.019  10
   9   5   9 445.519 109.169   9
   9  -5  -9 406.623 94.7472   7
   9   5  10 3058.36 241.906   9
   9  -5 -10 3051.51 224.277   7
   9  -5  10 3094.72 246.711  10
   9  -5  11 47.8983 72.0703  10
   9   5  11-73.3821 78.7331   9
   9  -5 -11-40.2736 63.4527   7
  -9  -5 -11 12.3941 60.9543  20
   9   5  12 2653.58 227.117   9
  -9  -5 -12 2560.93 202.978  20
   9  -5  12 2292.39 211.712  10
   9  -5  13 106.067 77.6686  10
   9   5  13 179.575 83.7363   9
  -9  -5 -13 118.585 63.8065  20
   9   5  14 6597.60 342.237   9
  -9  -5 -14 6306.43 309.011  13
   9  -5  14 6239.81 322.647  10
   9   5  15 334.100 87.2553   9
  -9  -5 -15 499.165 102.258  13
  -9  -5 -16 73.7516 58.9742   5
   9   5  16 53.6519 52.7011   9
  -9  -5 -16 128.086 62.5865  13
   9   5  17-4.25233 52.9984   9
  -9  -5 -17-32.8002 43.2705  13
   9  -6   0-35.3411 64.2996   1
   9  -6   1 19268.9 511.452   1
   9  -6  -1 19719.7 498.747   1
   9  -6   2 21203.8 543.867   1
   9  -6   3 3534.54 228.889   1
   9  -6   4 7305.26 332.608   1
   9  -6   5 17991.9 528.827   1
   9  -6   6 6963.64 333.935   1
   9  -6   7 1218.94 147.222   1
   9  -6  -8 4961.84 274.884   7
   9  -6   8 5608.18 321.022  10
   9  -6  -9 5462.22 293.897   7
   9  -6   9 5401.15 322.077  10
   9  -6  10 82.4245 68.4354  10
   9   6  10 259.536 99.1254   9
   9  -6 -10 132.145 67.4560   7
   9   6  11 3563.64 258.281   9
   9  -6 -11 3752.36 251.045   7
  -9  -6 -11 3515.87 236.178  20
   9  -6  11 3737.24 273.376  10
   9  -6  12 203.010 77.7210  10
   9   6  12 242.622 91.2359   9
  -9  -6 -12 87.8583 60.2505  20
   9  -6  13 199.846 82.6016  10
   9   6  13 358.747 98.4050   9
  -9  -6 -13 287.265 85.3100  20
   9   6  14 3014.38 231.132   9
   9  -6  14 2330.67 197.103  10
   9   6  15 712.646 112.299   9
  -9  -6 -15 856.394 116.214  13
   9   6  16-66.1225 63.4435   9
  -9  -6 -16 3.21666 48.0723   5
  -9  -6 -16 11.4824 44.3433  13
   9  -7   0-33.5157 72.5567   1
   9  -7   1 10052.7 384.733   1
   9  -7  -1 10437.3 376.777   1
   9  -7   2 14202.7 464.150   1
   9  -7   3 25060.1 626.919   1
   9  -7   4 24922.5 629.609   1
   9  -7   5 2765.52 219.944   1
   9  -7   6 4805.18 289.518  10
   9  -7   6 5069.39 294.650   1
   9  -7  -7 1902.23 176.322   7
   9  -7   7 2026.45 198.027  10
   9  -7   8 766.553 132.615  10
   9  -7  -8 906.705 130.251   7
   9  -7   9 553.286 124.364  10
   9  -7  -9 711.114 120.636   7
   9  -7  10 1148.00 160.392  10
   9  -7 -10 1125.90 145.374   7
  -9  -7 -10 1105.60 144.665  20
   9  -7 -11 3957.64 253.900   7
  -9  -7 -11 3812.71 244.800  20
   9  -7  11 3702.31 267.538  10
   9   7  12 450.420 106.507   9
  -9  -7 -12 474.948 99.3532  20
   9  -7  12 326.369 98.1880  10
   9   7  13 2974.02 224.785   9
  -9  -7 -13 3309.62 220.991  20
   9  -7  13 2909.62 226.131  10
   9   7  14 419.845 96.1630   9
  -9  -7 -14 399.717 89.9746  20
   9  -7  14 311.050 85.6539  10
   9   7  15-44.2417 56.8909   9
   9  -7  15 14.9489 50.0332  10
   9   7  16 285.194 77.3166   9
  -9  -7 -16 134.906 58.5918   5
  -9  -7 -16 154.924 54.6007  13
   9  -8   0 19.4715 51.2655   1
   9  -8   1 12220.8 436.302   1
   9  -8   2 1447.95 159.417   1
   9  -8   3 97.7131 56.1459   1
   9  -8  -4 1058.54 134.256  16
   9  -8   4 886.749 121.785   8
   9  -8   4 890.557 134.820   1
   9  -8  -5 10934.8 416.905  16
   9  -8   5 12107.2 455.326  10
   9  -8   6 52.5839 72.7256  10
   9  -8  -6 76.6705 71.6409  16
   9  -8  -7 2488.26 203.493   7
   9  -8   7 2228.91 212.217  10
   9  -8  -8 2161.51 193.415   7
   9  -8   8 1904.49 202.075  10
   9  -8  -9 3257.69 230.579   7
   9  -8   9 3264.14 256.875  10
   9  -8 -10 714.318 120.908   7
  -9  -8 -10 635.494 108.479  20
   9  -8  10 676.355 134.474  10
   9  -8 -11 1615.18 170.245   7
  -9  -8 -11 1346.14 153.754  20
   9  -8  11 1294.60 164.375  10
  -9  -8 -12 248.028 78.0369  20
   9  -8  12 342.745 97.9462  10
  -9  -8 -13-10.7040 62.5234  20
   9  -8  13 3.29064 60.8251  10
   9   8  14 1426.85 146.919   9
  -9  -8 -14 1342.81 135.201  20
   9  -8  14 1272.26 147.260  10
   9   8  15 478.045 89.6186   9
  -9  -8 -15 643.037 94.5664  13
   9  -8  15 510.246 89.8417  10
   9  -9   0-27.5874 68.8521  16
   9  -9   0-83.2559 85.0687   8
   9  -9   0-118.919 70.6157   1
   9  -9  -1 3584.69 248.868  16
   9  -9   1 3294.62 235.964  16
   9  -9  -1 3313.06 232.671   8
   9  -9   1 3131.65 224.909   8
   9  -9   1 3209.55 233.690   1
   9  -9  -2 39.0713 78.8498  16
   9  -9  -2 105.621 70.0540   8
   9  -9   2-19.6152 74.0339   8
   9  -9  -3 6121.92 318.704  16
   9  -9   3 6143.28 311.767   8
   9  -9  -4 1760.62 178.253  16
   9  -9   4 1731.62 172.490   8
   9  -9   4 1698.23 180.846  10
   9  -9  -5 7740.03 359.877  16
   9  -9   5 7694.19 349.016   8
   9  -9   5 7809.18 374.054  10
   9  -9  -6 705.031 128.186  16
   9  -9   6 540.853 112.357   8
   9  -9   6 514.001 106.598  10
   9  -9  -7 1326.75 164.512  16
   9  -9  -7 1539.92 168.330   7
   9  -9   7 1242.87 168.140  10
   9  -9  -8 129.466 69.1002   7
   9  -9   8 149.225 81.1835  10
   9  -9  -9-80.9665 78.7984   7
   9  -9   9 26.4173 75.5154  10
   9  -9 -10 515.618 107.005   7
  -9  -9 -10 613.880 111.030  20
   9  -9  10 470.978 113.083  10
   9  -9 -11 4598.30 261.004   7
  -9  -9 -11 4741.71 261.055  20
   9  -9  11 4264.57 277.661  10
  -9  -9 -12 443.403 92.5935  20
   9  -9  12 422.395 93.6082  10
  -9  -9 -13 2537.02 182.479  20
   9  -9  13 2271.67 188.281  10
  -9  -9 -14 600.000 90.1730  20
   9  -9  14 730.854 109.728  10
  -9  -9 -15 178.862 57.7938  13
   9 -10   0 49.4676 70.7625  16
   9 -10   0 44.7111 65.0315   8
   9 -10  -1 909.827 138.682  16
   9 -10   1 824.516 127.874  16
   9 -10  -1 961.748 138.217   8
   9 -10   1 800.032 129.958   8
   9 -10  -2 5987.41 324.153  16
   9 -10   2 6006.66 322.891  16
   9 -10  -2 5824.24 312.136   8
   9 -10   2 5991.90 315.907   8
   9 -10  -3 707.188 127.409  16
   9 -10   3 672.901 123.293  16
   9 -10   3 609.137 112.899   8
   9 -10  -4 1981.99 188.654  16
   9 -10   4 2000.02 188.506  16
   9 -10   4 1848.68 180.482   8
   9 -10  -5 82.7218 71.6099  16
   9 -10   5-16.9584 67.5515  16
   9 -10   5 30.9917 68.4662   8
   9 -10   5 170.070 91.4949  10
   9 -10   6 98.4878 67.8447   8
   9 -10   6 204.549 80.5317  10
   9 -10  -7 763.301 126.099  16
   9 -10   7 712.866 129.214   8
   9 -10  -7 552.452 113.731   7
   9 -10   7 540.689 124.401  10
   9 -10  -8 7703.56 350.205  16
   9 -10   8 8052.47 360.229   8
   9 -10  -8 7935.41 349.225   7
   9 -10   8 7647.68 378.257  10
   9 -10  -9 449.437 97.8375   7
   9 -10   9 511.454 121.236  10
   9 -10 -10 1853.58 168.634   7
   9 -10  10 1736.26 186.377  10
   9 -10 -11 552.311 105.847   7
  -9 -10 -11 650.480 104.310  20
   9 -10  11 525.080 110.133  10
  -9 -10 -12 3360.98 206.071  20
   9 -10  12 3343.64 229.619  10
  -9 -10 -13 118.480 55.6137  20
   9 -10  13 111.566 62.1250  10
   9 -10  14 974.072 105.678   8
   9 -11   0 129.847 74.0421  16
   9 -11   0 79.6883 78.7698   8
   9 -11  -1 146.545 86.2931  16
   9 -11   1 291.354 103.486  16
   9 -11  -1 263.371 82.7484   8
   9 -11   1 235.939 95.7410   8
   9 -11  -2 361.376 95.7422  16
   9 -11   2 371.926 99.2577  16
   9 -11   2 391.202 92.2808   8
   9 -11  -3 21.8913 73.8141  16
   9 -11   3-9.87707 77.1421  16
   9 -11   3-5.64636 62.2698   8
   9 -11  -4 4987.68 300.477  16
   9 -11   4 4810.48 283.113  16
   9 -11   4 4897.61 285.806   8
   9 -11  -5 1052.51 147.457  16
   9 -11   5 1197.72 151.628   8
   9 -11  -6 7872.22 367.273  16
   9 -11   6 8482.86 370.260   8
  -9  11  -6 7619.15 274.148  24
   9 -11  -6 8298.32 355.616   7
   9 -11   6 8503.30 388.623  10
   9 -11  -7-50.9172 67.6996  16
   9 -11   7 56.9895 81.5985   8
  -9  11  -7 100.923 61.6015  24
   9 -11  -7 11.4827 61.2203   7
   9 -11   7 27.9737 71.6003  10
   9 -11  -8 147.776 71.0754  16
   9 -11   8 184.389 75.8611   8
   9 -11  -8 226.838 69.3305   7
   9 -11   8 153.780 82.4724  10
   9 -11  -9 25.3170 60.6822  16
   9 -11   9 85.3511 74.2617   8
   9 -11  -9 47.9895 55.9125   7
   9 -11   9 218.303 98.7167  10
   9 -11  10 2087.96 176.225   8
   9 -11 -10 2026.96 168.368   7
   9 -11  10 2144.59 193.158  10
   9 -11  11 115.648 60.6471   8
  -9 -11 -11 114.855 60.0293  20
   9 -11  11 35.3521 60.3398  10
   9 -11  12 1859.91 151.520   8
  -9 -11 -12 1849.57 147.015  20
   9 -11  12 1869.75 162.070  10
   9 -11  13 163.720 55.9818   8
   9 -12   0 208.504 88.9333  16
   9 -12   0-4.35670 63.2271   8
   9 -12  -1 3662.19 259.450  16
   9 -12   1 3336.30 242.206  16
   9 -12  -1 3670.25 247.014   8
   9 -12   1 3367.47 240.090   8
   9 -12  -2-8.58412 67.6940  16
   9 -12   2-44.4168 67.0878  16
   9 -12   2 42.6691 69.9604   8
   9 -12  -3-107.812 92.9628  16
   9 -12   3 57.7133 78.9383  16
   9 -12   3-17.5040 64.2217   8
   9 -12  -3-5.57181 65.8572  19
   9 -12  -4 49.9981 70.6506  16
   9 -12   4 5.16671 65.4119   8
   9 -12  -4 81.3702 68.7605  19
   9 -12  -5 5093.39 294.316  16
   9 -12   5 4533.19 270.656   8
   9 -12   5 4642.18 282.634  10
   9 -12  -6 252.987 89.1195  16
   9 -12   6 161.305 70.9401   8
   9 -12  -6 321.407 89.0060   7
   9 -12   6 185.917 84.4619  10
   9 -12  -7 1082.40 138.514  16
   9 -12   7 1000.80 132.882   8
  -9  12  -7 862.590 107.911  24
   9 -12  -7 1073.19 128.867   7
   9 -12   7 1283.49 149.472  10
   9 -12  -8 39.2641 61.6547  16
   9 -12   8-20.7324 63.1294   8
   9 -12  -8-41.6983 55.0373   7
   9 -12   8 28.7459 61.3023  10
   9 -12  -9 447.147 93.7335  16
   9 -12   9 615.075 102.203   8
   9 -12  -9 610.010 94.6262   7
   9 -12   9 435.086 96.6942  10
   9 -12  10 91.6236 57.6662   8
   9 -12 -10 146.040 56.0037   7
   9 -12  10 25.1436 57.6309  10
   9 -12  11 1422.59 130.995   8
  -9 -12 -11 1242.38 117.353  20
   9 -13   0 120.359 77.8809  16
   9 -13   0 15.7208 62.1337   8
   9 -13  -1 3548.03 246.633  16
   9 -13   1 3501.58 240.596  16
   9 -13   1 3586.20 236.305   8
   9 -13  -2 110.233 66.4351  16
   9 -13   2 1.12245 67.1420  16
   9 -13   2 132.045 78.2683   8
   9 -13  -2 132.096 77.7918  19
   9 -13  -3 4947.61 288.995  16
   9 -13   3 4816.22 272.313   8
   9 -13  -3 4956.89 272.181  19
   9 -13  -4 202.503 85.3419  16
   9 -13   4 249.002 85.4405   8
   9 -13  -4 188.532 78.0424  19
   9 -13  -5 1554.76 167.598  16
   9 -13   5 1535.23 155.914   8
  -9  13  -5 1998.05 141.977  24
   9 -13  -5 1685.00 152.139   7
   9 -13  -5 1474.74 146.514  19
   9 -13  -6 778.248 117.541  16
   9 -13   6 690.193 109.709   8
   9 -13  -6 622.370 99.9064   7
  -9  13  -6 626.569 89.9461  24
   9 -13  -7 14.8115 57.1896  16
   9 -13   7 70.0680 60.9123   8
  -9  13  -7-18.0246 44.4462  24
   9 -13  -7 94.8256 60.4750   7
   9 -13  -8 155.306 72.0066  16
   9 -13   8 136.565 66.4754   8
  -9  13  -8 35.7599 45.6690  24
   9 -13  -8 126.112 57.9125   7
   9 -13   9 345.028 74.2824   8
   9 -13  10 180.742 58.5014   8
   9 -14   0 25.5806 66.1178  16
   9 -14  -1 113.518 70.1935  16
   9 -14   1-46.3958 64.6808  16
   9 -14  -1 73.7961 66.4507  19
   9 -14  -2 3018.89 215.636  16
   9 -14   2 2854.01 203.670  16
   9 -14   2 2795.63 197.587   8
   9 -14  -2 3166.14 213.633  19
   9 -14  -3 61.9818 65.6288  16
   9 -14   3 71.1340 55.0486   8
   9 -14  -4 484.059 93.3492  16
   9 -14   4 594.868 97.4147   8
   9 -14  -4 602.222 98.3270  19
   9 -14  -5-21.4784 63.1670  16
   9 -14   5 68.2859 53.1218   8
  -9  14  -5 174.432 61.0849  24
   9 -14  -5 63.3700 57.7580  19
   9 -14  -6 719.834 101.254  16
   9 -14   6 734.070 102.516   8
  -9  14  -6 422.052 74.6275  24
   9 -14  -7 253.770 71.6589  16
   9 -14   7 345.307 77.2783   8
  -9  14  -7 189.464 54.9513  24
   9 -14   8 872.993 101.620   8
   9 -15   0 67.0592 58.6922  16
   9 -15   0-57.1861 56.4524  19
   9 -15  -1 100.258 62.7472  16
   9 -15   1 148.130 63.2800  16
   9 -15  -1 148.464 65.4434  19
   9 -15   1 164.274 65.4349  19
   9 -15  -2 291.880 74.1837  16
   9 -15  -2 425.695 84.1974  19
   9 -15   2 425.938 92.6858  19
   9 -15  -3 609.743 97.9775  16
   9 -15  -3 582.164 89.1203  19
   9 -15  -4 481.038 85.4379  16
   9 -15   4 631.394 89.9602   8
  -9  15  -4 686.978 85.5759  24
   9 -15  -4 640.640 89.5856  19
   9 -15  -5 733.515 97.6634  16
  -9  15  -5 663.304 77.6904  24
  10   0   0 188559. 1514.06   1
  10   0  -1 10.9580 46.8826   1
  10   0   1 81.9440 53.3875   1
  10   0  -2 1195.13 124.301   1
  10   0   2 1127.75 123.855   1
  10   0   3 18.9505 48.4122   1
  10   0   4 20562.2 537.120   1
  10   0   5 51.6133 46.6236   1
  10   0   6 7191.61 327.617   1
  10   0   7-73.0852 82.2970   1
  10   0   8 42565.3 821.368   1
  10   0   9 48.0019 75.5618   9
 -10   0  -9-9.09931 68.9662   5
 -10   0 -10 56936.4 989.849   5
  10   0  10 56514.5 1030.35   9
  10   0  10 56736.6 1014.10  10
  10   0  11-4.51765 74.2809  10
  10   0  11-63.1778 80.5514   9
 -10   0 -11-27.7257 70.0490   5
 -10   0 -12 1410.10 164.490   5
  10   0  12 1324.95 172.487   9
 -10   0 -12 1378.91 150.007  13
  10   0  12 1484.76 168.516  10
  10   0  13-22.9668 68.2235  10
 -10   0 -13 60.1813 74.6517   5
  10   0  13-30.1732 83.1904   9
 -10   0 -13 43.7381 63.9589  13
 -10   0 -14 12017.6 430.978   5
  10   0  14 12324.3 471.581   9
 -10   0 -14 11301.3 403.300  13
 -10   0 -15-63.4251 63.5067   5
  10   0  15-93.7356 80.4985   9
 -10   0 -15-90.6476 67.6829  13
 -10   0 -16-32.5313 55.1345  13
 -10   0 -17-7.02565 42.1731  13
  10  -1   0 51.6643 49.1506   1
  10   1   0 166.914 59.8584   1
  10   1   1 1937.20 158.794   1
  10   1  -1 2004.67 156.922   1
  10  -1   1 1850.89 158.689   1
  10  -1  -1 1860.29 152.477   1
  10   1   2 492.920 92.9677   1
  10  -1   2 721.838 109.050   1
  10   1   3 23.4222 50.7906   1
  10  -1   3-4.21785 55.9697   1
  10  -1   4 3517.07 225.302   1
  10   1   4 3613.01 228.054   1
  10  -1   5 534.294 99.5790   1
  10   1   5 375.016 91.1833   1
  10  -1   6 281.309 77.6543   1
  10   1   6 117.784 67.6152   1
  10   1   7 430.891 93.4532   1
  10  -1   7 286.454 87.9015   1
  10  -1   8 61.7428 57.4150   1
  10   1   8 134.003 62.8234   1
  10  -1   9 1056.60 145.776  10
  10  -1   9 768.315 127.701   9
 -10   1  -9 1115.40 143.331   5
  10   1   9 1056.54 149.695   9
 -10  -1  -9 1246.98 156.151  21
  10  -1  10 283.871 98.4951  10
 -10   1 -10 365.221 98.2268   5
  10  -1  10 263.996 95.8191   9
  10   1  10 207.793 85.1039   9
 -10  -1 -10 243.372 87.0742   5
  10  -1  11 211.702 95.7995  10
  10   1  11 34.6525 71.5687  10
 -10   1 -11 236.257 92.3653   5
  10  -1  11 156.802 81.1510   9
  10   1  11 224.486 85.4541   9
 -10  -1 -11 181.366 85.4483   5
 -10  -1 -11 87.6806 59.0375  13
  10  -1  12 71.4830 73.6427  10
  10   1  12 44.3333 68.1292  10
 -10   1 -12-19.9812 64.8165   5
  10  -1  12-15.7505 77.0176   9
  10   1  12 8.23503 74.9139   9
 -10  -1 -12 49.3316 60.6109   5
 -10   1 -12 46.5140 57.0434  13
 -10  -1 -12 29.8851 54.3680  13
  10  -1  13 52.2612 64.3680  10
 -10   1 -13-0.89279 66.0473   5
  10  -1  13-72.5080 95.5732   9
 -10  -1 -13-46.2570 75.2326   5
  10   1  13-119.745 90.2199   9
 -10   1 -13-59.3169 59.4135  13
 -10  -1 -13 80.2745 69.8427  13
 -10   1 -14 100.697 79.4714   5
 -10  -1 -14 120.119 78.1395   5
  10   1  14 129.149 89.1883   9
 -10   1 -14 86.0924 63.1076  13
 -10  -1 -14 85.5761 69.5009  13
 -10   1 -15 0.62113 55.1845   5
 -10  -1 -15 38.3064 64.1916   5
  10   1  15 3.47334 62.5467   9
 -10   1 -15 14.2471 54.4880  13
 -10  -1 -15 3.15144 54.3450  13
  10   1  16-11.4544 59.2770   9
 -10   1 -16 41.3321 45.8212  13
 -10  -1 -16 121.911 56.0126  13
 -10  -1 -17-4.47996 45.5925  13
  10  -2   0 3391.36 207.180   1
  10  -2   1 7676.78 313.748   1
  10  -2  -1 7744.34 307.647   1
  10  -2   2 204.388 70.6211   1
  10  -2   3 39395.1 729.265   1
  10  -2   4 707.835 115.058   1
  10  -2   5 15841.0 481.830   1
  10  -2   6 463.824 101.011   1
  10  -2   7 81906.5 1135.04   1
  10  -2   8 8071.98 364.012   1
 -10   2  -8 8096.27 321.698  23
  10  -2   9 120.570 85.2119  10
 -10   2  -9-1.88414 65.6590   5
  10   2   9-54.1223 85.1698   9
  10  -2  -9 225.579 79.6501   7
 -10  -2  -9 166.711 70.8724  21
 -10   2 -10 5780.25 322.079   5
  10   2  10 5668.95 326.664   9
  10  -2  10 5986.02 336.022  10
  10  -2  11 27.7535 75.7895  10
 -10   2 -11 208.451 89.1280   5
  10   2  11 91.1725 76.1256   9
 -10  -2 -11-5.66991 59.5452  13
 -10  -2 -12 1445.17 166.074   5
  10  -2  12 1395.19 168.044  10
 -10   2 -12 1254.56 154.702   5
  10   2  12 1458.47 176.632   9
 -10   2 -12 1473.29 155.525  13
 -10  -2 -12 1686.65 166.287  13
  10   2  12 1507.47 173.132  10
 -10   2 -13 2193.07 199.248   5
 -10  -2 -13 2368.34 206.193   5
  10   2  13 2105.54 204.080   9
 -10   2 -13 2222.98 188.461  13
 -10  -2 -13 2354.50 191.800  13
  10  -2  13 2343.62 210.923  10
 -10  -2 -14 3984.56 254.045   5
  10   2  14 4174.23 276.984   9
 -10   2 -14 3780.46 235.712  13
 -10  -2 -14 3868.30 239.065  13
 -10   2 -14 3875.98 245.058   5
 -10  -2 -15 9977.05 375.145   5
  10   2  15 10232.4 412.462   9
 -10   2 -15 9292.27 350.553  13
 -10  -2 -15 9912.21 363.034  13
  10   2  16 89.6103 52.9796   9
 -10  -2 -16 111.759 54.8137  13
 -10  -2 -17 2666.56 167.728  13
  10  -3   0 9770.82 354.400   1
  10  -3   1 1508.33 147.292   1
  10  -3  -1 1961.06 158.148   1
  10  -3   2 426.242 83.3463   1
  10  -3   3 187.571 60.9744   1
  10  -3   4 3660.97 234.260   1
  10  -3   5 639.815 108.643   1
  10  -3   6 848.518 125.678   1
  10  -3   7 25.9963 54.8884   1
 -10   3  -8 5218.92 301.481   5
  10   3   8 4632.14 280.499   9
  10  -3   8 4502.63 276.586   1
 -10  -3  -8 5157.98 265.076  23
 -10  -3  -8 4907.17 284.214  21
  10  -3   8 4683.11 290.060  10
  10  -3   9 742.180 131.968  10
 -10   3  -9 509.260 99.5325   5
  10   3   9 646.185 122.641   9
  10  -3  -9 774.220 120.197   7
 -10  -3  -9 559.630 106.059  21
 -10   3 -10 1394.88 162.190   5
  10   3  10 1364.15 170.335   9
  10  -3 -10 1494.48 160.438   7
  10  -3  10 1337.97 174.231  10
  10  -3  11 202.242 88.8870  10
 -10   3 -11 355.882 101.403   5
  10   3  11 218.659 91.2025   9
  10  -3  12 119.284 81.8275  10
 -10   3 -12 84.0633 73.3159   5
  10   3  12 9.30417 85.2114   9
 -10  -3 -12 72.7837 67.5116  13
  10  -3  13 37.1476 66.7546  10
  10   3  13 201.255 81.5293   9
 -10  -3 -13 73.7113 59.7988   5
 -10   3 -13 198.849 80.8157  13
 -10  -3 -13-1.07253 69.1736  13
 -10   3 -13 226.234 79.7796   5
  10  -3  14 16.4491 70.8914  10
  10   3  14 140.387 92.0913   9
 -10  -3 -14 95.6905 63.1846   5
 -10   3 -14 38.0354 57.3553  13
 -10  -3 -14 93.1453 60.9463  13
 -10  -3 -15 224.891 73.0699   5
  10   3  15 316.022 94.9317   9
 -10  -3 -15 237.228 78.8235  13
 -10  -3 -16-56.0549 59.3323   5
  10   3  16-81.3159 73.6421   9
 -10  -3 -16 54.4615 50.3349  13
  10   3  17 51.2506 49.8548   9
 -10  -3 -17-92.2024 53.3652  13
  10  -4   0 123875. 1282.54   1
  10  -4   1 4807.07 260.186   1
  10  -4  -1 4852.01 252.394   1
  10  -4   2 11.8052 45.9443   1
  10  -4   3 10194.8 388.302   1
  10  -4   4 30057.8 676.652   1
  10  -4   5 2781.63 214.943   1
  10  -4   6 5134.77 287.898   1
  10  -4   7 18463.0 555.118   1
  10   4   8 4557.32 280.518   9
  10  -4  -8 4979.79 272.412   7
 -10  -4  -8 5036.30 291.774  21
  10  -4   8 4619.05 292.853  10
 -10   4  -8 5193.54 306.537   5
  10  -4   9 58.2568 75.1204  10
 -10   4  -9 90.0053 61.0005   5
  10   4   9 82.2733 67.6310   9
  10  -4  -9 72.1662 63.0487   7
 -10  -4  -9 53.6218 66.2369  21
  10   4  10 11953.9 466.959   9
  10  -4 -10 11209.3 420.759   7
  10  -4  10 10678.1 450.796  10
 -10   4 -10 11163.1 447.369   5
  10  -4  11 198.687 84.3372  10
  10   4  11 203.849 76.4412   9
  10   4  12 1546.58 174.538   9
  10  -4  12 1539.23 174.343  10
  10  -4  13-27.0752 66.6192  10
  10   4  13-79.4951 83.2182   9
 -10  -4 -13 144.012 72.3356  13
 -10  -4 -14 5091.97 282.420   5
  10   4  14 5591.48 311.078   9
 -10  -4 -14 5262.45 273.188  13
  10  -4  14 4838.09 280.466  10
 -10  -4 -15 4072.90 236.929   5
  10   4  15 4361.31 263.684   9
 -10  -4 -15 4002.99 229.558  13
 -10  -4 -16 113.393 53.0440   5
 -10  -4 -16 81.4272 53.5225  13
  10  -5   0 1361.62 141.353   1
  10  -5   1-20.3373 63.5729   1
  10  -5  -1-23.4942 69.2704   1
  10  -5   2 78.3353 63.7113   1
  10  -5   3 368.088 80.9504   1
  10  -5   4 642.100 108.837   1
  10  -5   5 609.737 111.063   1
  10  -5   6 96.0263 66.4627   1
  10  -5   7-41.4618 75.3020  17
  10  -5   7-22.6256 75.6244  10
  10  -5  -7 80.3728 61.1521   7
 -10  -5  -7 28.6562 67.3804  21
  10  -5   8 232.503 84.2653  10
  10  -5  -8 417.698 97.0221   7
 -10  -5  -8 573.345 116.049  21
  10  -5   9 344.372 100.840  10
  10   5   9 365.945 94.2988   9
  10  -5  -9 360.803 98.5364   7
 -10  -5  -9 238.673 92.2745  21
  10  -5  10 221.098 89.3793  10
  10   5  10 359.365 95.5818   9
  10  -5 -10 354.769 101.600   7
  10  -5  11-19.5611 73.0967  10
  10   5  11-26.8837 69.3305   9
  10  -5 -11-18.3732 66.4087   7
  10  -5  12 55.1418 73.2993  10
  10   5  12 82.7337 71.2606   9
  10  -5  13 95.6875 70.3641  10
  10   5  13-4.07179 66.6206   9
 -10  -5 -13 108.661 68.7675  13
  10  -5  14 412.404 100.497  10
  10   5  14 535.925 114.550   9
 -10  -5 -14 415.855 93.2550  13
  10   5  15-140.152 81.4691   9
 -10  -5 -15-36.0088 50.2764   5
 -10  -5 -15 17.3280 47.5538  13
 -10  -5 -16 31.8905 50.2066   5
  10   5  16-71.7966 57.2902   9
 -10  -5 -16-11.0898 48.2817  13
  10  -6   0 91813.9 1151.48   1
  10  -6   1 296.296 81.9871   1
  10  -6   2 2143.04 187.305   1
  10  -6   3 23589.7 611.498   1
  10  -6   4 14172.3 481.873   1
  10  -6   5 144.584 74.5191   1
  10  -6   6 507.702 104.611  10
  10  -6  -7 8488.50 361.937   7
  10  -6   7 7984.32 382.640  10
  10  -6  -8 4236.39 258.672   7
 -10  -6  -8 4173.57 270.036  21
  10  -6   8 4253.08 284.028  10
  10  -6   9 579.937 126.040  10
  10  -6  -9 588.270 110.892   7
 -10  -6  -9 679.012 113.631  21
  10   6  10 5276.27 305.407   9
  10  -6 -10 5090.05 288.059   7
  10  -6  10 5099.90 315.771  10
  10  -6  11 358.713 107.475  10
  10   6  11 359.290 95.3336   9
  10  -6 -11 194.697 66.9924   7
  10  -6  12 1024.33 145.085  10
  10   6  12 1207.24 153.477   9
  10   6  13 1847.81 181.496   9
  10  -6  13 1675.64 176.056  10
  10   6  14 1388.89 152.592   9
 -10  -6 -14 1680.07 152.143  13
  10  -6  14 1222.35 143.226  10
 -10  -6 -15 1640.74 147.797   5
  10   6  15 1403.69 141.961   9
 -10  -6 -15 1447.39 135.552  13
  10  -6  15 1504.18 144.613  10
  10   6  16 24.7311 47.4714   9
 -10  -6 -16 55.9706 39.1599  13
  10  -7   0 72.3508 59.4524   1
  10  -7   1 20.2019 61.6789   1
  10  -7   2 439.818 94.4971   1
  10  -7   3 271.988 87.5878   1
  10  -7   4-61.6951 71.4685  10
  10  -7  -4-48.0815 74.0773  16
  10  -7   4-19.3645 56.4035   8
  10  -7   4-65.0314 58.8872   1
  10  -7   4-96.6806 75.4384  18
  10  -7   5-57.5327 87.2108  10
  10  -7  -5 25.9093 70.0069  16
  10  -7   5-77.9657 71.2193   8
  10  -7   5 16.7369 67.1448  18
  10  -7   6-79.0769 90.9722  10
  10  -7   6-55.4655 71.0704   8
  10  -7   7 284.542 95.8666  10
  10  -7  -7 377.726 102.654   7
  10  -7   8 143.506 79.9248  10
  10  -7  -8 189.530 81.0719   7
  10  -7   9 84.5632 72.3393  10
  10  -7  -9 1.43142 69.0340   7
  10  -7 -10 2472.81 204.416   7
  10  -7  10 2410.87 218.014  10
  10  -7  11 303.365 105.473  10
  10  -7 -11 191.449 79.6450   7
  10   7  12-7.61360 72.7559   9
  10  -7  12 42.4850 63.4141  10
  10   7  13 63.3314 58.2806   9
  10  -7  13 53.3783 59.2607  10
  10   7  14 513.973 94.5982   9
 -10  -7 -14 647.783 100.154  13
  10  -7  14 502.441 92.0990  10
  10   7  15-83.0343 63.1842   9
 -10  -7 -15 68.3352 51.1778  13
  10  -7  15 4.29236 48.9699  10
  10  -8   0 8818.97 370.021   8
  10  -8   0 8431.05 367.199   1
  10  -8  -1 3432.24 241.256  16
  10  -8  -1 3179.38 229.587   8
  10  -8   1 3079.69 223.523   8
  10  -8  -2 15.5860 68.2787  16
  10  -8  -2-85.5053 75.6301   8
  10  -8   2-55.2222 76.3035   8
  10  -8  -3 15903.3 503.010  16
  10  -8   3 14781.6 478.407   8
  10  -8  -4 1571.38 166.437  16
  10  -8   4 1378.34 152.820   8
  10  -8  -5 3498.86 243.876  16
  10  -8   5 3662.94 242.510   8
  10  -8   5 3562.36 254.976  10
  10  -8  -6 6850.68 331.272  16
  10  -8   6 6963.20 334.522   8
  10  -8   6 6915.03 358.344  10
  10  -8   7 26680.1 646.631   8
  10  -8  -7 25855.8 639.003   7
  10  -8   7 24668.8 673.562  10
  10  -8   8 147.197 83.2303  10
  10  -8  -8 199.499 88.6952   7
  10  -8   9 234.645 93.0278  10
  10  -8  -9 311.623 88.9247   7
  10  -8 -10 1901.16 179.090   7
  10  -8  10 2217.81 205.325  10
  10  -8 -11 516.299 105.988   7
  10  -8  11 564.488 111.919  10
  10  -8  12 8.81982 59.7756  10
  10  -8  13 420.913 93.9196  10
 -10  -8 -14 285.083 71.5227  13
  10  -8  14 173.745 66.3328  10
  10  -9   0 1474.71 169.212  16
  10  -9   0 1444.64 159.457   8
  10  -9  -1 1257.27 156.461  16
  10  -9   1 899.210 136.089  16
  10  -9  -1 1336.13 158.409   8
  10  -9   1 971.236 133.276   8
  10  -9  -2 18.2864 66.9410  16
  10  -9   2 26.9221 72.5199  16
  10  -9  -2 144.046 86.3103   8
  10  -9   2 73.4479 60.6611   8
  10  -9  -3 234.024 88.7354  16
  10  -9   3 292.061 88.1343   8
  10  -9  -4 343.531 99.2237  16
  10  -9   4 465.640 107.364   8
  10  -9  -5 822.791 127.645  16
  10  -9   5 941.106 138.216   8
  10  -9   5 838.834 135.738  10
  10  -9   6 42.3493 63.8323   8
  10  -9   6-63.4309 78.4190  10
  10  -9  -7 85.5196 73.9992  16
  10  -9   7 118.512 69.8187   8
  10  -9  -7 145.063 78.2972   7
  10  -9   7-56.7922 87.7614  10
  10  -9   8 93.3690 73.4887   8
  10  -9  -8 17.8007 61.9153   7
  10  -9   8 42.7672 69.7960  10
  10  -9   9 17.5591 59.3674   8
  10  -9  -9-43.9214 57.2133   7
  10  -9   9 36.0576 75.8368  10
  10  -9  10-9.13237 64.9560   8
  10  -9 -10 22.8217 64.0109   7
  10  -9  10 38.2994 61.4525  10
  10  -9  11-30.8816 58.3909   8
  10  -9 -11 74.2631 63.8785   7
  10  -9  11 74.4470 73.0325  10
  10  -9  12 50.8535 58.9142   8
  10  -9  12 17.1772 62.1560  10
  10  -9  13 102.959 56.9967   8
  10  -9  13 78.4580 56.9027  10
 -10  -9 -14 87.1982 52.9429  13
  10  -9  14 79.0496 59.5404  10
  10 -10   0 22733.9 625.940  16
  10 -10   0 22230.5 607.257   8
  10 -10  -1 2408.39 214.908  16
  10 -10   1 2468.49 213.899  16
  10 -10  -1 2522.67 211.720   8
  10 -10   1 2488.14 209.555   8
  10 -10   2-14.8079 72.6052  16
  10 -10   2 18.9787 66.8953   8
  10 -10  -3 55.0156 79.1380  16
  10 -10   3 146.529 87.2520  16
  10 -10   3 102.902 73.1799   8
  10 -10  -4 131.256 83.0386  16
  10 -10   4 159.456 72.4087  16
  10 -10   4 189.418 78.2461   8
  10 -10  -5-16.3891 78.1512  16
  10 -10   5 68.2191 78.6860  16
  10 -10   5 72.7555 70.7949   8
  10 -10   5 37.0586 73.2648  10
  10 -10  -6 625.001 116.611  16
  10 -10   6 867.644 129.632  16
  10 -10   6 977.982 134.855   8
  10 -10  -6 885.846 126.220   7
  10 -10   6 918.633 141.615  10
  10 -10  -7 765.801 125.767  16
  10 -10   7 621.754 114.522   8
  10 -10  -7 574.805 110.505   7
  10 -10   7 671.083 128.867  10
  10 -10   8 7040.04 331.505   8
  10 -10  -8 7468.72 333.150   7
  10 -10   8 7222.85 356.176  10
  10 -10   9 3366.53 228.762   8
  10 -10  -9 3632.92 230.772   7
  10 -10   9 3521.73 251.938  10
  10 -10  10 11176.5 393.000   8
  10 -10 -10 11234.5 386.486   7
  10 -10  10 10436.1 408.269  10
  10 -10  11 198.731 69.2779   8
  10 -10  11 176.301 79.1836  10
  10 -10  12 156.452 57.3261   8
  10 -10  12 361.860 82.8179  10
  10 -10  13 854.957 99.4398   8
  10 -10  13 1028.24 116.267  10
  10 -11   0 2126.51 201.476  16
  10 -11   0 2297.40 203.819   8
  10 -11  -1 99.1213 84.8642  16
  10 -11   1 66.8520 79.1066  16
  10 -11  -1 111.804 73.9409   8
  10 -11   1 111.267 80.3228   8
  10 -11  -2 198.234 98.4023  16
  10 -11   2 101.290 70.6589  16
  10 -11   2 47.3418 78.7063   8
  10 -11  -3-7.08969 71.4179  16
  10 -11   3 3.91150 71.3011  16
  10 -11   3-68.7692 77.1273   8
  10 -11  -4 53.0933 69.5662  16
  10 -11   4 30.6488 67.9684  16
  10 -11   4 48.0118 60.7862   8
  10 -11  -5 27.7075 71.1053  16
  10 -11   5-40.4638 65.0417  16
  10 -11   5 176.972 85.4550   8
  10 -11   5-0.58932 66.7877  10
  10 -11  -6 518.665 113.464  16
  10 -11   6 498.980 102.242   8
  10 -11  -6 585.454 103.026   7
  10 -11   6 461.355 109.332  10
  10 -11  -7 182.893 79.2135  16
  10 -11   7-53.3905 71.6895   8
  10 -11  -7-29.7035 73.6483   7
  10 -11   7 16.7380 65.5398  10
  10 -11  -8 78.4550 68.8904  16
  10 -11   8 271.167 83.8059   8
  10 -11  -8 97.9120 67.4734   7
  10 -11   8 202.268 98.3956  10
  10 -11   9 134.719 66.0358   8
  10 -11  -9 90.4343 61.9626   7
  10 -11   9 175.280 81.5645  10
  10 -11  10 221.195 74.2189   8
  10 -11 -10 79.6926 60.6474   7
  10 -11  10 219.568 72.4190  10
  10 -11  11 158.490 61.9327   8
  10 -11  11-4.52821 53.8720  10
  10 -11  12-40.9196 43.2771   8
  10 -11  12 37.8319 43.0729  10
  10 -12   0 2266.57 203.468  16
  10 -12   0 2478.82 202.627   8
  10 -12  -1 436.261 101.435  16
  10 -12   1 481.031 105.445  16
  10 -12   1 435.080 101.970   8
  10 -12  -2 1783.04 185.119  16
  10 -12   2 1585.37 169.330  16
  10 -12   2 1537.33 164.848   8
  10 -12  -3 5635.09 306.529  16
  10 -12   3 5366.36 291.802  16
  10 -12   3 5744.55 301.914   8
  10 -12  -3 5489.69 285.830  19
  10 -12  -4 791.628 128.251  16
  10 -12   4 633.897 108.623  16
  10 -12  -5 703.420 120.673  16
  10 -12   5 601.478 108.098   8
  10 -12  -5 438.617 92.1205   7
  10 -12  -6 2069.75 184.962  16
  10 -12   6 1730.97 165.507   8
 -10  12  -6 1678.41 133.121  24
  10 -12  -6 1558.99 151.035   7
  10 -12   6 1522.06 160.136  10
  10 -12  -7 5872.22 284.733  16
  10 -12   7 5905.82 287.164   8
  10 -12  -7 5780.88 270.615   7
  10 -12   7 5666.29 291.889  10
  10 -12  -8 3142.53 203.102  16
  10 -12   8 2888.90 198.122   8
  10 -12  -8 2966.92 187.740   7
  10 -12   8 2680.79 202.008  10
  10 -12   9 153.175 67.3074   8
  10 -12  -9 220.286 62.6071   7
  10 -12   9 204.432 69.8617  10
  10 -12  10 165.555 60.6607   8
  10 -12  10 152.580 60.2912  10
  10 -13   0 134.124 67.1467  16
  10 -13  -1 193.532 73.9779  16
  10 -13   1 193.753 76.8148  16
  10 -13   1 77.3913 61.6780   8
  10 -13  -2 148.802 80.5428  16
  10 -13   2 143.893 73.5354  16
  10 -13   2 229.527 81.6292   8
  10 -13  -2 149.896 76.2580  19
  10 -13  -3 118.321 73.9639  16
  10 -13   3-26.0097 58.1066  16
  10 -13   3 25.0429 58.3970   8
  10 -13  -3 65.8931 62.7380  19
  10 -13  -4 244.826 81.5159  16
  10 -13   4 287.441 76.5412   8
  10 -13  -4 179.190 64.9631   7
  10 -13   5-61.9511 53.6948   8
  10 -13  -5 21.0603 49.4440   7
  10 -13  -6 98.0245 54.0965  16
  10 -13   6 47.3508 55.7754   8
 -10  13  -6 21.5337 43.8359  24
  10 -13  -6 41.9944 48.2785   7
  10 -13  -7-31.0926 51.6886  16
  10 -13   7 0.31958 52.3751   8
 -10  13  -7-53.9636 47.2816  24
  10 -13  -7 15.0985 46.5512   7
  10 -13   8 89.1408 54.4614   8
  10 -13  -8 133.557 51.8240   7
  10 -13   9 170.242 58.8473   8
  10 -14   0 5637.79 274.265  16
  10 -14   0 6015.95 279.482  19
  10 -14  -1 1549.97 153.212  16
  10 -14   1 1643.08 152.037  16
  10 -14  -1 1793.13 159.425  19
  10 -14  -2 257.905 79.8268  16
  10 -14   2 156.310 71.9095  16
  10 -14  -3 223.125 78.9135  16
  10 -14   3 233.574 75.0602   8
  10 -14  -3 192.537 64.0355   7
  10 -14  -3 131.734 58.4177  19
  10 -14  -4 794.306 110.821  16
  10 -14   4 681.090 95.9878   8
 -10  14  -4 981.842 99.2748  24
  10 -14  -4 703.632 97.3503   7
  10 -14  -4 734.618 97.5985  19
  10 -14  -5 372.179 81.3267  16
  10 -14   5 437.096 75.8746   8
 -10  14  -5 393.799 65.7621  24
  10 -14  -5 280.501 64.1422   7
  10 -14  -6 392.456 79.3151  16
  10 -14   6 425.968 77.9408   8
 -10  14  -6 199.577 54.4274  24
  10 -15   0 35.6536 51.1625  16
  10 -15   0-23.1024 49.6479  19
  10 -15  -1 59.8123 47.6893  16
  10 -15  -1 23.6880 45.8929  19
  10 -15   1 72.2037 51.1085  19
  10 -15  -2 62.8359 53.3468  16
  10 -15   2-35.2908 46.7888  19
  10 -15   3 63.9642 43.7039  19
  11   0   0 42.6320 51.4764   1
  11   0  -1-93.0079 76.1864   1
  11   0   1-27.0708 54.5836   1
  11   0   2 8015.69 346.841   1
  11   0   3-27.8934 61.5807   1
  11   0   4 29339.5 683.059   1
  11   0   5-62.8398 63.5732   1
  11   0   6 4964.45 291.973   1
  11   0   7-70.8762 59.9699   1
 -11   0  -7 35.3668 65.6546   5
 -11   0  -7 67.5646 73.2917  21
 -11   0  -8 21397.5 611.203   5
  11   0   8 21266.8 603.654  17
  11   0   9 24.7972 77.4791  10
 -11   0  -9 76.9289 76.4317   5
  11   0  10 98.2744 73.2941  10
 -11   0 -10-6.76089 72.7148   5
  11   0  11 16.9629 65.2633  10
 -11   0 -11 37.5129 61.2732   5
 -11   0 -12 6139.16 322.547   5
  11   0  12 6442.24 341.833  10
  11   0  13-63.2821 65.4157  10
 -11   0 -13 60.1069 63.4032   5
 -11   0 -13 63.9262 62.5520  13
 -11   0 -14 1001.54 131.228   5
 -11   0 -14 1145.69 131.232  13
 -11   0 -15 33.0165 51.2203   5
 -11   0 -15-26.5916 49.3292  13
 -11   0 -16 71.1238 46.5160  13
  11  -1   0 259.180 73.8301   1
  11   1   1 16184.9 485.733   1
  11  -1   1 15840.1 480.786   1
  11  -1  -1 16328.5 472.310   1
  11   1   2 8528.87 359.193   1
  11  -1   2 8862.97 365.109   1
  11   1   3 22264.0 586.450   1
  11  -1   3 23090.9 598.858   1
  11   1   4 24233.0 620.333   1
  11  -1   4 23573.9 611.760   1
  11   1   5 4983.99 289.148   1
  11  -1   5 5163.62 291.334   1
  11   1   6 9514.16 401.428   1
  11  -1   6 9618.70 403.926   1
 -11  -1  -7 1143.94 153.662   5
  11  -1   7 865.334 134.700  17
 -11   1  -7 876.643 134.195   5
 -11  -1  -7 748.337 126.848  21
  11  -1   7 1088.45 145.468   1
  11  -1   8 1137.88 149.179  17
  11  -1   8 960.842 143.585  10
  11   1   8 1070.44 150.449   9
 -11   1  -8 1055.00 149.520   5
 -11  -1  -8 1124.96 153.025   5
 -11  -1  -8 1162.54 150.139  21
  11  -1   9 73.8733 84.7929  10
 -11   1  -9 154.335 89.8331   5
  11   1   9-56.0284 82.9284   9
 -11  -1  -9 187.955 95.6996   5
 -11  -1  -9 159.897 84.6301  21
  11  -1  10 210.543 91.7830  10
 -11   1 -10 328.740 100.965   5
  11   1  10 177.553 78.3051   9
 -11  -1 -10 335.269 100.624   5
  11  -1  11 1238.15 162.434  10
  11   1  11 1340.87 172.716  10
 -11   1 -11 1204.02 155.994   5
  11   1  11 1351.27 168.644   9
 -11  -1 -11 1133.85 152.409   5
 -11   1 -12 3455.10 245.481   5
 -11  -1 -12 3408.62 245.368   5
  11   1  12 3423.51 260.102   9
  11  -1  12 3461.06 251.332  10
  11   1  12 3604.00 257.969  10
 -11   1 -13 1512.67 164.271   5
 -11  -1 -13 1584.79 168.538   5
  11   1  13 1462.90 174.562   9
 -11  -1 -13 1645.55 156.650  13
  11  -1  13 1594.46 173.300  10
  11   1  13 1477.97 159.010  10
 -11  -1 -14 3880.87 241.237   5
 -11   1 -14 3454.77 211.548  13
 -11  -1 -14 3462.80 212.709  13
  11  -1  14 3697.30 242.551  10
 -11   1 -14 3581.50 232.106   5
 -11  -1 -15 50.2314 55.2453   5
 -11   1 -15 6.45722 50.4693  13
 -11  -1 -15 75.0485 54.2431  13
 -11  -1 -16 99.9391 59.5032   5
 -11  -1 -16 85.4591 48.9623  13
  11  -2   0-15.3620 50.6714   1
  11  -2   1 19447.6 534.915   1
  11  -2  -1 19365.6 517.467   1
  11  -2   2 146.172 63.2123   1
  11  -2   3 4204.27 257.622   1
  11  -2   4 1665.82 167.899   1
  11  -2   5 18831.9 560.681   1
  11  -2   6-59.3428 75.9784   1
 -11   2  -7 11543.2 451.751   5
  11  -2   7 11565.6 444.658  17
  11   2   7 11770.2 451.430   9
 -11  -2  -7 10681.2 425.922  21
  11  -2   7 11208.4 447.570  10
 -11   2  -8 1920.92 192.493   5
  11  -2   8 1744.68 184.869  17
  11   2   8 1827.42 193.152   9
 -11  -2  -8 1753.23 180.368  21
  11  -2   8 1921.35 197.054  10
 -11   2  -9 1992.74 198.843   5
  11   2   9 1742.85 184.380   9
 -11  -2  -9 2169.98 201.282  21
  11  -2   9 1865.56 199.375  10
  11  -2  10 424.399 115.828  10
 -11   2 -10 453.861 108.930   5
  11   2  10 506.844 116.265   9
 -11  -2 -10 510.794 116.720   5
 -11  -2 -10 564.836 112.372  21
 -11   2 -11 4413.61 282.523   5
 -11  -2 -11 4408.48 282.833   5
  11   2  11 4748.59 307.357   9
  11  -2  11 4830.72 303.123  10
  11   2  11 4991.26 306.692  10
  11  -2  12 657.180 126.017  10
 -11   2 -12 690.286 118.009   5
  11   2  12 766.898 132.171  10
  11   2  12 819.579 135.538   9
 -11  -2 -12 815.407 130.913   5
 -11  -2 -12 669.182 108.263  13
  11  -2  13 104.253 73.2642  10
 -11   2 -13-64.5240 71.1157   5
  11   2  13-37.3163 66.8317  10
  11   2  13 15.1576 66.2270   9
 -11  -2 -13 90.5183 78.0647   5
 -11  -2 -13 39.8436 59.2309  13
  11  -2  14 237.455 82.3601  10
  11   2  14 181.557 70.2567   9
 -11  -2 -14 230.875 80.2733   5
 -11   2 -14 263.395 75.0956  13
 -11  -2 -14 257.140 77.4334  13
 -11  -2 -15 1855.08 159.332   5
 -11  -2 -15 1933.93 153.152  13
 -11  -2 -16-24.8167 47.0367   5
 -11  -2 -16 74.9167 44.6524  13
  11  -3   0 104.595 70.5913   1
  11  -3   1 19970.1 543.948   1
  11  -3  -1 20228.6 532.326   1
  11  -3   2 1448.69 156.598   1
  11  -3   3 23674.4 609.167   1
  11  -3   4 2436.10 203.259   1
  11  -3   5 7422.20 353.109   1
 -11   3  -6 1688.72 175.674   5
  11  -3   6 1425.62 164.092  17
  11  -3   6 1520.87 167.946   1
 -11  -3  -6 1575.24 172.316  21
  11  -3   6 1513.19 166.175  10
 -11   3  -7 4651.11 289.067   5
  11  -3   7 4095.10 270.709  17
  11   3   7 4320.47 276.219   9
 -11  -3  -7 4217.05 271.217  21
  11  -3   7 4381.57 283.161  10
  11  -3   8 54.8955 77.4523  17
  11  -3   8 18.8526 70.2520  10
 -11   3  -8 157.342 78.6194   5
  11   3   8 29.7259 66.8344   9
  11  -3  -8 87.2871 64.8811   7
 -11  -3  -8 186.090 83.3097  21
  11  -3   9 7.37207 73.2556  10
 -11   3  -9-54.7428 72.2874   5
  11   3   9-92.5031 93.8785   9
  11  -3  -9 25.2942 60.0588   7
 -11  -3  -9 52.5894 70.1244  21
  11  -3  10 91.1332 79.4640  10
 -11   3 -10 74.5200 76.0291   5
  11   3  10 82.2579 77.3837   9
  11  -3 -10 6.08802 64.5011   7
 -11  -3 -10 186.269 89.7174  21
  11   3  11 10348.9 440.130   9
  11  -3  11 10314.7 441.677  10
 -11   3 -11 9974.64 419.513   5
  11  -3  12 725.355 123.507  10
  11   3  12 623.907 120.534  10
  11   3  12 552.209 116.035   9
 -11  -3 -12 739.343 125.130   5
 -11  -3 -12 716.829 105.901  13
 -11   3 -12 534.775 107.223   5
 -11  -3 -13 5725.01 304.400   5
  11   3  13 5936.09 324.133   9
 -11  -3 -13 5400.63 271.240  13
  11  -3  13 6116.52 321.821  10
  11  -3  14 629.003 110.533  10
  11   3  14 807.747 126.212   9
 -11  -3 -14 748.453 115.169   5
 -11  -3 -14 678.372 101.157  13
 -11  -3 -15 57.1639 48.2376   5
 -11  -3 -15 57.8835 50.1823  13
 -11  -3 -16 71.0492 47.3726   5
 -11  -3 -16 43.4013 42.6715  13
  11  -4   0-50.5880 59.6673   1
  11  -4   1 6141.38 304.857   1
  11  -4   2 20784.9 569.607   1
  11  -4   3 1311.03 153.692   1
  11  -4   4 5636.22 309.172   1
  11  -4   5 1969.37 187.531   1
 -11  -4  -5 1471.16 162.819  21
  11  -4   6 6250.46 332.547  17
  11  -4  -6 6178.57 298.598   7
 -11  -4  -6 5659.06 314.956  21
  11  -4   6 6270.23 333.430  10
  11  -4   7 27.0219 62.4773  17
  11  -4   7-49.6191 78.0643  10
  11  -4  -7 69.8044 61.3963   7
 -11  -4  -7-0.31025 61.9474  21
 -11   4  -7 43.8380 66.1421   5
  11  -4   8 5458.65 308.628  17
  11   4   8 5572.92 316.683   9
  11  -4  -8 5687.40 295.169   7
 -11  -4  -8 5640.82 314.814  21
  11  -4   8 5519.75 325.857  10
  11  -4   9 11.9928 70.0032  10
  11   4   9-17.1584 67.5068   9
  11  -4  -9 2.09331 62.1464   7
 -11  -4  -9-65.4857 80.1048  21
  11  -4  10 237.349 93.3944  10
  11   4  10 138.932 76.5118   9
  11  -4 -10 287.984 92.7207   7
 -11  -4 -10 297.325 96.0625  21
  11  -4  11 826.542 135.973  10
  11   4  11 639.844 119.711   9
  11  -4  12 1425.24 162.876  10
  11   4  12 1626.31 173.093   9
 -11  -4 -12 1329.35 140.456  13
  11  -4  13 210.379 82.3634  10
  11   4  13 179.911 67.1100   9
 -11  -4 -13 177.003 77.9700   5
 -11  -4 -13 99.6626 66.5025  13
 -11  -4 -14 2821.78 200.893   5
  11   4  14 2689.63 208.220   9
 -11  -4 -14 2439.96 177.038  13
  11  -4  14 2441.66 192.984  10
  11   4  15 296.753 80.2661   9
 -11  -4 -15 363.089 80.4106   5
 -11  -4 -15 346.839 71.9162  13
  11  -4  15 339.084 80.8436  10
  11  -5   0-56.1994 66.5667   1
  11  -5   1 258.681 72.9165   1
  11  -5   2 6887.31 336.655   1
  11  -5   3 3331.66 241.547   1
  11  -5   4 26970.5 679.557  17
  11  -5   4 26995.8 680.742   1
  11  -5   4 26017.6 670.206  18
  11  -5   5 2447.14 213.453  17
  11  -5   5 1975.63 190.941  10
  11  -5   5 2021.20 192.682  18
  11  -5   6 8443.40 389.440  17
  11  -5  -6 9738.15 382.448   7
 -11  -5  -6 9497.12 405.172  21
  11  -5   6 9611.56 413.460  10
  11  -5   7 578.812 124.736  10
  11  -5  -7 402.594 96.1254   7
 -11  -5  -7 746.375 132.662  21
  11  -5   8 1002.05 149.497  10
  11  -5  -8 760.612 122.061   7
 -11  -5  -8 831.144 132.569  21
  11  -5   9 647.220 122.795  10
  11   5   9 729.861 120.745   9
  11  -5  -9 698.343 112.412   7
 -11  -5  -9 604.980 111.134  21
  11  -5  10 333.680 99.9380  10
  11   5  10 383.539 101.193   9
  11  -5 -10 493.499 108.470   7
  11  -5  11-51.1585 83.5492  10
  11   5  11 66.3618 62.1979   9
  11   5  12 2282.32 199.134   9
 -11  -5 -12 2012.69 169.890  13
  11  -5  12 2484.48 213.573  10
  11  -5  13-26.5538 58.4331  10
  11   5  13-44.9848 81.6981   9
 -11  -5 -13 100.245 72.1034   5
 -11  -5 -13 29.4867 52.8699  13
 -11  -5 -14 2910.02 199.016   5
  11   5  14 3057.50 214.378   9
 -11  -5 -14 2992.54 190.600  13
  11  -5  14 2833.51 204.224  10
  11   5  15-49.3890 59.4339   9
 -11  -5 -15 42.2266 50.0571   5
 -11  -5 -15 16.9809 45.4384  13
  11  -5  15 49.7130 52.5117  10
  11  -6   0-4.37459 52.4080   1
  11  -6   0-91.7613 69.4569   8
  11  -6   0-28.2611 72.2892  18
  11  -6   1 7353.96 350.994   1
  11  -6  -1 7256.37 329.670   8
  11  -6   1 7202.21 322.714   8
  11  -6  -1 7353.83 366.144  18
  11  -6   1 8086.69 381.647  18
  11  -6   2 8154.15 372.883   1
  11  -6  -2 7732.12 344.226   8
  11  -6   2 7632.69 333.129   8
  11  -6  -2 7486.70 365.138  18
  11  -6   2 7797.22 377.457  18
  11  -6  -3 2381.66 194.702  16
  11  -6   3 2585.66 198.633   8
  11  -6  -3 2609.04 218.651  18
  11  -6   3 3011.93 239.610  18
  11  -6   4 1860.51 173.423   8
  11  -6  -4 1677.19 176.644  18
  11  -6   4 1823.09 190.232  18
  11  -6   5 11262.1 403.346   8
  11  -6   5 11257.9 440.145  10
  11  -6   5 11071.7 443.926  18
  11  -6   6 1409.59 168.052  10
  11  -6   6 1174.40 140.873   8
  11  -6  -6 1475.10 159.106   7
  11  -6   7-95.4301 90.2058  10
  11  -6   7 28.1010 61.0117   8
  11  -6  -7 19.1332 64.4498   7
 -11  -6  -7 8.85061 65.1522  21
  11  -6  -8 1969.88 181.596   7
 -11  -6  -8 2016.89 190.402  21
  11  -6   8 1597.83 181.090  10
  11  -6   9 95.5651 83.4486  10
  11  -6  -9-6.91856 69.9787   7
 -11  -6  -9 49.1783 62.0748  21
  11  -6  10 165.841 79.9010  10
  11  -6 -10 201.933 74.6555   7
  11  -6  11 1252.28 157.101  10
  11   6  11 1411.74 161.987   9
  11  -6 -11 1331.56 147.938   7
  11  -6  12 23.8020 64.3710  10
  11   6  12 160.803 68.8380   9
  11   6  13 12.0379 58.1701   9
 -11  -6 -13 56.2771 48.9501  13
  11  -6  13 65.9648 64.1781  10
  11   6  14 498.011 90.0763   9
 -11  -6 -14 715.020 107.534   5
 -11  -6 -14 741.289 99.7662  13
  11  -6  14 724.622 111.620  10
 -11  -6 -15 1044.30 111.924   5
 -11  -6 -15 894.872 99.3082  13
  11  -7   0-22.9815 57.1419   8
  11  -7   0 20.5344 81.0860  18
  11  -7  -1 10476.2 403.442   8
  11  -7   1 10364.5 398.048   8
  11  -7  -1 10002.8 432.748  18
  11  -7  -2 2416.55 202.290  16
  11  -7  -2 2433.18 202.161   8
  11  -7   2 2142.10 188.793   8
  11  -7  -2 2316.11 211.822  18
  11  -7   2 2457.95 221.358  18
  11  -7  -3 6832.29 331.782  16
  11  -7   3 5822.14 299.788   8
  11  -7   3 5940.45 338.919  18
  11  -7  -4 9413.97 384.193  16
  11  -7   4 9787.79 386.827   8
  11  -7   4 9524.13 418.243  18
  11  -7   5 352.446 110.905  10
  11  -7   5 239.276 76.8722   8
  11  -7   6 5470.96 292.168   8
  11  -7  -6 5812.52 305.669   7
  11  -7   6 5167.91 310.898  10
  11  -7   7 482.953 114.470  10
  11  -7   7 530.768 102.701   8
  11  -7  -7 662.378 118.492   7
 -11  -7  -7 593.500 119.800  21
  11  -7   8 211.496 96.2901  10
  11  -7   8 84.5531 65.6683   8
  11  -7  -8 108.685 76.7003   7
 -11  -7  -8 69.6115 66.6455  21
  11  -7   9 30.7363 77.3582  10
  11  -7   9-46.8634 64.9004   8
  11  -7  -9-53.7792 58.9427   7
 -11  -7  -9-101.535 76.7979  21
  11  -7  10 1195.24 158.451  10
  11  -7  10 1086.59 130.404   8
  11  -7 -10 1104.94 143.162   7
  11  -7  11 2097.44 172.329   8
  11  -7 -11 1998.68 175.036   7
  11  -7  11 2311.71 203.472  10
  11  -7  12 1235.33 131.913   8
  11  -7  12 1051.51 137.316  10
 -11  -7 -13 932.264 111.733  13
  11  -7  13 1198.00 139.415  10
 -11  -7 -14 947.764 112.523   5
 -11  -7 -14 1069.95 111.495  13
  11  -7  14 1042.12 119.230  10
  11  -8   0-122.288 83.8342  16
  11  -8   0 38.4380 67.5504   8
  11  -8  -1 5320.81 303.309  16
  11  -8  -1 5661.20 305.715   8
  11  -8   1 5418.73 297.329   8
  11  -8  -2 3626.98 254.023  16
  11  -8   2 3318.17 233.488   8
  11  -8  -3 311.130 98.2084  16
  11  -8   3 334.347 86.2951   8
  11  -8  -4 445.108 107.876  16
  11  -8   4 412.354 93.3022   8
  11  -8  -5 3453.50 240.406  16
  11  -8   5 3237.47 229.020   8
  11  -8   5 3582.57 254.607  10
  11  -8   6-116.060 86.8891  10
  11  -8   6 94.3878 72.0585   8
  11  -8  -6 23.1421 57.4330   7
  11  -8   7 1176.84 154.654  10
  11  -8   7 1225.00 145.640   8
  11  -8  -7 1133.77 143.778   7
  11  -8   8 3093.58 221.715   8
  11  -8  -8 3241.45 229.514   7
 -11  -8  -8 3373.54 245.305  21
  11  -8   8 3305.33 246.615  10
  11  -8   9 937.597 128.608   8
  11  -8  -9 982.751 132.541   7
 -11  -8  -9 1007.18 135.044  21
  11  -8   9 931.332 139.482  10
  11  -8  10 31.1358 56.3293   8
  11  -8 -10 24.5786 57.6973   7
  11  -8  10-63.7622 81.4580  10
  11  -8  11 1334.89 137.820   8
  11  -8 -11 1670.14 156.382   7
  11  -8  11 1615.61 167.120  10
  11  -8  12 565.387 91.7960   8
  11  -8  12 507.051 94.2892  10
  11  -8  13 23.9655 46.6711   8
 -11  -8 -13 82.4070 56.4622  13
  11  -8  13 45.6193 54.6888  10
  11  -9   0 192.658 98.1965  16
  11  -9   0-19.3182 74.5570   8
  11  -9  -1 2210.30 203.131  16
  11  -9   1 2364.46 210.517  16
  11  -9  -1 2339.62 207.580   8
  11  -9   1 2530.02 212.149   8
  11  -9  -2 114.889 73.1805  16
  11  -9   2 25.1505 76.5875  16
  11  -9   2-29.1554 59.4049   8
  11  -9  -3 5459.30 307.942  16
  11  -9   3 5467.10 299.091   8
  11  -9  -4 810.399 138.702  16
  11  -9   4 702.464 121.560   8
  11  -9  -5 4626.10 275.122  16
  11  -9   5 4302.18 265.550   8
  11  -9   5 4279.27 273.528  10
  11  -9  -6 688.481 117.149  16
  11  -9   6 749.108 123.580   8
  11  -9  -6 783.908 125.805   7
  11  -9   6 605.733 111.235  10
  11  -9   7 3144.32 228.289   8
  11  -9  -7 3067.73 219.026   7
  11  -9   7 3068.25 235.939  10
  11  -9   8 1231.10 145.958   8
  11  -9  -8 1145.87 141.162   7
 -11  -9  -8 1086.59 151.005  21
  11  -9   8 1203.33 150.992  10
  11  -9   9 951.077 127.206   8
  11  -9  -9 926.948 126.155   7
 -11  -9  -9 869.270 124.543  21
  11  -9   9 1036.77 145.236  10
  11  -9  10 26.3023 56.0858   8
  11  -9 -10 98.5071 66.7774   7
  11  -9  10 54.8918 63.6206  10
  11  -9  11 2879.18 190.781   8
  11  -9  11 2487.65 196.635  10
  11  -9  12-73.9851 49.7756   8
  11  -9  12 18.4519 50.8765  10
  11  -9  13 886.898 106.345  10
  11 -10   0-21.9783 70.0456  16
  11 -10   0 61.6411 77.5734   8
  11 -10  -1 33.3821 74.8073  16
  11 -10   1 4.51186 69.3998  16
  11 -10  -1 37.7498 61.4190   8
  11 -10   1 110.153 75.3259   8
  11 -10  -2 154.315 79.4861  16
  11 -10   2 232.357 88.0220  16
  11 -10   2 122.489 68.8972   8
  11 -10  -3 13.6525 69.2113  16
  11 -10   3 0.60919 64.0327  16
  11 -10   3 34.2212 60.6819   8
  11 -10  -4 4545.38 279.235  16
  11 -10   4 4301.02 269.620  16
  11 -10   4 4423.26 267.009   8
  11 -10  -5 2386.25 204.884  16
  11 -10   5 2436.98 204.215  16
  11 -10   5 2225.92 193.612   8
  11 -10  -6 155.863 80.9031  16
  11 -10   6 54.2513 66.9807  16
  11 -10   6 151.914 80.1355   8
  11 -10  -6 232.341 76.7525   7
  11 -10   6 34.8961 66.3245  10
  11 -10  -7 259.613 87.1670  16
  11 -10   7 355.672 91.6348   8
  11 -10  -7 352.790 89.0133   7
  11 -10   7 260.220 90.1427  10
  11 -10   8 4946.74 267.203   8
  11 -10  -8 4849.51 259.997   7
 -11 -10  -8 4952.55 275.404  21
  11 -10   8 4777.46 280.120  10
  11 -10   9 542.985 104.172   8
  11 -10  -9 481.577 93.6027   7
  11 -10   9 530.154 109.035  10
  11 -10  10 265.384 70.6817   8
  11 -10 -10 236.809 75.7957   7
  11 -10  10 144.954 66.0427  10
  11 -10  11 258.940 69.4964   8
  11 -10  11 278.784 72.6597  10
  11 -10  12 727.243 99.9728  10
  11 -11   0-71.5534 79.4281  16
  11 -11   0 6.97719 72.2747   8
  11 -11  -1 696.522 124.094  16
  11 -11   1 740.325 125.045  16
  11 -11   1 1104.53 141.507   8
  11 -11  -2 1041.29 147.466  16
  11 -11   2 894.741 133.525  16
  11 -11   2 899.538 128.065   8
  11 -11  -3 95.7515 80.1377  16
  11 -11   3-44.8889 72.1719  16
  11 -11   3 23.6500 67.9182   8
  11 -11  -4 7023.84 336.259  16
  11 -11   4 6344.12 317.354  16
  11 -11   4 6552.80 318.377   8
  11 -11  -5 264.882 94.9944  16
  11 -11   5 150.804 75.3212  16
  11 -11   5 76.6709 64.8845   8
  11 -11  -5 189.300 76.6479   7
  11 -11  -6 3154.14 219.402  16
  11 -11   6 3319.14 224.454   8
  11 -11  -6 3036.07 207.723   7
  11 -11   6 2928.08 213.281  10
  11 -11  -7 201.471 85.4376  16
  11 -11   7 92.3509 68.4258   8
  11 -11  -7-49.4605 60.3733   7
  11 -11   7 112.781 71.0577  10
  11 -11   8 282.726 78.4879   8
  11 -11  -8 288.815 76.6854   7
 -11 -11  -8 276.405 86.1278  21
  11 -11   8 221.537 76.4323  10
  11 -11   9 174.821 61.1334   8
  11 -11  -9 184.846 67.0655   7
  11 -11   9 143.314 63.0276  10
  11 -11  10 677.678 95.4015   8
  11 -11 -10 925.372 103.920   7
  11 -11  10 828.978 105.312  10
  11 -12   0-54.3954 77.9190  16
  11 -12  -1 2108.53 190.785  16
  11 -12   1 2080.67 190.928  16
  11 -12   1 2185.75 186.522   8
  11 -12  -2 122.886 77.5717  16
  11 -12   2 178.398 75.5328  16
  11 -12   2 225.042 82.8443   8
  11 -12  -3 59.2309 63.7149  16
  11 -12   3-58.6570 67.7560  16
  11 -12   3 12.3744 59.2419   8
  11 -12   4 63.7929 58.1806  16
  11 -12   4-118.275 79.3764   8
  11 -12  -5 1957.91 175.771  16
  11 -12   5 1667.32 151.461  16
  11 -12   5 1895.72 164.010   8
 -11  12  -5 1892.76 130.013  24
  11 -12  -5 1822.19 158.116   7
  11 -12  -6 70.8602 68.0924  16
  11 -12   6-40.5384 58.7797   8
  11 -12  -6-63.6218 62.9932   7
  11 -12  -7 345.415 77.9425  16
  11 -12   7 328.932 72.1449   8
  11 -12  -7 349.224 75.9415   7
 -11 -12  -7 483.308 94.9737  21
  11 -12   7 397.362 81.2081  10
  11 -12  -8 29.8616 54.0118  16
  11 -12   8 29.8861 49.6317   8
  11 -12  -8-40.6406 44.3852   7
 -11 -12  -8 48.4238 51.2911  21
  11 -12   8-20.9794 50.8666  10
  11 -12   9 250.290 61.7468   8
  11 -12  -9 277.585 64.0202   7
  11 -13   0 72.3327 78.3575  16
  11 -13  -1 1575.11 158.769  16
  11 -13   1 1673.10 159.133  16
  11 -13  -1 1769.58 155.180  19
  11 -13  -2 336.506 88.7278  16
  11 -13   2 320.204 82.3208  16
  11 -13  -2 360.887 87.6236  19
  11 -13  -3 2576.82 192.481  16
  11 -13   3 2378.88 178.454  16
  11 -13   3 2521.46 182.447   8
  11 -13  -4 133.303 66.9836  16
  11 -13   4 86.1764 60.9458  16
  11 -13   4 33.4959 46.1393   8
  11 -13  -4 111.725 51.7148   7
  11 -13  -5 336.748 82.5158  16
  11 -13   5 347.521 76.1028   8
 -11  13  -5 322.406 63.2942  24
  11 -13  -5 189.885 52.7340   7
  11 -13  -6 21.4773 52.2471  16
  11 -13   6-43.5762 44.7866   8
  11 -13  -6 44.8733 47.3611   7
  11 -13   7 239.675 63.3779   8
  11 -13  -7 290.530 64.1098   7
  11 -14   0-24.0733 50.3940  16
  11 -14   0-7.59109 51.0530  19
  11 -14  -1 46.5973 51.9766  16
  11 -14   1-31.7381 55.5797  16
  11 -14  -1 9.12279 51.8905  19
  11 -14   1-37.3778 51.8565  19
  11 -14  -2 1210.13 127.276  16
  11 -14   2 1222.70 119.015  16
  11 -14  -2 1214.34 115.385   7
  11 -14  -2 1228.11 116.337  19
  11 -14  -3-35.2835 51.2187  16
  11 -14  -3 23.5313 39.6558   7
  11 -14  -4 64.2907 45.6856  16
  12   0   0 15328.3 493.051   1
  12   0   1 27.6304 57.5731   1
  12   0   2 21670.9 602.130   1
  12   0   3 92.7637 68.4399   1
  12   0   4 5013.39 298.354   1
 -12   0  -4 5584.67 312.595  21
  12   0   5 11.2740 63.2148  18
 -12   0  -5 30.0768 66.9368   5
 -12   0  -5 49.3892 68.4042  21
 -12   0  -6 47250.7 891.215   5
  12   0   6 47967.3 931.383  17
 -12   0  -6 46463.3 901.086  21
  12   0   6 44876.0 881.578  18
  12   0   7 34.3220 73.4221  17
 -12   0  -7 137.762 74.5679   5
 -12   0  -8 14249.2 505.341   5
  12   0   8 14229.1 507.088  17
  12   0   8 14053.1 517.402  10
  12   0   9-60.2550 83.6384  17
  12   0   9-0.87069 68.4075  10
 -12   0  -9-44.8730 79.7518   5
  12   0  10 211.838 85.9846  10
 -12   0 -10 191.298 89.2968   5
  12   0  11-3.14700 68.7281  10
 -12   0 -11 44.8235 60.1919   5
  12   0  12 524.165 106.202  10
 -12   0 -12 651.960 118.757   5
  12   0  13-18.5749 58.1143  10
 -12   0 -13-11.8300 56.2056   5
  12   0  14 932.622 119.686  10
 -12   0 -14 686.549 106.028   5
  12  -1   0 12410.6 445.091   1
  12  -1   1 550.553 102.504   1
  12  -1   2 542.562 109.006   1
  12  -1   3 660.774 113.741   1
  12  -1   4 4054.48 269.168  17
 -12  -1  -4 4116.43 270.052  21
  12  -1   4 4120.41 273.248   1
  12  -1   4 3870.81 261.054  18
  12   1   4 4045.51 266.973  18
  12  -1   5-54.7421 81.9932  18
  12   1   5-39.3664 74.8271  18
  12  -1   5-57.3460 77.8844  17
 -12   1  -5 122.931 72.6808   5
 -12  -1  -5 122.137 75.5440   5
 -12  -1  -5 26.7571 70.5960  21
  12   1   6 499.128 111.200  18
  12  -1   6 430.028 112.861  17
  12  -1   6 714.278 137.242  10
 -12   1  -6 369.671 98.3382   5
 -12  -1  -6 479.963 104.948   5
 -12  -1  -6 522.177 111.823  21
  12  -1   6 383.288 104.337  18
  12  -1   7 1165.50 151.701  17
 -12   1  -7 1224.81 158.250   5
 -12  -1  -7 1214.29 156.612   5
 -12  -1  -7 1387.90 167.947  21
  12  -1   7 1562.40 179.221  10
  12  -1   8 141.933 73.8052  17
  12   1   8 124.235 77.4737  17
  12  -1   8-7.60832 70.0406  10
 -12   1  -8-30.7618 75.8712   5
 -12  -1  -8 69.5158 78.4445   5
 -12  -1  -8 107.465 71.7199  21
  12   1   9 500.329 122.995  17
  12  -1   9 598.308 124.807  10
 -12   1  -9 612.886 119.182   5
 -12  -1  -9 550.039 119.373   5
  12  -1  10 220.839 88.8767  10
  12   1  10 365.478 110.038  10
 -12   1 -10 264.188 97.6657   5
 -12  -1 -10 334.685 94.8653   5
  12  -1  11 29.9744 68.5950  10
  12   1  11 9.35804 64.8015  10
 -12   1 -11 37.9398 72.4798   5
 -12  -1 -11-37.7647 69.1828   5
  12  -1  12 623.923 117.867  10
  12   1  12 666.894 120.197  10
 -12   1 -12 598.658 107.497   5
 -12  -1 -12 700.365 121.112   5
  12  -1  13 65.4529 69.7698  10
  12   1  13-39.4941 60.2332  10
 -12   1 -13 87.2563 59.9999   5
 -12  -1 -13-26.5228 56.7287   5
  12  -1  14 277.741 74.0904  10
 -12  -1 -14 313.409 75.8712   5
 -12  -1 -15 904.153 108.695   5
  12  -2   0 139.659 71.7369   1
  12  -2   1 41194.3 822.557   1
  12  -2   2 2104.22 194.636   1
  12  -2   3 4003.30 266.906   1
  12  -2   4 1760.52 184.931  17
  12  -2   4 1801.77 184.372   1
 -12  -2  -4 1604.17 175.355  21
  12  -2   4 1447.12 161.139  10
  12  -2   4 1796.92 184.985  18
  12   2   4 1957.22 189.943  18
 -12   2  -4 1534.43 158.046   5
  12   2   5 1209.25 155.487  18
  12  -2   5 1225.87 158.942  17
 -12   2  -5 1406.27 164.803   5
  12  -2   5 1168.54 151.419  10
 -12  -2  -5 1431.41 168.704  21
  12  -2   5 1373.55 161.830  18
 -12   2  -6 1333.18 163.831   5
  12   2   6 1129.18 146.938  18
  12  -2   6 1078.55 151.668  17
  12  -2   6 943.419 137.215  10
 -12  -2  -6 1165.83 150.844   5
 -12  -2  -6 981.525 138.411  21
  12  -2   6 1089.29 146.178  18
 -12   2  -7 1668.13 182.419   5
 -12  -2  -7 1459.61 168.212   5
  12  -2   7 1328.96 164.151  17
 -12  -2  -7 1565.53 177.597  21
  12  -2   7 1380.38 168.848  10
  12   2   7 1620.63 176.557  18
 -12   2  -8 3552.17 258.567   5
  12  -2   8 3467.53 255.439  17
 -12  -2  -8 3178.15 241.575   5
 -12  -2  -8 3724.65 261.482  21
  12  -2   8 3229.39 256.044  10
 -12   2  -9 14473.4 514.588   5
 -12  -2  -9 15573.2 523.595   5
 -12  -2  -9 14607.8 501.275  21
  12  -2   9 14113.8 520.834  10
  12  -2  10 668.306 124.413  10
 -12   2 -10 730.236 132.212   5
 -12  -2 -10 773.442 130.215   5
 -12  -2 -11 3020.44 229.266   5
  12  -2  11 3113.22 243.029  10
  12   2  11 3206.56 248.616  10
 -12   2 -11 3216.65 240.708   5
  12  -2  12 103.902 83.3972  10
 -12   2 -12-37.7979 65.0232   5
  12   2  12 63.0663 64.5752  10
 -12  -2 -12 48.2377 69.4747   5
 -12  -2 -13 3467.42 229.767   5
  12  -2  13 3423.86 235.083  10
  12   2  13 3307.74 222.867  10
  12  -2  14 492.887 96.8680  10
 -12  -2 -14 362.163 79.8976   5
 -12  -2 -15 504.770 84.1273   5
 -12  -2 -15 415.556 70.2526  13
  12  -3   0 64.5844 58.6567   1
  12  -3   1 633.079 113.082   1
  12  -3   2 195.977 81.4298   1
  12  -3   2 225.439 77.8851  17
  12  -3   2 178.699 75.3948  18
  12  -3   3 1114.36 144.628   1
  12  -3   3 918.210 136.630  17
 -12  -3  -3 742.814 120.286  21
  12  -3  -3 988.624 134.484  18
  12  -3   3 1208.79 151.215  18
  12  -3   4 193.717 81.8206  17
  12  -3   4 358.775 93.7179  10
 -12  -3  -4 170.898 88.0706  21
  12  -3   4 194.425 82.8133  18
  12  -3   5 1082.64 154.846  17
  12  -3   5 1032.46 146.448  10
 -12  -3  -5 1033.72 144.674  21
  12  -3   5 1101.44 146.046  18
 -12   3  -5 1002.29 137.959   5
  12  -3   6 2494.76 227.086  17
 -12  -3  -6 2013.77 195.916  21
  12  -3   6 2312.63 207.234  10
  12  -3   6 2256.81 205.805  18
  12   3   6 2211.34 202.394  18
 -12   3  -6 2408.90 215.893   5
  12  -3   7 2298.97 210.202  17
 -12  -3  -7 2438.02 216.829  21
  12  -3   7 2112.08 201.769  10
  12   3   7 2575.62 218.767  18
 -12   3  -7 2361.26 217.628   5
  12  -3   8 37.7225 70.2597  17
 -12   3  -8-31.7719 78.6507   5
  12  -3   8 99.0981 81.7501  10
 -12  -3  -8 0.15773 61.9404   5
 -12  -3  -8-66.4548 83.5803  21
 -12  -3  -9 2821.96 226.300   5
 -12  -3  -9 2794.39 223.153  21
  12  -3   9 2580.04 228.040  10
 -12   3  -9 2773.87 233.310   5
  12  -3  10 619.245 125.297  10
 -12  -3 -10 527.612 112.962   5
 -12  -3 -10 581.689 114.610  21
 -12   3 -10 785.641 134.523   5
  12  -3  11 190.276 93.1255  10
  12   3  11-32.9760 73.6819  10
 -12  -3 -11 24.4127 61.7736   5
  12  -3  12 91.4061 72.8698  10
  12   3  12 35.2151 66.8910  10
 -12  -3 -12 9.58166 58.3342   5
  12  -3  13 586.251 111.066  10
  12   3  13 589.250 100.301  10
 -12  -3 -13 575.114 104.743   5
  12  -3  14 500.117 96.4306  10
 -12  -3 -14 493.473 90.4040   5
  12  -3  15 620.872 92.4339  10
 -12  -3 -15 830.010 102.829   5
 -12  -3 -15 740.732 90.2438  13
  12  -4   0 1109.68 147.075  17
 -12  -4   0 1039.81 138.537  21
  12  -4   0 1101.72 142.412   1
  12  -4   0 1199.68 158.757  18
  12  -4  -1 11274.8 437.208  17
  12  -4   1 10918.3 438.164  17
  12  -4   1 10602.1 423.633   1
 -12  -4  -1 10428.5 418.677  21
  12  -4  -1 11664.8 456.603  18
  12  -4   1 10613.6 437.440  18
  12  -4   2 4741.88 297.920  17
 -12  -4  -2 5019.88 299.352  21
  12  -4  -2 4846.89 300.545  18
  12  -4   2 5228.07 312.418  18
  12  -4   3 247.334 92.6915  17
 -12  -4  -3 190.333 88.4366  21
  12  -4  -3 334.818 102.505  18
  12  -4   3 458.533 118.933  18
  12  -4   4 3094.64 243.981  17
 -12  -4  -4 3152.71 244.433  21
  12  -4   4 3181.22 234.062  10
  12  -4   4 3065.79 239.382  18
  12  -4   5 1056.75 151.736  17
  12  -4   5 1270.47 159.142  10
 -12  -4  -5 921.944 142.046  21
  12  -4   5 950.012 141.987  18
  12  -4   6 12081.7 470.803  17
 -12  -4  -6 13022.5 483.622  21
  12  -4   6 13789.2 498.734  10
  12  -4   6 12381.4 465.444  18
  12  -4   7 1613.98 179.472  17
  12  -4  -7 1423.95 156.050   7
 -12  -4  -7 1361.41 164.810  21
  12  -4   7 1439.83 171.652  10
  12  -4   8 925.555 138.468  17
  12  -4   8 999.969 149.755  10
  12  -4  -8 940.554 127.435   7
 -12  -4  -8 931.707 141.971  21
  12  -4  -9 3120.78 220.497   7
 -12  -4  -9 3081.60 234.662  21
  12  -4   9 3027.84 246.057  10
  12  -4  10-83.0399 88.6044  10
 -12  -4 -10 26.3125 61.7988   5
 -12  -4 -10-38.2796 59.7261  21
  12  -4  11 78.8196 62.3969  10
 -12  -4 -11 37.5694 61.7452   5
  12   4  12 1098.61 136.800  10
 -12  -4 -12 1210.64 146.222   5
  12  -4  12 1260.71 157.424  10
 -12  -4 -13 1180.11 138.379   5
  12  -4  13 1457.28 156.428  10
  12  -4  14 88.3645 64.2661  10
 -12  -4 -14 108.263 58.7137   5
 -12  -4 -14 35.3946 52.2342  13
 -12  -4 -15 166.330 61.0906   5
  12  -5   0 3330.85 253.964  18
  12  -5  -1 401.891 100.686  18
  12  -5   1 439.885 102.258  18
  12  -5   2 3386.72 254.001  17
  12  -5  -2 3440.24 255.770  18
  12  -5   2 3413.96 257.239  18
  12  -5   3 274.563 95.1189  17
  12  -5  -3 465.255 116.343  18
  12  -5   3 358.575 92.5007  18
  12  -5   4 2318.58 219.611  17
 -12  -5  -4 2446.38 214.153  21
  12  -5  -4 2698.48 225.670  18
  12  -5   4 2600.66 222.140  18
  12  -5   5 67.4123 74.0418  17
  12  -5   5-31.4915 77.7173  10
  12  -5  -5 113.614 76.2358   7
 -12  -5  -5 48.6645 74.7016  21
  12  -5   5-34.1157 78.3745  18
  12  -5  -6 1818.62 173.174   7
 -12  -5  -6 1695.51 185.914  21
  12  -5   6 1892.54 194.612  10
  12  -5   7-10.9614 79.8871  10
  12  -5  -7-105.434 73.3069   7
 -12  -5  -7-14.7605 67.6977  21
  12  -5   8 324.144 97.6213  10
  12  -5  -8 359.283 92.8950   7
 -12  -5  -8 354.725 98.2739  21
  12  -5   9 242.339 92.9855  10
  12  -5  -9 204.058 66.8473   7
 -12  -5  -9 345.839 93.8419  21
  12  -5 -10 1636.87 162.505   7
 -12  -5 -10 1847.82 178.957  21
  12  -5  10 1723.40 183.269  10
  12  -5  11 41.6931 74.9492  10
 -12  -5 -11 5.40846 58.2659   5
  12  -5  12 907.492 132.111  10
  12   5  12 891.212 125.753  10
 -12  -5 -12 817.321 123.104   5
  12  -5  13 236.891 75.8324  10
 -12  -5 -13 215.183 73.0902   5
 -12  -5 -14 920.604 109.518   5
 -12  -5 -14 893.259 100.139  13
  12  -5  14 686.349 99.9581  10
  12  -6   0 1812.02 169.730   8
  12  -6   0 1849.06 198.473  18
  12  -6  -1 10104.3 396.399   8
  12  -6   1 9514.67 379.284   8
  12  -6  -1 9766.52 433.797  18
  12  -6   1 9079.99 418.807  18
  12  -6  -2 4725.33 277.144  16
  12  -6   2 4501.70 260.963   8
  12  -6  -2 4920.50 308.463  18
  12  -6   2 4963.99 311.574  18
  12  -6  -3 3991.82 252.535  16
  12  -6  -3 3745.14 269.733  18
  12  -6   3 3837.60 275.016  18
  12  -6  -4 268.795 86.8641  18
  12  -6   4 439.388 112.753  18
  12  -6   5 36.5446 64.2948  10
 -12  -6  -5 33.3274 73.3577  21
  12  -6   5 39.7697 68.5557  18
  12  -6  -6 8230.43 358.856   7
 -12  -6  -6 8655.15 397.807  21
  12  -6   6 8021.54 383.723  10
  12  -6  -7 781.778 126.920   7
 -12  -6  -7 682.883 118.475  21
  12  -6  -8 4601.03 267.647   7
 -12  -6  -8 4310.87 277.740  21
  12  -6   8 3952.53 270.789  10
  12  -6  -9 1506.73 157.999   7
 -12  -6  -9 1530.90 166.971  21
  12  -6   9 1482.93 171.046  10
  12  -6  10 40.3881 62.9865  10
  12  -6 -10-19.8089 60.2950   7
 -12  -6 -10 24.2282 65.3031  21
  12  -6  11 265.386 89.5596  10
  12  -6  12 147.865 69.5399  10
 -12  -6 -12 199.369 67.5633   5
 -12  -6 -13 1316.18 134.219   5
 -12  -6 -13 1241.23 119.734  13
  12  -6  13 1372.50 144.029  10
 -12  -6 -14 554.801 87.6940   5
  12  -6  14 449.330 84.9838  10
  12  -7   0 221.425 80.1642   8
  12  -7   0 79.5816 74.5224  18
  12  -7  -1 622.768 122.569  16
  12  -7  -1 725.812 116.936   8
  12  -7   1 639.638 112.898   8
  12  -7  -1 804.977 139.541  18
  12  -7   1 817.731 138.026  18
  12  -7  -2 435.208 101.768  16
  12  -7   2 356.448 89.4827   8
  12  -7   2 441.721 106.613  18
  12  -7  -3 1623.74 171.509  16
  12  -7   3 1689.68 167.279   8
  12  -7   3 1721.26 194.442  18
  12  -7  -4 476.669 105.859  16
  12  -7   4 524.037 104.322   8
  12  -7   4 593.544 116.634  18
  12  -7   5 171.397 83.2086  10
  12  -7   5 208.522 78.1664   8
  12  -7   5 199.068 98.5295  18
  12  -7   6 596.120 114.568  10
  12  -7   6 654.548 111.449   8
  12  -7  -6 446.792 98.8039   7
 -12  -7  -6 674.158 128.257  21
  12  -7   7 2324.76 187.996   8
  12  -7  -7 2482.79 201.609   7
 -12  -7  -7 2503.36 215.090  21
  12  -7   7 2375.35 213.115  10
  12  -7   8 386.014 104.580  10
  12  -7   8 278.697 80.4587   8
  12  -7  -8 298.503 81.6545   7
 -12  -7  -8 306.028 92.7336  21
  12  -7   9 1168.30 149.533  10
  12  -7  -9 1207.14 141.225   7
 -12  -7  -9 1091.21 142.976  21
  12  -7  10 80.0505 64.6553  10
  12  -7 -10 72.6011 56.1453   7
  12  -7  11-64.2437 74.6337  10
 -12  -7 -12 338.482 79.4887   5
  12  -7  12 376.110 85.0603  10
 -12  -7 -13 549.639 90.1095   5
 -12  -7 -13 443.760 75.9901  13
  12  -7  13 414.287 85.6693  10
  12  -8   0 2092.24 198.345  16
  12  -8   0 1614.50 169.852   8
  12  -8  -1 11040.1 432.313  16
  12  -8   1 10144.8 419.955  16
  12  -8   1 10601.1 412.467   8
  12  -8  -2 101.447 75.5592  16
  12  -8   2 118.613 70.4957   8
  12  -8  -3 142.836 77.0643  16
  12  -8   3 201.354 80.5690   8
  12  -8  -4 1341.71 156.115  16
  12  -8   4 1364.54 152.674   8
  12  -8   5-37.5460 65.9802   8
  12  -8   6 573.983 107.424   8
  12  -8  -6 495.141 103.671   7
 -12  -8  -6 693.830 124.961  21
  12  -8   6 525.745 114.853  10
  12  -8   7 2633.47 201.721   8
  12  -8  -7 2447.98 195.993   7
 -12  -8  -7 2403.37 207.354  21
  12  -8   7 2450.95 210.217  10
  12  -8   8 284.449 76.0463   8
  12  -8  -8 254.860 84.9245   7
 -12  -8  -8 191.025 76.0571  21
  12  -8   8 165.128 75.0032  10
  12  -8   9 8149.84 325.676   8
  12  -8  -9 8333.92 338.809   7
 -12  -8  -9 8408.85 350.153  21
  12  -8   9 8006.82 358.512  10
  12  -8  10 422.506 92.5414   8
  12  -8 -10 409.050 88.9105   7
  12  -8  10 365.546 96.8647  10
  12  -8  11 535.530 85.2443   8
  12  -8  11 689.772 109.149  10
  12  -8  12 7.70933 51.2639  10
  12  -9   0 8799.66 390.057  16
  12  -9   0 8800.44 374.391   8
  12  -9  -1 338.125 112.186  16
  12  -9   1 409.696 101.412  16
  12  -9   1 235.905 89.1684   8
  12  -9  -2 107.332 73.1013  16
  12  -9   2-40.5802 71.4400  16
  12  -9   2 40.5263 64.7652   8
  12  -9  -3 38.8034 68.5243  16
  12  -9   3 147.698 85.1574  16
  12  -9   3 90.6823 66.4068   8
  12  -9  -4 817.206 128.322  16
  12  -9   4 912.121 137.667  16
  12  -9   4 907.982 127.796   8
  12  -9  -5 358.269 97.2091  16
  12  -9   5 137.834 69.1824   8
  12  -9  -5 343.136 95.6596   7
  12  -9   6 1266.94 144.930   8
  12  -9  -6 1257.59 142.212   7
 -12  -9  -6 1132.81 152.144  21
  12  -9   6 1202.86 154.234  10
  12  -9   7 627.212 109.066   8
  12  -9  -7 494.134 94.7962   7
 -12  -9  -7 676.125 115.749  21
  12  -9   7 484.786 101.037  10
  12  -9   8-17.6794 60.8568   8
  12  -9  -8 132.109 64.4038   7
 -12  -9  -8-24.3831 65.9780  21
  12  -9   8 147.829 73.4163  10
  12  -9   9 903.601 115.043   8
  12  -9  -9 740.365 111.940   7
 -12  -9  -9 823.130 118.901  21
  12  -9   9 758.825 117.350  10
  12  -9  10 485.888 87.5267   8
  12  -9 -10 645.515 95.5210   7
  12  -9  10 503.762 97.3224  10
  12  -9  11 180.434 61.4503   8
  12  -9  11 191.523 65.4092  10
  12 -10   0 708.790 125.199  16
  12 -10  -1 415.021 100.216  16
  12 -10   1 362.248 90.7257  16
  12 -10   1 237.893 82.8847   8
  12 -10  -2 4465.81 273.449  16
  12 -10   2 4833.86 285.063  16
  12 -10   2 4912.47 276.368   8
  12 -10  -3 2318.27 202.209  16
  12 -10   3 2345.30 199.850  16
  12 -10   3 2396.95 198.563   8
  12 -10  -4 1664.01 169.256  16
  12 -10   4 1595.90 166.462  16
  12 -10   4 1907.83 176.309   8
  12 -10  -5 358.086 96.1045  16
  12 -10   5 282.684 87.2306  16
  12 -10   5 359.072 91.1992   8
  12 -10  -5 301.466 86.0387   7
  12 -10  -6 5599.53 278.635  16
  12 -10   6 5110.18 270.214  16
  12 -10   6 4936.85 264.832   8
  12 -10  -6 5215.16 268.828   7
 -12 -10  -6 5299.58 291.350  21
  12 -10   7 1909.14 165.131  16
  12 -10   7 2049.39 169.783   8
  12 -10  -7 2049.97 167.767   7
 -12 -10  -7 2554.35 199.200  21
  12 -10   7 1878.28 170.179  10
  12 -10   8 4152.49 227.948   8
  12 -10  -8 3957.56 224.677   7
 -12 -10  -8 4206.66 240.531  21
  12 -10   8 3953.24 236.868  10
  12 -10   9 332.964 73.3921   8
  12 -10  -9 363.752 75.0406   7
 -12 -10  -9 311.939 74.6249  21
  12 -10   9 411.557 87.7324  10
  12 -10  10-53.4696 43.0664   8
  12 -10  10 104.151 57.3381  10
  12 -11   0 2234.30 192.683  16
  12 -11  -1 52.7984 64.9666  16
  12 -11   1 86.3801 72.5344  16
  12 -11   2 125.476 74.8708  16
  12 -11   2 67.1696 58.6676   8
  12 -11  -3 1235.11 149.047  16
  12 -11   3 1222.29 146.305  16
  12 -11   3 1251.37 141.256   8
  12 -11  -4 510.986 101.636  16
  12 -11   4 475.753 98.0622  16
  12 -11   4 491.009 95.5324   8
  12 -11  -4 580.946 98.7340   7
  12 -11  -5 75.9378 64.5071  16
  12 -11   5 8.08230 53.1811  16
  12 -11   5-6.44939 62.8679   8
  12 -11  -5 31.9233 52.0446   7
  12 -11  -6 48.4902 59.4971  16
  12 -11   6 78.2869 59.7525  16
  12 -11   6 121.505 67.0947   8
  12 -11  -6 60.2542 49.1777   7
 -12 -11  -6 127.532 69.7342  21
  12 -11   7 392.382 82.1209   8
  12 -11  -7 360.407 74.8539   7
 -12 -11  -7 379.516 87.1796  21
  12 -11   7 385.974 83.4665  10
  12 -11   8 54.7801 46.8697   8
  12 -11  -8 120.570 54.2823   7
 -12 -11  -8 62.2053 50.5280  21
  12 -11   8-20.3506 55.5508  10
  12 -11   9 244.421 62.0106   8
  12 -11  -9 296.841 66.5057   7
  12 -11   9 324.328 77.7392  10
  12 -12   0 1164.23 143.052  16
  12 -12  -1 2839.77 203.484  16
  12 -12   1 3004.21 207.620  16
  12 -12  -2 1026.19 131.343  16
  12 -12   2 945.542 125.339  16
  12 -12  -3 417.559 91.2881  16
  12 -12   3 499.396 97.9773  16
  12 -12  -4-77.5755 66.2128  16
  12 -12   4 33.3145 50.2040  16
  12 -12   4 106.777 60.2614   8
  12 -12  -4-50.1061 48.3126   7
  12 -12  -5 27.9273 51.5059  16
  12 -12   5-41.6370 58.2586  16
  12 -12   5 16.3802 47.6438   8
  12 -12  -5 5.52897 44.0533   7
  12 -12  -6 161.835 61.6680  16
  12 -12   6 277.494 76.0634   8
  12 -12  -6 214.263 60.0139   7
 -12 -12  -6 202.377 61.1422  21
  12 -12   7-14.5690 49.6110   8
  12 -12  -7 68.3746 47.3980   7
 -12 -12  -7 102.663 56.7452  21
  12 -13   0 202.291 65.4144  16
  12 -13   0 323.596 75.5974  19
  12 -13  -1 461.879 89.5787  16
  12 -13   1 565.550 93.7827  16
  12 -13  -2 165.828 65.6847  16
  12 -13   2 22.9399 54.5614  16
  12 -13  -3 716.829 99.3808  16
  12 -13   3 720.485 101.333  16
  12 -13  -3 678.799 93.0270   7
  12 -13  -4 77.5107 56.9951  16
  12 -13  -4 74.9285 49.8161   7
  13   0   0 140.822 83.2311  18
  13   0   0-32.5028 79.3450  17
  13   0  -1 75.0420 74.9291  18
  13   0   1 18.0863 71.2647  18
  13   0   1 81.8549 76.3139  17
 -13   0  -1 30.3248 65.0830  21
  13   0   2 7087.79 359.590  17
 -13   0  -2 7284.00 363.097  21
  13   0  -2 7325.45 362.895  18
  13   0   2 7463.66 374.761  18
  13   0   3-54.4720 81.4766  18
  13   0   3-11.6325 65.1636  17
 -13   0  -3-6.37652 63.6227  21
  13   0  -3-42.6831 74.4140  18
  13   0   4 652.700 124.780  18
  13   0   4 828.288 133.097  17
 -13   0  -4 969.936 142.713  21
  13   0   5-157.080 99.6989  18
  13   0   5-5.09368 74.3986  17
  13   0   6 519.629 110.501  18
  13   0   6 388.160 107.202  17
 -13   0  -6 528.642 106.879   5
  13   0   7 95.0976 67.9678  17
  13   0   7-18.6720 72.9634  10
 -13   0  -7 28.3333 66.5500   5
  13   0   8 67.2897 71.4016  17
  13   0   8-11.8645 74.0200  10
 -13   0  -8-15.2105 65.5679   5
  13   0   9-105.111 79.1155  17
  13   0   9 17.4955 66.4060  10
 -13   0  -9-63.2882 76.5393   5
  13   0  10 134.393 81.6485  10
 -13   0 -10 41.1780 67.4585   5
  13   0  11-39.9342 76.0385  10
 -13   0 -11-8.68478 59.8536   5
  13   0  12 400.499 99.5848  10
 -13   0 -12 192.733 77.5119   5
  13   0  13 57.0159 56.4045  10
 -13   0 -13-53.9732 59.3268   5
  13   0  14-56.8908 52.7150  10
  13   1   0-56.3722 78.1376  18
  13  -1   0 93.5827 84.2750  17
  13   1   0 59.8918 77.9675  17
  13  -1   0 52.0535 75.8339  18
  13   1  -1 35.7597 69.7548  18
  13   1   1 54.1747 79.4623  18
  13  -1  -1 79.0906 78.0341  17
  13  -1   1 40.6031 82.9125  17
 -13  -1  -1 69.6644 73.5401  21
  13  -1  -1 114.069 93.3575  18
  13  -1   1-9.16920 76.5437  18
  13  -1   2 24219.0 661.193  17
 -13  -1  -2 23628.1 648.083  21
  13  -1  -2 24144.6 656.084  18
  13  -1   2 23671.6 661.716  18
  13   1  -2 24676.6 654.013  18
  13   1   2 25033.1 673.785  18
  13  -1   3 4639.83 298.297  17
 -13  -1  -3 4511.17 291.757  21
  13  -1  -3 4934.85 298.077  18
  13  -1   3 4645.11 296.458  18
  13   1  -3 4624.16 285.015  18
  13   1   3 5054.65 307.245  18
  13  -1   4 2847.12 234.626  17
 -13  -1  -4 2962.50 237.649  21
  13  -1   4 2904.59 229.299  10
  13  -1   4 2955.89 241.132  18
  13   1   4 2871.17 236.311  18
 -13   1  -5 12398.0 452.117   5
  13  -1   5 12242.6 478.443  17
 -13  -1  -5 12241.4 472.410  21
  13  -1   5 12647.4 474.441  10
  13  -1   5 11721.2 465.368  18
  13   1   5 12568.9 480.687  18
 -13   1  -6 1438.48 170.121   5
 -13  -1  -6 1299.16 156.962   5
  13  -1   6 1256.31 165.682  17
  13   1   6 1001.60 151.587  17
  13  -1   6 1353.47 171.150  10
 -13  -1  -6 1381.62 173.286  21
  13   1   6 1430.73 173.601  18
  13  -1   6 1060.71 152.112  18
  13   1   7 42.3709 68.2238  18
  13  -1   7 133.130 86.5708  17
  13   1   7 65.7803 79.8045  17
 -13   1  -7 57.3177 76.9000   5
  13  -1   7 41.2251 74.4586  10
 -13  -1  -7-19.0799 58.2938   5
 -13   1  -8 2913.36 233.876   5
 -13  -1  -8 2938.13 229.848   5
  13  -1   8 3200.17 247.073  17
  13   1   8 3379.29 254.078  17
  13  -1   8 3416.02 259.648  10
 -13  -1  -9 1246.96 161.800   5
  13  -1   9 1410.87 166.745  17
  13   1   9 1302.87 158.116  17
  13  -1   9 1428.14 171.551  10
 -13   1  -9 1233.39 157.277   5
  13   1   9 1479.70 180.316  10
 -13   1 -10 3217.97 238.046   5
 -13  -1 -10 3388.85 239.357   5
  13  -1  10 3189.81 245.061  10
  13   1  10 3035.79 240.973  10
  13  -1  11 233.577 86.5559  10
 -13   1 -11 173.971 80.0957   5
  13   1  11 164.486 74.4107  10
 -13  -1 -11 147.881 66.9413   5
 -13  -1 -12 4954.39 269.200   5
  13  -1  12 4754.68 273.745  10
  13   1  12 5134.35 282.928  10
 -13   1 -12 4485.22 258.108   5
 -13  -1 -13 1155.72 129.113   5
  13  -1  13 1056.76 127.615  10
  13   1  13 818.891 112.367  10
  13  -1  14 41.6671 56.0036  10
  13   1  14 12.8160 47.0849  10
 -13  -1 -14 46.4039 48.9174   5
  13   2   0 58.5438 69.6820  18
  13  -2   0 52.6882 70.9580  17
  13  -2   0 48.1780 77.6843  18
  13   2  -1 158.885 85.3263  18
  13   2   1 64.5598 65.0947  18
  13  -2  -1 107.093 79.7490  17
  13  -2   1 106.778 76.7978  17
 -13  -2  -1 291.837 87.1153  21
  13  -2  -1 98.7471 68.1636  18
  13  -2   1 260.417 92.7725  18
  13  -2   2 5122.14 310.816  17
 -13  -2  -2 5293.38 311.211  21
  13  -2  -2 5711.31 322.543  18
  13  -2   2 5232.82 315.352  18
  13   2  -2 5416.18 310.985  18
  13   2   2 4756.93 297.494  18
  13   2   3-29.1710 84.7780  18
  13  -2   3 67.7851 71.3780  17
 -13  -2  -3 4.26012 69.6166  21
  13  -2  -3 21.5422 70.4413  18
  13  -2   3 107.009 70.2531  18
  13   2   4 330.427 101.795  18
  13  -2   4 186.091 76.8678  17
  13  -2   4 438.500 99.4587  10
 -13  -2  -4 390.052 97.9042  21
  13  -2   4 314.853 95.8242  18
  13  -2   5 2089.96 209.610  17
 -13  -2  -5 2030.05 203.692  21
  13  -2   5 1939.67 196.371  10
  13  -2   5 2181.95 209.303  18
  13   2   5 1836.63 195.169  18
 -13   2  -5 2049.38 199.319   5
  13   2   6 627.647 119.350  18
  13  -2   6 740.051 133.392  17
 -13   2  -6 921.035 135.732   5
  13  -2   6 787.295 131.880  10
 -13  -2  -6 605.938 106.728   5
 -13  -2  -6 869.694 143.938  21
  13  -2   6 806.133 139.517  18
  13  -2   7 1107.30 155.757  17
 -13   2  -7 1192.95 160.368   5
  13  -2   7 1294.58 165.850  10
 -13  -2  -7 1252.23 151.893   5
 -13  -2  -7 1192.07 155.250  21
  13   2   7 1578.16 180.914  18
  13  -2   8 667.508 126.389  17
 -13   2  -8 666.086 119.886   5
  13  -2   8 499.646 110.247  10
  13   2   8 475.384 112.553  17
 -13  -2  -8 536.931 110.480   5
 -13  -2  -8 560.567 116.909  21
  13  -2   9 23.5783 62.9565  17
 -13   2  -9 26.8650 72.1454   5
  13  -2   9-3.83896 69.4338  10
  13   2   9 39.4269 65.9725  17
 -13  -2  -9-39.7017 59.9428   5
  13  -2  10 35.4932 73.1551  10
  13   2  10 6.90034 75.4812  10
 -13  -2 -10 39.1173 60.7746   5
 -13   2 -10 85.4266 66.1463   5
  13  -2  11 909.108 132.679  10
  13   2  11 995.716 135.182  10
 -13  -2 -11 926.600 130.427   5
  13  -2  12 824.852 128.233  10
  13   2  12 551.079 102.376  10
 -13  -2 -12 607.913 105.485   5
  13  -2  13 239.311 75.6905  10
  13   2  13 252.727 73.5834  10
 -13  -2 -13 162.778 69.6150   5
  13  -2  14 129.502 59.7334  10
 -13  -2 -14 49.5152 46.8575   5
  13   3   0-20.4924 79.6013  18
  13  -3   0 81.9294 64.9167  17
  13  -3   0 0.33771 83.4448  18
  13   3  -1-0.79833 72.5372  18
  13   3   1-7.25875 75.5722  18
  13  -3  -1 100.886 73.1310  17
  13  -3   1 239.205 86.1384  17
 -13  -3  -1-19.6120 70.2336  21
  13  -3  -1 51.8319 72.9511  18
  13  -3   1 63.0945 66.5700  18
  13   3  -2 460.610 103.628  18
  13   3   2 577.441 122.907  18
  13  -3   2 557.409 116.728  17
  13  -3  -2 538.363 119.070  18
  13  -3   2 549.915 116.107  18
  13  -3   3 8376.60 396.697  17
 -13  -3  -3 8431.55 391.975  21
  13  -3  -3 8813.65 398.216  18
  13  -3   3 8502.55 400.264  18
  13   3   3 8399.32 398.933  18
  13   3   4 17.3065 66.8037  18
  13  -3   4 92.0381 92.4490  17
 -13  -3  -4 123.499 76.9851  21
  13  -3   4 150.181 89.7332  18
  13  -3   5 21640.9 636.485  17
 -13  -3  -5 22813.4 643.480  21
  13  -3   5 22855.5 631.633  10
  13  -3   5 23243.7 650.311  18
  13   3   5 23104.3 654.575  18
  13   3   6 894.110 142.630  18
  13  -3   6 980.042 154.482  17
  13  -3   6 996.849 147.095  10
 -13  -3  -6 1181.65 165.277  21
  13  -3   6 905.839 140.540  18
  13   3   7-17.8489 77.5462  18
  13  -3   7 7.59106 67.1810  17
  13  -3   7-116.106 79.0790  10
 -13  -3  -7 40.6220 56.4039   5
 -13  -3  -7-27.2221 72.2982  21
  13  -3   8 2344.21 209.789  17
 -13  -3  -8 2341.68 205.659   5
 -13  -3  -8 2496.10 212.973  21
  13  -3   8 2198.53 209.229  10
  13  -3   9 1581.42 168.691  17
 -13  -3  -9 1448.91 163.482   5
 -13  -3  -9 1697.12 176.320  21
  13  -3   9 1740.62 186.205  10
  13  -3  10 256.972 89.9663  10
 -13  -3 -10 266.491 84.3366   5
  13  -3  11 228.641 89.9983  10
  13   3  11 176.695 75.0466  10
 -13  -3 -11 116.756 71.2452   5
 -13  -3 -12 1288.97 141.700   5
  13  -3  12 1308.09 149.017  10
  13   3  12 1295.74 147.324  10
 -13  -3 -13 2727.13 186.080   5
  13  -3  13 2664.92 191.715  10
  13   3  13 2649.47 184.686  10
  13  -3  14-44.1083 50.0044  10
 -13  -3 -14-28.1285 46.8776   5
  13   4   0-66.4802 99.1667  18
  13  -4   0 4.05366 68.4359  17
 -13  -4   0-141.636 88.2284  21
  13  -4   0 46.0343 80.0676  18
  13   4  -1-44.5757 85.8575  18
  13  -4   1 23.4988 81.0423  17
 -13  -4  -1 8.88736 68.4132  21
  13  -4  -1 2.37474 72.7269  18
  13  -4   1 48.5483 69.7670  18
  13  -4   2 2532.73 224.640  17
 -13  -4  -2 2599.95 222.717  21
  13  -4  -2 2961.36 243.246  18
  13  -4   2 2561.51 225.543  18
  13   4  -2 2414.94 209.600  18
  13  -4   3 180.764 93.7091  17
 -13  -4  -3 45.1774 74.2602  21
  13  -4  -3 144.205 74.0651  18
  13  -4   3 295.493 97.0035  18
  13  -4   4 694.377 134.750  17
 -13  -4  -4 549.779 112.296  21
  13  -4  -4 526.130 99.5126  18
  13  -4   4 514.508 118.680  18
  13   4   5 505.283 109.196  18
  13  -4   5 509.620 114.209  17
  13  -4   5 476.287 107.612  10
 -13  -4  -5 779.441 138.108  21
  13  -4   5 478.800 109.229  18
  13   4   6-71.2107 78.3222  18
  13  -4   6-30.9920 73.3902  10
 -13  -4  -6 72.2805 80.6121  21
  13  -4   6 55.2061 73.6098  18
  13   4   7 222.915 87.6971  18
  13  -4   7 100.715 78.7398  17
  13  -4   7 242.590 91.2478  10
 -13  -4  -7 94.4912 73.7176   5
 -13  -4  -7 115.819 73.1071  21
  13  -4   8 456.153 101.515  10
 -13  -4  -8 598.660 111.518   5
 -13  -4  -8 616.578 123.511  21
  13  -4   9 82.7752 73.6977  10
 -13  -4  -9 30.7130 56.3895   5
 -13  -4  -9 15.5437 64.0039  21
  13  -4  10-15.2380 66.1523  10
 -13  -4 -10 28.5931 69.6530   5
  13  -4  11-75.9185 68.9768  10
  13   4  11-73.9880 71.5748  10
 -13  -4 -11 37.1737 60.8268   5
  13  -4  12 854.623 126.244  10
  13   4  12 582.365 103.809  10
 -13  -4 -12 639.266 107.751   5
  13  -4  13 325.825 82.0406  10
  13   4  13 188.548 60.8970  10
 -13  -4 -13 211.688 69.2088   5
 -13  -5   0 30.0023 67.0786  21
  13  -5   0 75.1393 81.7389  18
 -13  -5  -1 71.0255 75.2095  21
  13  -5  -1-35.0834 75.9398  18
  13  -5   1 62.8416 77.2925  18
 -13  -5  -2 13807.7 497.414  21
  13  -5  -2 13661.1 502.656  18
  13  -5   2 12790.3 495.970  18
  13   5  -2 13589.3 480.996  18
 -13  -5  -3 527.648 117.917  21
  13  -5  -3 531.415 108.369  18
  13  -5   3 525.639 109.365  18
 -13  -5  -4 661.824 126.269  21
  13  -5  -4 596.203 120.579  18
  13  -5   4 399.417 102.060  18
  13  -5   5 108.611 71.0001  10
 -13  -5  -5 81.3863 66.8133  21
  13  -5   5 91.1907 75.3144  18
  13  -5   6 1467.99 166.380  10
  13  -5  -6 1680.56 162.011   7
 -13  -5  -6 1568.56 180.077  21
  13  -5   6 1714.57 181.837  18
  13   5   7 13.2840 67.9795  18
  13  -5   7 13.2215 80.9514  10
 -13  -5  -7 109.286 68.0613   5
  13  -5  -7 60.3351 60.4830   7
 -13  -5  -7 19.0984 68.9866  21
 -13  -5  -8 3142.31 230.480   5
  13  -5  -8 3468.87 224.683   7
 -13  -5  -8 3590.88 250.305  21
  13  -5   8 3530.22 252.720  10
  13  -5   9 82.2996 76.6153  10
 -13  -5  -9 118.642 60.6673   5
  13  -5  -9 106.860 70.5712   7
 -13  -5  -9 82.1892 68.0640  21
 -13  -5 -10 5894.17 299.803   5
 -13  -5 -10 6078.67 297.761  21
  13  -5  10 6097.25 316.303  10
  13  -5  11 613.383 115.083  10
 -13  -5 -11 513.413 102.045   5
 -13  -5 -12 6884.80 295.688   5
  13  -5  12 6484.22 300.643  10
  13   5  12 6443.92 285.395  10
 -13  -5 -13 249.812 65.9715   5
  13  -5  13 192.417 64.5133  10
 -13  -6   0-19.2532 76.5269  21
  13  -6   0 19.9385 77.3651  18
 -13  -6  -1-64.3810 77.3276  21
  13  -6  -1-54.1801 78.5331  18
  13  -6   1-24.8003 80.1920  18
  13  -6  -2 227.653 82.1576  16
 -13  -6  -2-8.45841 82.2539  21
  13  -6  -2 99.7837 75.8958  18
  13  -6   2 60.8701 73.4223  18
 -13  -6  -3-47.7675 79.4303  21
  13  -6  -3 21.0490 82.8834  18
  13  -6   3 19.5728 83.3735  18
 -13  -6  -4 138.963 84.6070  21
  13  -6   4 99.9164 76.4410  18
  13  -6  -5 446.885 97.9348   7
 -13  -6  -5 441.240 109.619  21
  13  -6   5 521.026 114.666  18
  13  -6  -6 2968.17 214.436   7
 -13  -6  -6 2955.94 234.128  21
  13  -6   6 3018.92 236.035  10
  13  -6   6 2930.63 232.268  18
  13  -6   7 672.626 121.132  10
  13  -6  -7 936.189 126.204   7
 -13  -6  -7 785.573 132.340  21
  13  -6   8 932.952 134.281  10
  13  -6  -8 996.857 131.199   7
 -13  -6  -8 856.586 129.561  21
  13  -6   9-72.8936 81.8133  10
 -13  -6  -9-4.30125 66.2941   5
  13  -6  -9-4.94310 57.2491   7
 -13  -6  -9 70.2763 66.7674  21
  13  -6  10 530.370 106.778  10
 -13  -6 -10 658.640 108.667   5
 -13  -6 -10 591.548 100.121  21
  13  -6  11 302.492 83.0678  10
 -13  -6 -11 229.899 67.5208   5
  13   6  12 467.466 86.0863  10
 -13  -6 -12 471.879 86.0076   5
  13  -6  12 390.360 85.0606  10
  13  -7   0-83.8895 86.5818  16
  13  -7   0-79.7840 80.1082  18
  13  -7  -1 1054.75 135.869  16
  13  -7   1 720.022 111.788   8
  13  -7   1 947.253 151.904  18
  13  -7  -2 403.354 104.767  16
  13  -7   2 370.550 82.4930   8
  13  -7   2 370.611 108.121  18
  13  -7  -3 1105.49 142.109  16
  13  -7   3 1213.81 144.389   8
 -13  -7  -3 1163.47 153.337  21
  13  -7   3 1052.10 148.516  18
 -13  -7  -4 2646.31 225.147  21
  13  -7   4 2005.61 200.182  18
  13  -7  -5 9220.37 366.520   7
 -13  -7  -5 8787.68 396.343  21
  13  -7  -6 3147.44 217.501   7
 -13  -7  -6 3310.69 242.995  21
  13  -7   6 3106.66 231.830  10
  13  -7   7 256.775 86.0824  10
  13  -7  -7 344.231 88.3297   7
 -13  -7  -7 200.934 83.0222  21
  13  -7   8 430.124 102.552  10
  13   7   8 452.401 93.9508  18
  13  -7  -8 562.297 101.546   7
 -13  -7  -8 494.565 106.221  21
  13  -7  -9 1537.56 149.758   7
 -13  -7  -9 1718.78 164.009  21
  13  -7   9 1556.78 163.382  10
 -13  -7 -10 1333.85 140.800   5
 -13  -7 -10 1197.41 129.569  21
  13  -7  10 1314.82 146.406  10
 -13  -7 -11-9.00326 49.4912   5
  13  -7  11 41.1668 58.0511  10
 -13  -7 -12 955.203 106.355   5
  13  -7  12 1003.48 113.530  10
  13  -8   0 150.216 85.0081  16
  13  -8  -1 128.138 77.9060  16
  13  -8   1 98.6331 78.7507  16
  13  -8   1 140.472 71.5261   8
  13  -8  -2 2398.34 202.853  16
  13  -8   2 2056.17 193.956  16
  13  -8   2 2305.04 191.468   8
  13  -8  -3 110.801 73.7786  16
  13  -8   3 104.411 69.1876   8
  13  -8  -4 446.189 99.6266  16
  13  -8   4 549.759 102.380   8
 -13  -8  -4 675.322 122.500  21
  13  -8   5 456.767 93.6426   8
  13  -8  -5 593.553 106.330   7
 -13  -8  -5 458.609 111.268  21
  13  -8   6 1229.48 134.572   8
  13  -8  -6 1243.58 138.448   7
 -13  -8  -6 1110.66 141.446  21
  13  -8   6 1088.24 136.090  10
  13  -8   7 266.881 64.7261   8
  13  -8  -7 368.973 89.9235   7
 -13  -8  -7 400.816 96.5513  21
  13  -8   7 411.431 86.8794  10
  13  -8   8-31.6986 57.8464   8
  13  -8  -8 7.06265 54.3430   7
 -13  -8  -8-68.3439 64.9777  21
  13  -8   8-29.8835 71.1957  10
  13  -8  -9 295.806 72.5093   7
 -13  -8  -9 292.982 75.2573  21
  13  -8   9 453.135 92.7757  10
 -13  -8 -10 11.4916 44.5376   5
  13  -8  10 139.393 61.6190  10
 -13  -8 -11 347.757 73.6430   5
  13  -8  11 337.156 70.0862  10
  13  -9   0-27.0639 76.7629  16
  13  -9  -1 30.7158 69.5260  16
  13  -9   1 152.116 86.0937  16
  13  -9  -2 5147.39 286.655  16
  13  -9   2 5629.95 302.844  16
  13  -9   2 5602.74 284.824   8
  13  -9  -3 5760.87 298.176  16
  13  -9   3 5816.36 305.464  16
  13  -9   3 6030.47 297.126   8
  13  -9  -4 145.676 83.2281  16
  13  -9   4 51.2738 75.2572  16
  13  -9   4 18.6070 61.3829   8
  13  -9  -4 129.471 72.8499   7
 -13  -9  -4 79.2766 72.8899  21
  13  -9   5 5205.80 281.494  16
  13  -9   5 5080.28 263.987   8
  13  -9  -5 4939.25 258.492   7
 -13  -9  -5 5146.38 292.484  21
  13  -9   6-111.484 69.7944  16
  13  -9   6 41.5662 63.8465   8
  13  -9  -6 10.5190 52.4206   7
 -13  -9  -6-1.37402 64.8579  21
  13  -9   7 9.21172 58.8571  16
  13  -9   7-70.7401 63.1251   8
  13  -9  -7 49.9186 56.9574   7
 -13  -9  -7-47.8943 67.0649  21
  13  -9   7 92.8690 69.3651  10
  13  -9   8 1270.35 130.568  16
  13  -9   8 1304.60 129.753   8
  13  -9  -8 1494.42 140.682   7
 -13  -9  -8 1436.55 146.899  21
  13  -9   8 1344.59 138.656  10
  13  -9   9 494.792 79.5311   8
  13  -9  -9 509.493 82.2077   7
 -13  -9  -9 403.466 79.8816  21
  13  -9   9 382.723 84.1869  10
  13  -9  10 115.230 57.9289  10
  13 -10   0 21.5888 60.5156  16
  13 -10  -1 224.354 88.6952  16
  13 -10   1 130.567 71.9713  16
  13 -10  -2 1576.90 164.141  16
  13 -10   2 1475.47 156.266  16
  13 -10   2 1513.74 151.943   8
  13 -10  -3 489.114 96.7593  16
  13 -10   3 467.669 101.744  16
  13 -10   3 338.148 82.2711   8
  13 -10  -4 619.524 104.190  16
  13 -10   4 442.859 95.9116  16
  13 -10   4 603.787 102.152   8
  13 -10  -4 556.195 95.0346   7
 -13 -10  -4 533.411 104.403  21
  13 -10  -5 399.766 88.6530  16
  13 -10   5 385.152 85.0395  16
  13 -10   5 412.393 87.0863   8
  13 -10  -5 340.125 81.2262   7
 -13 -10  -5 512.540 99.4045  21
  13 -10   6 442.528 91.1043  16
  13 -10   6 341.948 74.5587   8
  13 -10  -6 403.315 83.6975   7
 -13 -10  -6 277.538 80.1572  21
  13 -10   7 47.1790 53.1891  16
  13 -10   7-64.0721 50.1720   8
  13 -10  -7 14.1761 46.8976   7
 -13 -10  -7-15.8086 54.4602  21
  13 -10   8 59.9843 46.0002   8
  13 -10  -8 23.9482 41.7816   7
 -13 -10  -8-37.2276 54.9390  21
  13 -10   8-28.3861 52.0034  10
  13 -10  -9 46.1826 39.2718   7
  13 -11   0 10.0824 55.4303  16
  13 -11  -1 954.336 127.934  16
  13 -11   1 1056.76 130.060  16
  13 -11  -2 4184.09 241.791  16
  13 -11   2 3749.68 229.692  16
  13 -11  -3 107.424 61.2352  16
  13 -11   3 16.2215 63.7556  16
  13 -11   3 159.279 61.9699   8
  13 -11  -3 179.387 69.5475   7
  13 -11  -4 1238.71 135.387  16
  13 -11   4 1219.95 128.865  16
  13 -11   4 1308.04 131.062   8
  13 -11  -4 1296.67 127.243   7
 -13 -11  -4 1602.48 155.098  21
  13 -11  -5 1563.41 141.592  16
  13 -11   5 1642.87 145.112  16
  13 -11   5 1731.57 144.022   8
  13 -11  -5 1683.86 139.791   7
 -13 -11  -5 1767.99 155.189  21
  13 -11  -6 129.761 53.2965  16
  13 -11   6 95.8570 50.3281  16
  13 -11   6 192.163 57.2133   8
  13 -11  -6 174.947 55.6068   7
 -13 -11  -6 141.168 64.7143  21
  13 -11   7-7.43515 47.2121   8
  13 -11  -7 41.6097 41.8478   7
 -13 -11  -7 90.8471 57.2113  21
  13 -12   0-6.58805 51.9055  16
  13 -12  -1 375.547 83.1987  16
  13 -12   1 291.830 76.1056  16
  13 -12  -2-7.54170 48.5265  16
  13 -12   2-70.4514 57.4596  16
  13 -12  -3 154.291 63.6703  16
  13 -12   3 18.9390 48.0070  16
  13 -12  -3 53.5678 51.0098   7
 -13 -12  -3 145.811 54.1658  21
  13 -12  -4 202.988 68.1347  16
  13 -12   4 141.130 55.2835  16
  13 -12  -4 159.421 55.7477   7
 -13 -12  -4 205.747 60.4208  21
  14   0   0 8853.40 399.032  17
  14   0   0 9316.99 418.505  18
  14   0   1-16.6012 68.8755  17
  14   0  -1-6.65393 65.5552  18
  14   0   1 5.47012 73.6847  18
  14   0   2 9461.16 420.003  17
  14   0  -2 10208.6 429.742  18
  14   0   2 9953.48 434.753  18
  14   0   3-31.3896 81.0315  17
  14   0  -3-52.9219 80.1394  18
  14   0   3-49.0030 89.6732  18
  14   0   4 25.7648 67.5833  17
  14   0   4 121.540 84.1836  10
  14   0   4 7.30737 77.0762  18
  14   0   5 150.507 96.1733  17
  14   0   5 100.300 73.3085  10
  14   0   5-3.50856 72.8109  18
 -14   0  -6 4115.44 259.647   5
  14   0   6 4276.03 286.743  17
  14   0   6 4154.20 278.989  10
  14   0   6 4260.15 278.907  18
  14   0   7 29.3841 63.9123  17
 -14   0  -7 58.4358 67.7072   5
  14   0   7-85.4201 78.0081  10
  14   0   7-39.4892 65.7976  18
 -14   0  -8 8688.78 376.747   5
  14   0   8 7759.03 369.827  17
  14   0   8 8038.15 384.070  10
  14   0   9-0.14719 64.6516  17
 -14   0  -9-4.85806 55.5595   5
  14   0   9-7.36628 64.9012  10
  14   0  10 1547.84 167.342  10
 -14   0 -10 1356.27 151.917   5
  14   0  11 154.103 79.3132  10
 -14   0 -11 7.76704 51.6338   5
  14   0  12 280.947 82.2581  10
 -14   0 -12 216.822 70.6373   5
  14   0  13-74.4483 55.3227  10
  14  -1   0 2762.73 228.706  17
  14   1   0 2766.39 224.916  17
  14  -1   0 2529.91 225.335  18
  14   1   0 2868.30 235.376  18
  14   1  -1 655.870 125.627  18
  14   1   1 418.322 112.169  18
  14  -1  -1 531.700 119.647  17
  14  -1   1 412.583 105.771  17
  14   1   1 362.823 105.618  17
 -14  -1  -1 390.022 97.4179  21
  14  -1  -1 441.034 105.296  18
  14  -1   1 530.245 118.946  18
  14   1   2 291.033 89.9335  18
  14  -1   2 315.354 96.1001  17
  14   1   2 362.099 109.729  17
 -14  -1  -2 278.066 95.2653  21
  14  -1  -2 295.483 105.186  18
  14  -1   2 292.562 97.2696  18
  14   1  -2 333.944 102.401  18
  14  -1   3 4248.42 290.288  17
  14   1   3 4453.48 293.213  17
 -14  -1  -3 4022.93 277.593  21
  14  -1  -3 4587.77 288.752  18
  14  -1   3 4669.03 302.424  18
  14   1  -3 4528.42 284.454  18
  14   1   3 4579.03 299.034  18
  14  -1   4 2146.24 210.962  17
  14   1   4 2168.63 208.943  17
 -14  -1  -4 2215.60 207.199  21
  14  -1   4 2209.42 197.067  10
  14  -1   4 2120.28 208.622  18
  14   1   4 2026.63 204.431  18
  14   1   5 1075.70 156.052  18
  14  -1   5 942.301 148.207  17
  14   1   5 952.033 147.075  17
  14  -1   5 976.259 146.377  10
  14  -1   5 848.573 139.654  18
  14  -1   6 6381.55 348.010  17
  14   1   6 6143.94 339.194  17
  14  -1   6 6101.49 331.094  10
  14  -1   6 6087.30 332.846  18
  14   1   6 6014.13 332.595  18
 -14   1  -6 5912.21 313.584   5
 -14  -1  -7 1913.97 181.341   5
  14  -1   7 1777.03 186.741  17
  14   1   7 1783.91 188.708  17
  14  -1   7 1865.45 194.130  10
  14   1   7 2073.84 200.355  10
  14   1   7 1951.37 190.135  18
 -14   1  -7 1935.99 185.510   5
  14  -1   8 77.3252 72.7106  17
 -14   1  -8 213.697 87.0248   5
  14   1   8 72.2761 75.0404  17
  14  -1   8 107.734 84.3470  10
  14   1   8 128.177 83.0660  10
 -14  -1  -8 3.03783 59.5495   5
  14  -1   9 938.994 139.617  17
 -14   1  -9 1086.11 142.597   5
  14   1   9 808.776 127.819  17
  14  -1   9 1160.25 149.956  10
  14   1   9 1081.15 145.923  10
 -14  -1  -9 714.935 115.488   5
 -14  -1 -10 2024.43 179.931   5
  14  -1  10 2124.17 194.575  10
  14   1  10 2285.30 199.216  10
 -14   1 -10 2048.37 182.980   5
  14  -1  11 260.763 82.3234  10
  14   1  11 195.642 78.4582  10
 -14  -1 -11 50.5736 57.8366   5
  14  -1  12 99.5256 63.6177  10
  14   1  12 56.6810 51.8826  10
 -14  -1 -12 109.796 58.1842   5
  14   1  13 957.641 110.484  10
  14  -1  13 952.112 112.782  10
 -14  -1 -13 767.619 98.2025   5
  14  -2   0 3285.08 248.172  17
  14   2   0 3309.71 245.004  17
  14  -2   0 3166.38 251.992  18
  14   2   0 3158.81 249.516  18
  14  -2  -1 10590.9 427.840  17
  14  -2   1 11455.0 461.024  17
  14   2   1 10137.8 426.791  17
 -14  -2  -1 9779.13 413.803  21
  14  -2  -1 10390.7 441.904  18
  14  -2   1 10403.4 448.942  18
  14   2  -1 9920.58 425.811  18
  14   2   1 10338.6 440.025  18
  14   2  -2 1369.65 168.763  18
  14  -2   2 1366.11 173.217  17
 -14  -2  -2 1665.94 180.313  21
  14  -2  -2 1477.86 177.613  18
  14  -2   2 1378.70 176.717  18
  14   2   2 1610.73 185.899  18
  14   2   3 1600.09 182.986  18
  14  -2   3 1877.63 199.757  17
 -14  -2  -3 1989.82 199.954  21
  14  -2  -3 2161.14 207.550  18
  14  -2   3 1868.26 198.914  18
  14   2   4 733.878 132.544  18
  14  -2   4 768.823 136.771  17
 -14  -2  -4 670.924 130.436  21
  14  -2   4 775.158 138.338  18
  14   2   5 1520.90 175.186  18
  14  -2   5 1685.67 188.699  17
  14   2   5 1523.85 176.576  17
 -14  -2  -5 1582.56 175.971  21
  14  -2   5 1801.33 187.495  10
  14  -2   5 1595.38 182.267  18
  14  -2   6 2217.11 205.865  17
  14   2   6 2140.41 208.398  17
 -14  -2  -6 2019.35 196.090  21
  14  -2   6 2091.12 199.768  10
  14  -2   6 1888.72 190.671  18
  14   2   6 2080.12 202.035  18
 -14  -2  -7 2547.86 206.305   5
  14  -2   7 2625.77 224.449  17
  14   2   7 2372.81 217.702  17
  14  -2   7 2596.93 220.361  10
  14   2   7 2682.13 221.424  18
  14  -2   8 223.039 76.9939  17
  14  -2   8 234.180 84.8204  10
  14   2   8 115.670 70.7406  17
  14   2   8 212.129 90.9785  10
 -14  -2  -8 76.3705 63.6144   5
 -14  -2  -9 2926.66 217.341   5
  14  -2   9 3319.44 233.519  17
  14   2   9 3123.58 228.193  17
  14  -2   9 3396.23 242.635  10
  14   2   9 3578.46 253.230  10
  14  -2  10 108.928 71.1937  10
  14   2  10 25.2206 62.5335  17
  14   2  10 131.073 78.7520  10
 -14  -2 -10 26.6335 55.4427   5
  14  -2  11 512.652 101.370  10
  14   2  11 446.914 92.7697  10
 -14  -2 -11 278.961 71.8818   5
  14  -2  12 61.5594 54.3881  10
  14   2  12 120.399 60.1034  10
 -14  -2 -12 39.2964 51.8400   5
  14  -2  13 62.6471 48.1726  10
 -14  -2 -13 22.7705 43.0326   5
  14   3   0 230.193 106.420  18
  14  -3   0 160.138 71.4320  17
  14  -3   0 123.112 93.4295  18
  14  -3  -1 4004.42 266.904  17
  14  -3   1 4209.25 281.189  17
 -14  -3  -1 4091.40 272.989  21
  14  -3  -1 4558.56 298.941  18
  14  -3   1 3727.67 274.225  18
  14   3  -1 4014.25 273.262  18
  14   3   1 4094.40 282.935  18
  14   3  -2 95.5664 82.0469  18
  14   3   2 81.3850 77.9991  18
  14  -3   2 28.5516 78.4364  17
 -14  -3  -2 209.983 86.7323  21
  14  -3  -2 26.8980 81.0604  18
  14  -3   2 44.1063 86.8684  18
  14  -3   3 12349.6 478.925  17
 -14  -3  -3 11388.3 457.927  21
  14  -3  -3 12458.8 472.203  18
  14  -3   3 12108.2 478.334  18
  14   3   3 11494.3 464.706  18
  14   3   4 133.146 81.2547  18
  14  -3   4 67.3398 71.6515  17
 -14  -3  -4 206.981 87.6728  21
  14  -3   4 91.7829 88.8099  18
  14   3   5 7.60314 75.0909  18
  14  -3   5-24.8819 79.1606  17
  14  -3   5 81.4190 77.6415  10
 -14  -3  -5 15.5979 67.8541  21
  14  -3   5 5.90198 75.6440  18
  14   3   6 1007.98 145.917  18
  14  -3   6 721.525 131.293  17
  14  -3   6 940.462 137.777  10
 -14  -3  -6 862.117 139.976  21
  14  -3   6 907.241 142.087  18
 -14  -3  -7 1413.16 154.007   5
  14  -3   7 1293.11 161.368  17
 -14  -3  -7 1481.43 167.311  21
  14  -3   7 1361.03 167.051  10
  14   3   7 1629.88 173.564  18
  14  -3   8 480.728 104.343  17
  14  -3   8 645.895 117.951  10
  14   3   8 490.184 103.039  17
 -14  -3  -8 475.031 100.031   5
 -14  -3  -9 1555.82 157.953   5
  14   3   9 1429.47 155.621  17
  14  -3   9 1632.32 173.523  10
  14   3   9 1680.01 179.098  10
  14  -3  10 884.538 126.539  10
  14   3  10 877.928 119.145  17
  14   3  10 940.881 130.246  10
 -14  -3 -10 946.572 125.140   5
  14  -3  11-8.79784 56.8410  10
  14   3  11 44.1251 59.2431  10
 -14  -3 -11 7.75557 49.8849   5
  14  -3  12 136.725 66.1704  10
  14   3  12 15.0329 52.6053  10
 -14  -3 -12 49.0718 49.6125   5
  14   4   0 949.339 143.927  18
  14  -4   0 936.867 149.334  18
 -14  -4  -1 3241.83 243.340  21
  14  -4  -1 3646.76 269.597  18
  14  -4   1 3289.56 256.842  18
  14   4  -1 3400.82 251.593  18
  14   4   1 3198.40 248.746  18
  14  -4   2 2448.93 219.556  17
 -14  -4  -2 2357.46 211.502  21
  14  -4  -2 2241.51 213.519  18
  14  -4   2 2464.69 226.486  18
  14   4  -2 2469.51 215.827  18
  14   4   2 2389.53 218.316  18
  14   4   3 121.592 83.7323  18
  14  -4   3 226.516 91.4980  17
 -14  -4  -3 155.000 69.3592  21
  14  -4  -3 184.819 67.4961  18
  14  -4   3 185.036 95.2640  18
  14   4   4 361.120 108.655  18
  14  -4   4 41.0010 77.1385  17
 -14  -4  -4 243.903 92.7731  21
  14  -4   4 225.312 89.6846  18
  14   4   5 1068.73 147.125  18
 -14  -4  -5 1223.21 162.093  21
  14  -4   5 986.527 147.873  18
  14   4   6 285.788 99.7123  18
  14  -4   6 140.070 73.7318  10
 -14  -4  -6 220.113 82.6395  21
  14  -4   6 309.122 84.2457  18
 -14  -4  -7 1355.72 159.485  21
  14  -4   7 1602.32 167.203  10
  14   4   7 1405.65 161.559  18
 -14  -4  -8 3813.93 240.134   5
 -14  -4  -8 4120.62 260.144  21
  14  -4   8 4408.10 271.369  10
 -14  -4  -9 1515.17 153.027   5
  14   4   9 1472.38 156.804  17
  14  -4   9 1619.42 168.808  10
 -14  -4 -10 1341.95 140.936   5
  14   4  10 1197.85 134.697  17
  14   4  10 1087.11 133.125  10
  14  -4  10 1293.60 148.844  10
  14  -4  11 543.405 100.148  10
  14   4  11 541.376 97.5070  10
 -14  -4 -11 626.502 98.4887   5
  14  -4  12 218.069 67.9294  10
  14   4  12 114.779 58.6931  10
 -14  -4 -12 128.762 53.1541   5
  14  -5   0 3257.17 255.124  18
  14   5   0 3519.72 254.787  18
  14   5  -1 474.934 110.625  18
  14   5   1 197.024 86.3660  18
 -14  -5  -1 288.750 89.4225  21
  14  -5  -1 402.250 105.916  18
  14  -5   1 340.104 103.396  18
  14   5  -2 265.902 85.5747  18
  14   5   2 257.983 91.3425  18
 -14  -5  -2 117.061 67.1340  21
  14  -5  -2 173.282 72.5206  18
  14  -5   2 312.640 103.235  18
  14   5   3 477.901 110.756  18
 -14  -5  -3 640.575 119.800  21
  14  -5  -3 451.815 105.378  18
  14  -5   3 734.489 139.874  18
 -14  -5  -4 2239.57 207.677  21
  14  -5  -4 2354.75 205.115  18
  14  -5   4 2170.28 204.349  18
  14   5   4 2445.88 214.920  18
  14   5   5 27.9866 72.9098  18
 -14  -5  -5 58.6407 70.5177  21
  14  -5   5-0.31555 70.1646  18
 -14  -5  -6 4012.00 263.986  21
  14  -5   6 3769.90 250.524  10
  14  -5   6 3842.83 259.861  18
  14   5   6 3545.01 251.750  18
  14   5   7 231.999 75.1744  18
  14  -5   7 230.382 81.5257  10
 -14  -5  -7 341.411 95.9189  21
  14  -5   8 64.3365 61.1181  10
 -14  -5  -8 9.85582 51.3336   5
 -14  -5  -8 31.8177 65.0533  21
  14  -5   9-21.8666 67.7765  10
 -14  -5  -9 80.2943 63.1545   5
 -14  -5  -9 1.01691 63.3303  21
 -14  -5 -10 1435.87 141.181   5
  14   5  10 1528.32 149.650  17
  14  -5  10 1595.00 158.444  10
  14   5  10 1434.51 146.347  10
  14  -5  11 32.8082 49.6298  10
  14   5  11 145.343 62.8091  10
 -14  -5 -11 114.774 67.9479   5
 -14  -5 -12 584.385 85.1932   5
  14  -5  12 843.456 104.954  10
  14   6   0 337.012 99.5660  18
 -14  -6   0 332.749 82.2386  21
  14  -6   0 343.736 95.3482  18
  14   6  -1 82.3742 66.3235  18
  14   6   1-45.9769 77.6053  18
  14  -6  -1 182.486 81.8700  16
 -14  -6  -1 45.1388 64.3146  21
  14  -6  -1-10.6392 77.2032  18
  14  -6   1 46.4378 73.3381  18
 -14  -6  -2 3100.94 238.591  21
  14  -6  -2 2975.52 238.315  18
  14  -6   2 3200.01 250.042  18
  14   6  -2 2879.20 219.396  18
  14   6   3 64.7504 70.4434  18
 -14  -6  -3 134.451 71.7900  21
  14  -6   3 68.5605 70.2375  18
  14   6   4 939.136 134.579  18
 -14  -6  -4 1355.07 164.652  21
  14  -6   4 927.845 141.199  18
  14   6   5 457.876 101.156  18
 -14  -6  -5 458.987 109.527  21
  14  -6   5 431.173 109.371  18
  14  -6   6 1190.57 146.208  10
  14   6   6 1278.45 153.752  18
  14  -6  -6 1210.02 130.912   7
 -14  -6  -6 1389.49 167.070  21
  14  -6   6 1251.13 149.543  18
  14  -6   7 563.277 108.725  10
  14   6   7 612.609 114.374  18
  14  -6  -7 625.198 102.539   7
 -14  -6  -7 634.264 118.185  21
  14  -6  -8 5315.51 252.587   7
 -14  -6  -8 5431.94 283.695  21
  14  -6   8 4846.48 270.122  10
  14   6   8 5220.29 272.696  18
  14  -6   9 85.5958 61.0542  10
 -14  -6  -9 96.5118 48.8209   5
 -14  -6  -9 143.448 66.7511  21
 -14  -6 -10 1763.96 149.427   5
  14   6  10 1778.21 152.440  17
  14  -6  10 1738.77 158.685  10
  14   6  11 63.0726 55.6684  10
 -14  -6 -11-50.4773 54.7827   5
  14  -6  11-52.4153 50.4910  10
  14  -7   0 375.690 96.8966  16
 -14  -7   0 338.081 95.7451  21
  14  -7  -1 3779.42 243.546  16
  14  -7   1 3550.22 238.800  16
 -14  -7  -1 3461.34 242.403  21
  14   7  -1 3651.34 248.142  18
  14   7  -2 24.0356 62.0802  18
  14  -7  -2-27.9528 62.6438  16
 -14  -7  -2-62.0162 81.6729  21
 -14  -7  -3 3850.68 259.978  21
  14  -7  -4 91.7601 66.1970   7
 -14  -7  -4 22.8909 59.9607  21
  14   7   5 395.301 105.202  18
  14  -7  -5 335.369 81.8060   7
 -14  -7  -5 305.275 89.6348  21
  14   7   6 204.414 76.6718  18
  14  -7  -6 178.908 62.9444   7
 -14  -7  -6 182.643 81.1334  21
  14   7   7 915.981 124.306  18
  14  -7  -7 1034.97 118.064   7
 -14  -7  -7 1177.42 140.222  21
  14  -7   7 961.536 123.377  10
  14   7   8 8.88307 50.7652  18
  14  -7  -8 21.6824 46.4817   7
 -14  -7  -8-85.8168 62.7001  21
  14  -7   8-58.8752 66.3826  10
 -14  -7  -9 1603.58 140.878   5
 -14  -7  -9 2050.64 163.045  21
  14  -7   9 1866.46 158.978  10
  14   7  10 508.070 85.2230  17
 -14  -7 -10 499.324 82.8974   5
  14  -8   0 208.060 86.2633  16
 -14  -8   0 52.9420 72.2797  21
  14  -8  -1 4992.33 274.937  16
  14  -8   1 5538.90 294.653  16
 -14  -8  -1 5102.82 285.964  21
  14   8  -2 94.6696 64.4090  18
  14  -8  -2-51.5630 71.2941  16
 -14  -8  -2 65.1931 68.9756  21
  14  -8   3 1270.51 152.953  16
  14  -8  -3 1092.68 127.459  16
  14  -8   3 888.079 117.506   8
  14  -8  -3 1154.78 129.494   7
 -14  -8  -3 958.117 137.508  21
  14  -8   4 652.205 109.200  16
  14  -8  -4 799.307 112.172   7
 -14  -8  -4 911.043 134.162  21
  14  -8  -5 1609.45 147.025   7
 -14  -8  -5 1609.16 164.186  21
  14   8   6 57.2937 52.6431  18
  14  -8  -6 70.6480 55.5287   7
  14   8   7 867.572 117.293  18
  14  -8  -7 922.752 111.672   7
 -14  -8  -7 1152.53 132.933  21
  14  -8   7 1218.51 135.355  10
  14   8   8 69.0972 54.3500  18
  14  -8  -8 44.4844 46.6143   7
 -14  -8  -8 124.809 57.8041  21
  14  -8   8 79.9072 53.5644  10
  14  -8   9 796.547 98.4542  16
 -14  -8  -9 807.393 101.544  21
  14  -8   9 870.906 106.937  10
  14  -9   0 788.054 118.601  16
 -14  -9   0 684.796 104.742  21
  14  -9  -1 2.40710 61.9032  16
  14  -9   1-108.235 68.5072  16
 -14  -9  -1 33.6441 55.2779  21
  14  -9  -2 651.389 107.676  16
  14  -9   2 519.624 102.842  16
 -14  -9  -2 617.090 108.226  21
  14  -9  -3 260.919 78.4214  16
  14  -9   3 123.833 70.3327  16
 -14  -9  -3 310.589 86.8481  21
  14  -9  -4 1344.95 135.393  16
  14  -9   4 1547.52 151.254  16
  14  -9   4 1428.07 137.183   8
  14  -9  -4 1630.38 142.734   7
 -14  -9  -4 1584.58 159.013  21
  14  -9   5-55.4726 56.2796  16
  14  -9   5-33.0386 50.8133   8
  14  -9  -5-95.8045 64.3214   7
 -14  -9  -5-10.1923 58.2530  21
  14  -9   6 1950.47 159.030  16
  14  -9   6 1924.76 149.896   8
  14  -9  -6 2061.13 152.899   7
 -14  -9  -6 2036.90 170.087  21
  14   9   6 1964.99 165.353  18
  14   9   7 88.1047 55.3341  18
  14  -9   7 36.2056 46.8510  16
  14  -9  -7 64.5445 50.5272   7
 -14  -9  -7-7.22457 49.9654  21
  14  -9  -8 174.823 50.7875   7
 -14  -9  -8 161.558 57.3767  21
  14 -10   0 2904.82 200.377  16
 -14 -10   0 2544.21 186.044  21
  14 -10  -1 1860.59 164.332  16
  14 -10   1 1716.74 162.268  16
 -14 -10  -1 1560.91 150.355  21
  14 -10  -2 1552.66 147.103  16
  14 -10   2 1667.04 150.848  16
 -14 -10  -2 1588.34 152.875  21
  14 -10  -3 150.154 63.6298  16
  14 -10   3 122.448 59.7475  16
  14 -10  -3 88.9161 54.6277   7
 -14 -10  -3 62.5616 59.5390  21
  14 -10  -4 167.265 67.4088  16
  14 -10   4 103.469 57.5018  16
  14 -10  -4 95.8329 52.4963   7
 -14 -10  -4 181.846 72.8916  21
  14 -10   5 337.306 75.1100  16
  14 -10   5 295.238 69.4566   8
  14 -10  -5 328.410 68.1832   7
 -14 -10  -5 375.639 78.9875  21
  14  10   6 869.508 109.108  18
  14 -10   6 574.939 89.0764  16
  14 -10   6 692.444 89.4994   8
  14 -10  -6 857.257 95.6343   7
 -14 -10  -6 661.117 96.8464  21
  14 -11   0 746.576 105.260  16
 -14 -11   0 694.858 96.0864  21
  14  11  -1 281.118 61.4884  18
  14 -11  -1 221.282 66.5043  16
  14 -11   1 307.153 72.5257  16
 -14 -11  -1 345.899 68.3373  21
  14 -11  -2 400.121 79.6834  16
  14 -11   2 213.989 67.1140  16
  14 -11  -2 268.400 62.4198   7
 -14 -11  -2 240.519 64.4033  21
  14 -11  -3 1151.92 118.352  16
  14 -11   3 1353.29 129.441  16
  14 -11  -3 1151.38 110.299   7
 -14 -11  -3 1038.25 116.860  21
  14 -11  -4 108.198 45.5313   7
 -14 -11  -4 143.072 57.5658  21
  15   0   0-29.2617 72.2894  17
  15   0   0-43.0778 72.3780  18
  15   0   1-35.2623 77.7142  17
  15   0  -1 27.4925 71.4855  18
  15   0   1-94.3785 84.9688  18
  15   0   2 689.958 123.489  17
  15   0  -2 758.660 130.826  18
  15   0   2 519.841 118.357  18
  15   0   3-117.708 84.4118  17
  15   0  -3 14.0941 78.0506  18
  15   0   3 26.0174 69.2147  18
  15   0   4 430.792 113.077  17
  15   0   4 594.977 126.990  18
  15   0   5 79.4343 73.8344  17
  15   0   5-40.6019 66.8771  10
  15   0   5-25.3083 70.8533  18
  15   0   6 195.105 93.1668  17
  15   0   6 156.328 82.9818  10
  15   0   6 216.685 79.0417  18
  15   0   7-5.70043 66.7960  17
  15   0   7 71.1529 70.6211  10
 -15   0  -7 38.3450 58.1349   5
  15   0   7-1.70428 58.4116  18
  15   0   8 395.182 95.2448  17
  15   0   8 475.346 106.078  10
  15   0   9-15.1398 56.5449  17
  15   0   9 87.8091 61.6341  10
  15   0  10-14.3587 53.7072  10
  15   0  11-70.2991 64.4921  10
  15  -1   0-51.6475 75.2569  17
  15   1   0 27.6209 63.3867  17
  15  -1   0-89.7432 87.8216  18
  15   1   0-25.0563 72.9483  18
  15  -1   1 1377.18 170.490  17
  15   1   1 1284.50 162.923  17
  15  -1  -1 1240.78 162.309  18
  15  -1   1 1257.22 165.654  18
  15   1  -1 1156.21 154.488  18
  15   1   1 1252.93 163.926  18
  15  -1   2 621.113 122.448  17
  15   1   2 806.932 134.205  17
  15  -1  -2 914.295 142.471  18
  15  -1   2 821.078 138.256  18
  15   1  -2 717.669 125.610  18
  15   1   2 617.969 128.050  18
  15  -1   3 2029.61 200.808  17
  15   1   3 1890.39 195.440  17
  15  -1  -3 2027.14 194.441  18
  15  -1   3 2207.35 210.188  18
  15   1  -3 2116.49 193.901  18
  15   1   3 2386.63 220.838  18
  15  -1   4 16225.3 542.666  17
  15   1   4 15903.4 534.596  17
  15   1   4 16677.0 518.719  10
  15  -1   4 16602.6 544.682  18
  15   1   4 16940.2 553.507  18
  15  -1   5 265.630 97.4088  17
  15   1   5 188.655 78.5597  17
  15  -1   5 235.676 90.7639  10
  15   1   5 354.036 105.914  10
  15  -1   5 278.236 110.391  18
  15   1   5 209.500 88.1392  18
  15  -1   6 4237.89 272.911  17
  15   1   6 4514.27 284.151  17
  15  -1   6 4577.36 275.270  10
  15   1   6 4543.61 279.056  10
  15  -1   6 3839.53 257.492  18
  15   1   6 4486.85 278.317  18
  15  -1   7 3046.18 228.873  17
  15   1   7 2806.42 224.650  17
  15  -1   7 2879.14 222.577  10
  15   1   7 3140.69 235.585  10
  15  -1   7 2843.94 215.709  18
  15   1   7 2964.08 222.597  18
  15  -1   8 2413.79 201.059  17
  15   1   8 2495.90 202.695  17
  15  -1   8 2672.56 207.624  10
  15   1   8 2707.52 214.010  10
 -15  -1  -8 2593.35 192.706   5
  15  -1   9 242.346 82.7915  17
  15   1   9 167.514 70.2140  17
  15  -1   9 161.301 76.5346  10
 -15  -1  -9 193.580 73.4019   5
  15   1   9 222.599 76.7777  10
  15   1  10 950.392 116.321  17
  15  -1  10 1275.01 137.617  10
  15   1  10 1281.42 140.069  10
 -15  -1 -10 1023.61 120.261   5
  15  -1  11 3565.22 212.857  10
  15   1  11 3362.83 205.456  10
  15   2   0 37.4032 74.5999  18
  15  -2   0 70.4023 80.0953  17
  15   2   0-3.15773 74.0253  17
  15  -2   0 100.489 73.2130  18
  15   2  -1 148.558 77.4492  18
  15   2   1 145.924 92.8662  18
  15  -2   1 15.5584 74.6223  17
  15   2   1 120.303 87.5447  17
  15  -2  -1 75.2425 73.6305  18
  15  -2   1 142.737 87.1839  18
  15   2   2 420.921 115.965  18
  15  -2   2 229.751 96.1037  17
  15   2   2 391.592 106.176  17
 -15  -2  -2 379.101 95.7059  21
  15  -2  -2 453.219 113.776  18
  15  -2   2 378.269 110.400  18
  15   2  -2 304.957 93.0913  18
  15   2   3-56.7057 78.6408  18
  15  -2   3-48.9217 84.8574  17
  15   2   3 35.8748 81.1718  17
 -15  -2  -3 61.1536 71.1332  21
  15  -2  -3 80.8895 74.0333  18
  15  -2   3-7.91247 71.4170  18
  15   2   4 26.4507 72.7644  18
  15  -2   4 55.7057 73.1720  17
  15   2   4-7.68967 83.9490  17
  15  -2   4 94.3235 82.8789  18
  15   2   5 66.3002 72.6961  18
  15  -2   5 190.273 88.3523  17
  15  -2   5 62.9225 60.4017  10
  15   2   5 195.749 88.1840  17
  15  -2   5 48.0810 68.2883  18
  15  -2   6 13.6489 69.1550  17
  15  -2   6-120.017 80.0104  10
  15   2   6-7.40667 63.6387  17
  15   2   6-4.18497 70.2671  10
  15  -2   6-104.908 76.9452  18
  15   2   6-46.6225 79.4550  18
  15  -2   7-4.38605 60.8973  17
  15  -2   7-0.28380 64.5945  10
  15   2   7 3.25459 65.0848  17
  15   2   7-1.46473 65.1627  10
  15   2   7 42.1048 60.1916  18
  15  -2   8 19.3811 63.1262  17
  15  -2   8 117.751 72.7460  10
  15   2   8 160.054 78.0879  17
 -15  -2  -8-41.6220 63.3777   5
  15   2   8 125.542 68.4166  10
  15  -2   9 105.139 65.8550  10
  15   2   9 301.699 82.7129  17
 -15  -2  -9 120.118 60.5166   5
  15   2   9 331.222 86.5318  10
  15  -2  10-15.4121 55.1848  10
  15   2  10-25.5181 55.4465  17
 -15  -2 -10 14.7200 52.5668   5
  15   2  10 18.0549 55.2925  10
  15  -2  11 36.6908 52.2751  10
 -15  -2 -11 61.3094 55.4617   5
  15   2  11-4.06249 46.7226  10
  15   3   0-17.6641 64.5434  18
  15   3   0 13.2249 63.6190  17
  15  -3   0-42.0007 78.8643  18
  15  -3   1 6665.16 343.887  17
  15   3   1 6945.10 345.805  17
 -15  -3  -1 7097.17 340.631  21
  15  -3  -1 6561.70 349.634  18
  15  -3   1 7560.93 374.939  18
  15   3  -1 7236.19 354.057  18
  15   3   1 6868.79 352.977  18
  15   3  -2 1028.40 145.234  18
  15   3   2 927.345 144.620  18
  15  -3   2 1004.05 146.967  17
  15   3   2 1011.18 151.146  17
 -15  -3  -2 1229.91 158.981  21
  15  -3  -2 1279.85 165.838  18
  15  -3   2 1145.98 162.646  18
  15  -3   3 10719.9 438.319  17
  15   3   3 10394.3 425.034  17
 -15  -3  -3 9900.10 413.454  21
  15  -3  -3 10691.0 425.143  18
  15  -3   3 10508.0 435.242  18
  15   3   3 10530.6 436.874  18
  15   3   4 1087.97 144.372  18
  15  -3   4 1235.44 155.287  17
  15   3   4 1038.30 146.592  17
 -15  -3  -4 939.421 139.952  21
  15  -3   4 974.884 139.728  18
  15   3   5 203.380 86.4722  18
  15  -3   5 164.496 78.9583  17
  15   3   5 304.969 91.7628  17
 -15  -3  -5 213.823 77.0210  21
  15  -3   5 152.408 78.1202  18
  15   3   6 198.602 84.2577  18
  15  -3   6 26.3653 63.7513  17
  15  -3   6 209.984 80.4811  10
  15   3   6 67.9971 66.8579  17
  15  -3   6 151.500 72.8301  18
  15   3   7 1202.63 143.134  18
  15  -3   7 1153.70 142.411  10
  15   3   7 1259.49 146.495  17
  15  -3   8 336.668 91.1330  10
  15   3   8 462.075 98.5268  17
 -15  -3  -8 269.489 70.4847   5
  15   3   8 581.326 111.699  10
  15  -3   9-23.6018 59.0286  10
  15   3   9 144.656 70.8410  17
 -15  -3  -9 56.8225 53.2868   5
  15   3   9 8.71614 56.0455  10
  15  -3  10 24.3942 51.6541  10
  15   3  10 30.1170 52.4312  17
  15   3  10 57.9523 58.7653  10
 -15  -3 -10-35.4576 52.4576   5
 -15  -3 -11 5208.59 235.819   5
  15  -3  11 5133.58 245.573  10
  15   3  11 5375.69 248.026  10
  15   4   0 109.070 84.9907  18
  15   4   0 2.56574 59.4387  17
  15  -4   0 67.3247 72.1776  18
  15   4  -1 111.157 82.8832  18
  15   4   1 69.7655 62.7047  18
 -15  -4  -1 101.302 77.3344  21
  15  -4  -1-57.0705 79.6117  18
  15  -4   1 172.578 87.1296  18
  15   4  -2 1344.30 153.553  18
 -15  -4  -2 1104.97 138.375  21
  15   4   2 1533.60 175.825  18
  15  -4  -2 1215.10 152.256  18
  15  -4   2 1346.01 166.514  18
  15   4   3 111.273 73.9252  18
 -15  -4  -3 227.401 89.5156  21
  15  -4  -3 127.209 68.3796  18
  15  -4   3 92.8640 73.6318  18
  15   4   4 73.2712 72.6889  18
 -15  -4  -4-6.18046 69.6942  21
  15  -4   4-11.1749 72.2264  18
  15   4   5 1119.90 151.222  18
 -15  -4  -5 1024.68 140.724  21
  15  -4   5 870.199 130.309  18
  15   4   6 119.629 73.2933  18
  15  -4   6 84.1774 66.1760  10
  15   4   6 2.18648 71.6478  17
 -15  -4  -6 6.67663 66.8193  21
  15  -4   6 175.824 72.0097  18
  15   4   7 132.088 69.8358  18
  15  -4   7 70.0462 58.1570  10
  15   4   7 218.896 86.0940  17
  15  -4   8-114.243 71.0759  10
  15   4   8-58.8707 68.2024  17
  15  -4   9-94.2823 67.6279  10
  15   4   9-19.6592 48.7507  17
  15   4   9 14.1235 49.7154  10
 -15  -4  -9 34.2688 46.3344   5
  15  -4  10 60.8503 55.6824  10
  15   4  10-2.32725 49.4635  17
  15   4  10 52.3527 55.5466  10
 -15  -4 -10 34.4777 50.8698   5
  15   5   0-4.79650 66.2730  18
  15  -5   0-91.9707 84.0673  18
  15   5  -1 93.1220 74.3373  18
  15   5   1-27.3036 67.0796  18
 -15  -5  -1 5.52948 58.6412  21
  15  -5  -1 59.2489 78.8506  18
  15  -5   1 122.591 77.9498  18
 -15  -5  -2 2338.99 200.928  21
  15  -5  -2 2219.07 201.872  18
  15  -5   2 2053.10 197.441  18
  15   5  -2 2463.18 200.399  18
  15   5   2 2266.69 204.928  18
  15   5   3-59.7029 70.2598  18
 -15  -5  -3 89.1434 75.8428  21
  15  -5  -3-20.2877 59.8319  18
  15  -5   3 83.2699 78.2662  18
 -15  -5  -4 12134.0 442.572  21
  15  -5   4 11480.8 437.216  18
  15   5   4 11104.4 429.850  18
  15   5   5 619.702 116.973  18
 -15  -5  -5 483.218 100.810  21
  15  -5   5 558.620 112.626  18
 -15  -5  -6 4313.14 258.881  21
  15  -5   6 3871.74 243.097  18
  15   5   6 3902.40 246.942  18
  15   5   7 87.7992 64.6337  18
  15  -5   7-29.6560 52.6303  10
  15   5   7-11.2172 62.5803  17
 -15  -5  -7-22.5711 57.2984  21
  15   5   8 1476.81 148.961  17
  15  -5   8 1763.47 157.525  10
  15  -5   9-52.4845 56.5549  10
  15   5   9-35.6907 51.9566  17
  15   5   9-107.953 70.9122  10
 -15  -5  -9-66.1697 52.3929   5
  15  -5  10 392.079 82.1406  10
  15   5  10 290.295 65.7948  10
  15   6   0-46.9530 63.3092  18
  15  -6   0-16.9121 59.7956  16
  15  -6   0 29.6198 73.5178  18
  15   6  -1 17.4536 59.3033  18
  15   6   1 69.6850 61.4341  18
  15  -6  -1 45.0879 67.6456  16
  15  -6   1 96.0087 76.1641  16
 -15  -6  -1-12.2985 58.3265  21
  15  -6   1-58.8280 72.3082  18
  15   6  -2 1044.58 132.376  18
  15   6   2 934.157 136.324  18
 -15  -6  -2 870.865 125.331  21
  15  -6   2 734.362 129.168  18
  15   6   3 42.4112 62.4991  18
 -15  -6  -3-69.6025 74.4443  21
  15  -6   3-18.9459 74.8997  18
  15   6   4 162.610 72.6803  18
 -15  -6  -4 204.718 82.0232  21
  15  -6   4 163.484 78.1072  18
  15   6   5-6.95480 58.8369  18
 -15  -6  -5-119.650 69.5128  21
  15   6   6-70.7170 56.6891  18
 -15  -6  -6 60.8528 70.6450  21
  15  -6   7-52.0749 56.5380  10
  15   6   7 90.9367 66.1136  18
 -15  -6  -7 32.3124 54.3522  21
  15  -6   8 101.254 57.2699  10
  15   6   8 95.8392 58.7044  17
 -15  -6  -8-33.6811 49.4119  21
  15   6   9 19.7584 47.5013  17
  15   6   9-21.5503 45.3892  10
  15  -6   9 21.8530 53.8806  10
  15   7   0-2.01602 59.6357  18
  15  -7   0 18.0664 65.2286  16
  15  -7  -1 2586.98 190.886  16
  15  -7   1 3033.47 210.257  16
 -15  -7  -1 2313.66 188.557  21
  15   7  -1 2525.66 198.977  18
  15   7   1 2836.11 213.444  18
  15   7   2 454.929 102.107  18
  15  -7   2 443.974 99.1243  16
 -15  -7  -2 372.853 92.7698  21
  15  -7   3 4343.46 247.971  16
 -15  -7  -3 4039.44 249.870  21
  15   7   3 4078.05 252.476  18
 -15  -7  -4 1212.69 140.910  21
  15   7   4 1397.60 152.957  18
  15   7   5 201.939 78.1678  18
 -15  -7  -5 92.7314 57.3008  21
  15   7   6 167.474 60.4471  18
 -15  -7  -6 144.291 56.8143  21
 -15  -7  -7 1592.69 146.684  21
  15   7   7 1587.71 144.554  18
  15   7   8 12.1805 45.4596  17
 -15  -7  -8 55.7650 51.4231  21
  15   8   0 54.1477 55.8538  18
  15  -8   0-4.09702 57.8981  16
 -15  -8   0-136.505 63.2990  21
  15   8  -1 149.495 67.6269  18
  15   8   1 188.595 72.8788  18
  15  -8  -1 188.627 65.8466  16
  15  -8   1 169.949 66.1518  16
 -15  -8  -1 153.850 61.5591  21
  15   8   2 41.6555 62.7995  18
  15  -8  -2 26.0671 52.1235  16
  15  -8   2-33.9412 58.2504  16
  15  -8  -2-17.8317 51.6311   7
 -15  -8  -2-31.7654 59.4981  21
  15   8   3-40.2233 52.8911  18
  15  -8   3-29.0192 60.4051  16
  15  -8  -3 38.7735 53.0592   7
 -15  -8  -3 40.3621 61.1394  21
  15   8   4 120.495 71.2457  18
  15  -8   4-84.3543 61.9495  16
  15  -8  -4-23.6578 47.7730   7
 -15  -8  -4 82.2771 62.9828  21
  15   8   5 113.291 57.3574  18
  15  -8   5 52.4442 51.5947  16
  15  -8  -5 167.804 58.8968   7
 -15  -8  -5 21.7660 52.2644  21
  15   8   6-54.7729 53.3267  18
  15  -8   6-68.8409 54.6010  16
  15  -8  -6 21.2025 46.0326   7
 -15  -8  -6-6.23138 47.1630  21
  15  -8   7 140.084 61.4176  16
 -15  -8  -7 76.3182 53.7427  21
  15   9   0-56.3810 49.3306  18
  15  -9   0-51.9318 58.9698  16
 -15  -9   0-61.7401 58.7993  21
  15  -9  -1 1382.71 133.594  16
  15  -9   1 1568.67 143.878  16
  15  -9  -1 1141.51 114.383   7
 -15  -9  -1 1146.79 123.489  21
  15   9  -1 1301.60 131.583  18
  15   9   1 1208.09 132.729  18
  15   9   2 557.769 92.2524  18
  15  -9  -2 658.007 99.1779  16
  15  -9   2 801.121 108.449  16
  15  -9  -2 747.628 95.9699   7
 -15  -9  -2 823.968 110.979  21
  15  -9  -3 1645.06 136.232  16
  15  -9   3 1719.84 147.123  16
  15  -9  -3 1440.30 125.169   7
 -15  -9  -3 1588.33 145.822  21
  15   9   3 1537.96 144.912  18
  15  -9   4 3343.95 195.245  16
  15  -9  -4 3252.67 173.594   7
 -15  -9  -4 3273.65 201.432  21
  15   9   4 3408.51 205.346  18
  15   9   5 320.397 78.1526  18
  15  -9   5 350.131 76.1096  16
 -15  -9  -5 326.823 77.4822  21
  15 -10   0-53.9029 53.1737  16
  15  10   1 14.0708 46.2634  18
  15 -10  -1 11.8511 44.4817  16
  15 -10   1 17.7099 47.0316  16
  15  10   2-47.0383 45.5721  18
  15 -10   2 8.98295 45.3059  16
  16   0   0 5854.45 301.962  17
  16   0   0 5568.36 306.624  18
  16   0   1-64.4961 61.2131  17
  16   0  -1-159.152 86.0678  18
  16   0   1-14.8166 65.5354  18
  16   0   2 2942.58 224.687  17
  16   0  -2 2398.99 199.497  18
  16   0   2 2425.22 211.921  18
  16   0   3-21.2411 62.7839  17
  16   0  -3-85.0483 69.0517  18
  16   0   3-57.1225 79.6778  18
  16   0   4 183.017 76.9791  17
  16   0   4 247.531 77.4085  18
  16   0   5-15.1564 60.1705  17
  16   0   5 40.5608 60.0683  10
  16   0   5-22.3058 69.2276  18
  16   0   6 94.5302 69.7870  17
  16   0   6 152.107 70.4102  10
  16   0   6 79.1664 57.0931  18
  16   0   7-16.2379 68.3351  17
  16   0   7-34.0588 66.4562  10
  16   0   7-17.9810 66.6341  18
  16   0   8 1458.43 146.634  17
  16   0   8 1531.94 143.260  10
  16   0   9 154.790 70.3993  17
  16   0   9 74.1084 61.5024  10
  16  -1   0 2124.91 188.045  17
  16   1   0 2316.71 194.245  17
  16  -1   0 2241.27 200.695  18
  16   1   0 2384.82 205.700  18
  16  -1   1 811.296 123.598  17
  16   1   1 854.446 125.901  17
  16  -1  -1 1021.13 138.905  18
  16  -1   1 856.009 134.327  18
  16   1  -1 955.941 133.932  18
  16   1   1 759.199 125.806  18
  16  -1   2 154.460 77.3634  17
  16   1   2 29.2234 69.9075  17
  16  -1  -2 86.3428 62.8301  18
  16  -1   2-3.81458 67.7835  18
  16   1  -2 129.485 64.7075  18
  16   1   2 292.924 84.7183  18
  16  -1   3 1355.14 156.877  17
  16   1   3 1153.20 148.227  17
  16  -1  -3 1266.55 147.278  18
  16  -1   3 1291.52 156.936  18
  16   1   3 1235.00 153.631  18
  16  -1   4 2554.57 209.112  17
  16   1   4 2564.76 209.595  17
  16  -1   4 2295.02 201.011  18
  16   1   4 2423.96 201.572  18
  16  -1   5 151.457 67.7035  17
  16   1   5 281.830 82.1444  17
  16   1   5 449.427 96.2562  10
  16  -1   5 295.311 83.4184  18
  16   1   5 331.467 94.4057  18
  16  -1   6 1259.58 145.476  17
  16   1   6 1206.87 143.737  17
  16  -1   6 1126.02 129.692  10
  16   1   6 1120.66 129.417  10
  16   1   6 1254.59 144.492  18
  16  -1   6 985.962 129.991  18
  16  -1   7 574.263 105.786  17
  16   1   7 585.491 107.796  17
  16  -1   7 549.319 97.1420  10
  16   1   7 876.554 118.697  10
  16  -1   7 796.767 110.888  18
  16   1   7 620.682 105.945  18
  16  -1   8-52.1373 53.7857  17
  16   1   8-16.8045 49.8848  17
  16  -1   8-21.3538 58.6454  10
  16   1   8-66.1274 65.7060  10
  16  -1   9 360.216 79.8658  10
  16   1   9 440.215 86.6654  17
  16   1   9 449.208 80.8315  10
  16   2   0 2895.09 210.291  17
  16  -2   0 2880.06 224.430  18
  16   2   0 3243.63 234.214  18
  16  -2   1 1477.61 162.541  17
  16   2   1 1507.80 157.752  17
  16  -2  -1 1558.38 172.279  18
  16   2  -1 1535.60 164.508  18
  16   2   1 1867.58 183.699  18
  16  -2   1 1303.03 157.373  18
  16  -2   2 359.856 91.8240  17
  16   2   2 329.283 93.1906  17
  16  -2  -2 313.588 92.6131  18
  16  -2   2 333.251 91.7367  18
  16   2  -2 319.912 93.5356  18
  16   2   2 459.146 109.147  18
  16  -2   3 3527.87 243.599  17
  16   2   3 3907.33 253.632  17
  16  -2  -3 3791.07 240.179  18
  16  -2   3 3190.93 234.932  18
  16   2   3 3355.27 242.607  18
  16  -2   4 510.772 106.739  17
  16   2   4 390.930 95.8714  17
  16  -2   4 472.050 104.553  18
  16   2   4 497.779 111.613  18
  16  -2   5 851.297 124.395  17
  16   2   5 833.532 128.172  17
  16   2   5 1023.83 132.063  10
  16  -2   5 828.153 125.426  18
  16   2   5 879.588 125.027  18
  16  -2   6 474.584 96.3972  17
  16  -2   6 541.583 102.015  10
  16   2   6 481.651 98.2595  17
  16   2   6 515.745 101.931  10
  16  -2   6 289.639 86.3129  18
  16   2   6 457.636 97.5648  18
  16   2   7 3240.85 215.579  17
  16  -2   7 3189.98 206.079  10
  16   2   7 3405.40 218.095  10
  16   2   7 3425.62 216.014  18
  16  -2   8 95.3234 58.2772  10
  16   2   8 155.632 62.2569  17
  16   2   8 14.3524 50.4795  10
  16  -2   9 659.377 95.5738  10
  16   2   9 599.697 90.6108  17
  16   2   9 538.822 89.9504  10
  16  -3   0 198.833 84.4862  18
  16   3   0 113.320 71.6378  18
  16   3   1 1267.82 145.845  17
  16  -3  -1 1041.49 134.996  18
  16  -3   1 1177.95 147.551  18
  16   3  -1 976.244 130.076  18
  16   3   1 1236.72 154.308  18
  16   3   2-32.0058 63.5773  18
  16   3   2 75.5006 64.6082  17
  16  -3  -2 147.661 67.1576  18
  16  -3   2 111.313 74.5339  18
  16   3  -2 121.118 72.2509  18
  16   3   3 4033.38 255.064  17
  16  -3  -3 4174.95 252.167  18
  16  -3   3 3958.76 256.534  18
  16   3   3 4007.43 256.889  18
  16   3   4 868.874 130.359  17
  16   3   4 639.914 103.172  10
  16  -3   4 587.548 108.390  18
  16   3   4 725.355 121.880  18
  16   3   5 79.2210 64.8929  17
  16   3   5-40.7709 63.0356  10
  16  -3   5 248.123 85.5372  18
  16   3   5 137.440 64.0555  18
  16   3   6 708.934 113.319  17
  16   3   6 593.490 105.339  10
  16  -3   6 575.955 105.185  18
  16   3   6 666.977 109.663  18
  16   3   7 1780.67 160.495  17
  16  -3   7 2008.01 161.585  10
  16   3   7 1817.99 161.548  10
  16   3   7 2149.98 169.122  18
  16  -3   8-88.4344 60.1189  10
  16   3   8 44.7398 52.8616  17
  16   3   8-29.7266 57.7586  10
  16  -3   9 196.579 63.1062  10
  16   3   9 197.093 63.1610  10
  16  -4   0 1801.43 180.327  18
  16   4   0 1861.86 178.289  18
  16   4   1 1490.22 152.562  17
  16  -4  -1 1648.04 171.845  18
  16  -4   1 1591.36 171.248  18
  16   4  -1 1444.25 152.838  18
  16   4   1 1425.60 157.546  18
  16   4   2 1011.83 136.507  18
  16   4   2 1064.99 139.165  17
 -16  -4  -2 924.555 124.338  21
  16  -4  -2 1250.45 150.466  18
  16  -4   2 1034.53 143.432  18
  16   4  -2 1040.45 131.170  18
  16   4   3 1855.95 172.174  17
 -16  -4  -3 1809.10 167.973  21
  16  -4  -3 1715.49 167.215  18
  16  -4   3 1817.41 178.562  18
  16   4   3 1864.72 173.146  18
  16   4   4 36.1227 66.9908  18
  16   4   4 76.3644 68.4966  17
  16  -4   4 90.7095 63.0799  18
  16   4   5 165.295 68.8009  18
  16   4   5 116.613 70.4243  17
  16  -4   5 180.959 81.1446  18
  16   4   6 193.480 72.2514  17
  16   4   6 346.424 82.9524  10
  16  -4   6 319.480 80.9867  18
  16   4   6 281.933 79.6622  18
  16   4   7 1498.56 146.339  17
  16  -4   7 1583.41 141.450  10
  16   4   7 1455.32 142.585  10
  16   4   7 1668.16 148.027  18
  16   4   8 1187.04 124.799  17
  16  -4   8 1120.75 117.861  10
  16   4   8 1225.98 127.270  10
  16  -5   0 4281.07 261.208  18
  16   5   0 4553.43 260.673  18
  16   5  -1 90.5108 67.7243  18
  16   5   1 115.085 69.2067  18
  16   5   1 55.4628 54.5948  17
  16  -5   1 76.1857 59.8263  16
  16  -5  -1 84.2401 66.6511  18
  16  -5   1 50.9218 65.2127  18
  16   5  -2 64.1379 69.5445  18
  16   5   2-10.8226 59.9325  18
  16   5   2 44.9600 54.3468  17
 -16  -5  -2-21.3597 55.4865  21
  16  -5   2 40.5284 57.2722  18
  16   5   3 121.316 76.8681  18
  16   5   3 115.669 63.9683  17
 -16  -5  -3 83.8177 55.5857  21
  16  -5   3 266.867 86.1731  18
  16   5   4 2171.09 178.016  17
 -16  -5  -4 2177.39 179.268  21
  16  -5   4 1948.80 173.529  18
  16   5   4 2097.47 179.498  18
  16   5   5 13.3731 53.9705  18
  16   5   5-38.9616 63.1232  17
 -16  -5  -5 6.47591 51.0941  21
  16  -5   5-10.8237 60.4913  18
  16   5   6 879.425 114.165  18
  16   5   6 951.571 120.827  17
  16   5   7 96.6159 57.9005  17
  16   5   7 31.4322 53.1320  10
  16   5   8 23.6446 41.8965  10
  16  -6   0 4907.89 240.750  16
  16   6   0 5237.05 268.062  18
  16   6  -1 101.184 66.0818  18
  16   6   1 109.121 69.8297  18
  16   6   1 26.6111 58.3730  17
  16  -6   1 106.004 64.3780  16
 -16  -6  -1-20.3302 50.4407  21
  16   6   2 1195.33 133.188  17
  16  -6   2 1297.70 132.264  16
 -16  -6  -2 1236.39 134.011  21
  16   6   2 1512.11 153.959  18
  16   6   3 507.147 98.8130  18
  16   6   3 572.494 100.508  17
  16  -6   3 656.739 100.538  16
 -16  -6  -3 548.353 96.2406  21
  16   6   4-1.19060 53.8755  18
  16   6   4 23.1331 46.6195  17
 -16  -6  -4 2.90516 51.6817  21
  16   6   5 40.7991 51.0882  18
  16   6   5-35.4452 54.6275  17
 -16  -6  -5 57.4744 52.1256  21
  16   6   6 57.6700 50.0992  18
  16   6   6 126.909 57.3136  17
  16   6   7 289.185 68.9900  17
  16   6   7 236.526 65.6106  10
  16   7   0-46.4232 58.2615  18
  16  -7   0-43.9862 58.5547  16
  16   7  -1 388.726 82.8255  18
  16   7   1 506.801 91.9630  18
  16   7   1 289.463 71.5228  17
  16  -7   1 337.518 72.6797  16
 -16  -7  -1 187.106 65.5481  21
  16   7   2 61.3200 51.8248  18
  16   7   2-42.3681 56.5054  17
  16  -7   2 72.7398 60.7932  16
 -16  -7  -2 86.6019 60.2758  21
  16   7   3 2177.77 165.091  17
  16  -7   3 2381.30 167.882  16
 -16  -7  -3 2308.14 169.466  21
  16   7   3 2711.19 188.333  18
  16   7   4 22.3411 48.4376  18
  16   7   4 82.6509 51.2753  17
  16  -7   4 47.4648 49.5244  16
 -16  -7  -4 23.2120 49.6865  21
  16   7   5 134.115 57.2177  18
  16   7   5 200.205 65.7542  17
  16  -7   5 192.167 61.5726  16
 -16  -7  -5 142.932 57.4630  21
  16   8   0 87.0239 59.5417  18
  16  -8   0 124.796 57.3282  16
  16  -8   1 1005.94 109.192  16
 -16  -8  -1 680.059 92.0324  21
  16   8   1 1018.01 114.067  18
  16   8   2 41.1129 49.6969  18
  16  -8   2 20.6473 44.7074  16
 -16  -8  -2-32.7804 50.3846  21
  16  -8   3 874.911 102.992  16
 -16  -8  -3 964.683 108.821  21
  16   8   3 978.030 112.448  18
  17   0   0 4.22264 57.6439  18
  17   0   1 74.2134 52.3099  17
  17   0  -1 9.56789 55.7741  18
  17   0   1 89.3129 67.5811  18
  17   0   2 746.449 109.736  17
  17   0  -2 680.540 108.795  18
  17   0   2 747.899 116.296  18
  17   0   3-45.8044 61.0274  17
  17   0   3-60.8141 62.4867  18
  17   0   4 1331.23 141.165  17
  17   0   4 1364.17 142.647  18
  17   0   5 7.73445 49.9997  17
  17   0   5-199.258 66.3206  18
  17   0   6 24.0845 55.8669  17
  17   0   6 58.6453 48.7679  10
  17   0   6 47.9761 54.9428  18
  17   0   7 113.375 57.6490  17
  17  -1   0 101.578 61.1544  18
  17   1   0-60.9842 61.1791  18
  17   1   1 213.106 73.6803  17
  17  -1  -1 93.5801 55.8913  18
  17  -1   1 179.275 70.2653  18
  17   1  -1 112.565 63.3695  18
  17   1   1 86.4913 61.8177  18
  17   1   2 3373.03 215.053  17
  17  -1  -2 3085.46 203.933  18
  17  -1   2 3230.35 218.456  18
  17   1  -2 3314.64 208.904  18
  17   1   2 3194.50 216.235  18
  17  -1   3 76.3935 58.7272  17
  17   1   3 136.504 63.1717  17
  17  -1   3 196.249 86.4501  18
  17   1   3 136.562 73.7934  18
  17  -1   4 485.632 94.5505  17
  17   1   4 532.155 96.2871  17
  17  -1   4 567.260 99.0656  18
  17   1   4 536.697 94.9311  18
  17   1   5 1737.94 154.109  17
  17  -1   5 1646.12 152.245  18
  17   1   5 1595.03 145.188  18
  17   1   6 287.800 71.2242  17
  17   1   6 166.179 60.5699  10
  17  -1   6 264.897 69.1312  18
  17   1   6 134.841 56.8009  18
  17   1   7 90.1693 53.7922  17
  17  -2   0 3.93156 55.2518  18
  17   2   0-105.751 71.6451  18
  17   2   1 101.878 57.0379  17
  17  -2  -1 139.428 69.5643  18
  17  -2   1 84.4952 60.6628  18
  17   2  -1 87.1699 56.0258  18
  17   2   1 34.2985 50.7347  18
  17   2   2 439.121 91.2766  17
  17  -2  -2 318.689 81.1023  18
  17  -2   2 311.718 85.5777  18
  17   2  -2 346.861 82.3101  18
  17   2   2 523.299 99.0708  18
  17   2   3 268.598 79.6662  17
  17  -2  -3 340.462 82.7103  18
  17  -2   3 245.283 74.7120  18
  17   2   3 378.766 90.3623  18
  17  -2   4-4.04435 51.8335  18
  17   2   4 20.1126 56.7504  18
  17   2   5 614.773 101.264  17
  17  -2   5 449.436 87.1661  18
  17   2   5 493.012 91.0108  18
  17   2   6 252.329 69.5090  17
  17   2   6 369.820 73.3273  10
  17  -2   6 253.279 71.1275  18
  17   2   6 162.504 56.2027  18
  17  -3   0-48.0116 62.3277  18
  17   3   0-70.6495 59.1905  18
  17   3   1 186.273 68.8668  17
  17  -3  -1 128.508 75.4387  18
  17  -3   1 28.4731 61.3448  18
  17   3  -1 129.963 63.4008  18
  17   3   1 67.5406 59.2178  18
  17   3   2 133.396 61.1542  17
  17  -3  -2 274.239 79.8122  18
  17  -3   2 211.059 74.8289  18
  17   3  -2 202.323 66.5261  18
  17   3   2 122.493 56.2126  18
  17   3   3 1190.93 132.118  17
  17  -3  -3 982.096 121.285  18
  17  -3   3 1146.16 133.506  18
  17   3   3 987.940 122.539  18
  17   3   4 79.7864 56.9709  17
  17  -3   4 96.5695 58.2146  18
  17   3   4 83.1796 61.7038  18
  17   3   5 5506.24 258.882  17
  17   3   5 4956.55 230.658  10
  17  -3   5 5206.17 250.524  18
  17   3   5 5302.41 251.866  18
  17   3   6 9.94897 46.6529  17
  17   3   6 61.5905 50.7589  18
  17  -4   0 26.7369 56.0819  18
  17   4   0 2.69237 51.4321  18
  17   4   1 237.305 72.3517  17
  17  -4  -1 363.953 94.1470  18
  17  -4   1 300.373 80.9894  18
  17   4  -1 253.493 81.5520  18
  17   4   1 288.918 81.0013  18
  17   4   2 391.819 82.9075  17
  17  -4   2 488.356 94.5746  18
  17   4   2 481.779 90.0156  18
  17   4   3 170.192 58.7293  17
  17  -4   3 241.592 76.7916  18
  17   4   3 328.077 75.1284  18
  17   4   4 492.759 83.7842  17
  17  -4   4 555.028 91.3632  18
  17   4   4 543.343 89.3767  18
  17   4   5 72.6069 46.0211  17
  17  -4   5 3.22272 53.4083  18
  17   4   5 15.7296 42.6011  18
  17   5   0 89.7047 59.2494  18
  17   5  -1 160.119 65.8594  18
  17   5   1 32.2974 47.9223  18
  17   5   2 3415.02 196.562  17
  17  -5   2 3161.93 179.302  16
  17   5   2 3409.99 203.974  18
  17   5   3 53.2333 47.6582  17
  17  -5   3 200.517 64.9814  16
  17   5   3 78.5785 48.3432  18
  17   5   4 353.678 72.7230  17
  17   5   4 307.898 64.7626  18
  17   6   1-84.0805 53.8504  18
  17   6   2 39.9124 45.8046  18
  18   0   0 215.795 64.3652  18
  18   0   1-97.5756 66.0306  18
  18   0   2 950.154 106.318  18
  18  -1   0 91.6623 50.0967  18
  18   1   0 113.598 59.8387  18
  18  -1   1 184.674 61.9270  18
  18   1   1 143.061 58.9775  18
  18  -1   2 61.7747 52.5426  18
  18   1   2 193.734 67.0854  18
   0   0   0    0.00    0.00   0
TITL exp_566_JW_6Chl-5F_1 in Pbca
REM Pbca (#61 in standard setting)
CELL 1.54184  15.555994  15.653755  18.087496  90.0000  90.0000  90.0000
ZERR   21.00   0.000476   0.000541   0.000582   0.0000   0.0000   0.0000
LATT  1
SYMM -x+1/2,-y, z+1/2
SYMM -x, y+1/2,-z+1/2
SYMM  x+1/2,-y+1/2,-z
SFAC C H N F Cl Zn
UNIT 141.96 87.99 84.00 3.99 3.99 21.00
TREF
HKLF 4
END
;
_shelx_hkl_checksum              1677
loop_
_space_group_symop_operation_xyz
'x, y, z'
'-x+1/2, -y, z+1/2'
'x+1/2, -y+1/2, -z'
'-x, y+1/2, -z+1/2'
'-x, -y, -z'
'x-1/2, y, -z-1/2'
'-x-1/2, y-1/2, z'
'x, -y-1/2, z-1/2'
loop_
_atom_site_label
_atom_site_type_symbol
_atom_site_fract_x
_atom_site_fract_y
_atom_site_fract_z
_atom_site_U_iso_or_equiv
_atom_site_adp_type
_atom_site_occupancy
_atom_site_site_symmetry_order
_atom_site_calc_flag
_atom_site_refinement_flags_posn
_atom_site_refinement_flags_adp
_atom_site_refinement_flags_occupancy
_atom_site_disorder_assembly
_atom_site_disorder_group
Zn1 Zn 0.69842(3) 0.14509(3) 0.09462(3) 0.0684(2) Uani 1 1 d . . . . .
Zn2 Zn 1.00115(3) 0.34160(3) 0.18728(3) 0.0673(2) Uani 1 1 d . . . . .
N4 N 0.8216(2) 0.1686(2) 0.11123(19) 0.0756(8) Uani 1 1 d . . . . .
N1 N 0.5567(2) 0.3167(2) 0.21662(17) 0.0746(8) Uani 1 1 d . . . . .
N5 N 0.6631(2) 0.0450(2) 0.15522(19) 0.0753(8) Uani 1 1 d . . . . .
N2 N 0.6318(2) 0.2442(2) 0.13360(17) 0.0732(8) Uani 1 1 d . . . . .
N3 N 0.9366(2) 0.2417(2) 0.14796(19) 0.0750(8) Uani 1 1 d . . . . .
N6 N 0.5823(2) -0.0629(2) 0.19484(17) 0.0720(8) Uani 1 1 d . . . . .
C7 C 0.5990(3) -0.0081(2) 0.1416(2) 0.0737(10) Uani 1 1 d . . . . .
H7 H 0.567937 -0.006823 0.097704 0.088 Uiso 1 1 calc R U . . .
C4 C 0.8522(2) 0.2408(3) 0.1385(2) 0.0748(10) Uani 1 1 d . . . . .
H4 H 0.817364 0.287222 0.150020 0.090 Uiso 1 1 calc R U . . .
C1 C 0.5915(3) 0.2437(3) 0.1981(2) 0.0778(10) Uani 1 1 d . . . . .
H1 H 0.588236 0.195412 0.227884 0.093 Uiso 1 1 calc R U . . .
C6 C 0.9620(3) 0.1650(3) 0.1222(4) 0.116(2) Uani 1 1 d . . . . .
H6 H 1.018639 0.146142 0.119591 0.139 Uiso 1 1 calc R U . . .
C8 C 0.6903(4) 0.0211(4) 0.2228(3) 0.116(2) Uani 1 1 d . . . . .
H8 H 0.736120 0.045209 0.248268 0.139 Uiso 1 1 calc R U . . .
C3 C 0.5758(5) 0.3677(3) 0.1597(3) 0.124(2) Uani 1 1 d . . . . .
H3 H 0.560992 0.425129 0.155855 0.149 Uiso 1 1 calc R U . . .
C2 C 0.6193(5) 0.3233(4) 0.1093(3) 0.126(2) Uani 1 1 d . . . . .
H2 H 0.638076 0.344364 0.064010 0.152 Uiso 1 1 calc R U . . .
C9 C 0.6405(4) -0.0436(3) 0.2477(3) 0.1093(17) Uani 1 1 d . . . . .
H9 H 0.645537 -0.070232 0.293491 0.131 Uiso 1 1 calc R U . . .
C5 C 0.8926(4) 0.1200(4) 0.1009(4) 0.118(2) Uani 1 1 d . . . . .
H5 H 0.893289 0.064694 0.082134 0.142 Uiso 1 1 calc R U . . .
C10A C 0.5949(9) 0.1453(8) -0.0429(8) 0.064(2) Uani 0.740(4) 1 d . . P A 1
H10A H 0.550036 0.172077 -0.018037 0.077 Uiso 0.740(4) 1 calc R U P A 1
N7A N 0.6668(2) 0.1229(2) -0.00937(18) 0.0801(9) Uani 0.740(4) 1 d . . P A 1
N8A N 0.5909(2) 0.1271(2) -0.11374(19) 0.0816(9) Uani 0.740(4) 1 d . . P A 1
C12A C 0.6721(6) 0.1020(9) -0.1298(4) 0.178(6) Uani 0.740(4) 1 d . . P A 1
H12A H 0.693010 0.089661 -0.176788 0.214 Uiso 0.740(4) 1 calc R U P A 1
C11A C 0.7176(6) 0.0979(10) -0.0663(5) 0.187(7) Uani 0.740(4) 1 d . . P A 1
H11A H 0.774594 0.080655 -0.062311 0.225 Uiso 0.740(4) 1 calc R U P A 1
C10B C 0.6127(19) 0.161(2) -0.053(2) 0.047(5) Uani 0.260(4) 1 d . . P A 2
H10B H 0.589977 0.214166 -0.039684 0.057 Uiso 0.260(4) 1 calc R U P A 2
N7B N 0.6668(2) 0.1229(2) -0.00937(18) 0.0801(9) Uani 0.260(4) 1 d . . P A 2
N8B N 0.5909(2) 0.1271(2) -0.11374(19) 0.0816(9) Uani 0.260(4) 1 d . . P A 2
C12B C 0.6233(7) 0.0406(8) -0.1068(6) 0.058(3) Uani 0.260(4) 1 d . . P A 2
C11B C 0.6723(7) 0.0385(8) -0.0423(7) 0.061(3) Uani 0.260(4) 1 d . . P A 2
C13 C 0.6170(11) -0.0317(11) -0.1518(9) 0.084(4) Uiso 0.260(4) 1 d . . P A 2
H13 H 0.584561 -0.030954 -0.194931 0.101 Uiso 0.260(4) 1 calc R U P A 2
C15 C 0.7152(13) -0.1151(14) -0.0696(12) 0.101(6) Uiso 0.260(4) 1 d . . P A 2
C16 C 0.7175(12) -0.0354(12) -0.0219(11) 0.094(5) Uiso 0.260(4) 1 d . . P A 2
H16 H 0.749531 -0.035492 0.021508 0.113 Uiso 0.260(4) 1 calc R U P A 2
C14 C 0.6655(16) -0.1127(18) -0.1276(14) 0.123(7) Uiso 0.260(4) 1 d . . P A 2
Cl Cl 0.6661(6) -0.1930(6) -0.1833(4) 0.155(3) Uiso 0.260(4) 1 d . . P A 2
F F 0.7584(10) -0.1829(10) -0.0580(7) 0.135(5) Uiso 0.260(4) 1 d . . P A 2
loop_
_atom_site_aniso_label
_atom_site_aniso_U_11
_atom_site_aniso_U_22
_atom_site_aniso_U_33
_atom_site_aniso_U_23
_atom_site_aniso_U_13
_atom_site_aniso_U_12
Zn1 0.0651(3) 0.0726(4) 0.0675(3) -0.0064(2) -0.0008(2) -0.0068(2)
Zn2 0.0615(3) 0.0733(4) 0.0671(4) 0.0053(2) -0.0062(2) -0.0013(2)
N4 0.0663(18) 0.074(2) 0.087(2) -0.0091(17) -0.0030(16) -0.0059(16)
N1 0.081(2) 0.0769(19) 0.0657(17) -0.0026(16) 0.0066(16) 0.0028(17)
N5 0.0717(19) 0.0732(19) 0.081(2) 0.0016(16) -0.0094(16) -0.0059(16)
N2 0.0780(19) 0.078(2) 0.0640(17) -0.0039(15) 0.0101(15) -0.0003(16)
N3 0.0642(17) 0.0733(19) 0.088(2) -0.0009(16) -0.0074(16) -0.0038(15)
N6 0.0717(18) 0.0738(18) 0.0707(18) 0.0064(15) -0.0049(15) -0.0043(16)
C7 0.073(2) 0.079(2) 0.069(2) 0.0032(18) -0.0086(18) -0.011(2)
C4 0.063(2) 0.079(2) 0.082(2) -0.005(2) -0.0037(18) -0.0046(19)
C1 0.090(3) 0.072(2) 0.071(2) 0.0028(18) 0.014(2) 0.005(2)
C6 0.068(3) 0.095(4) 0.186(6) -0.031(4) -0.013(3) 0.010(3)
C8 0.118(4) 0.120(4) 0.109(4) 0.033(3) -0.057(3) -0.039(3)
C3 0.183(6) 0.082(3) 0.108(4) 0.022(3) 0.061(4) 0.031(4)
C2 0.192(7) 0.092(3) 0.095(3) 0.023(3) 0.068(4) 0.030(4)
C9 0.118(4) 0.113(4) 0.096(3) 0.035(3) -0.040(3) -0.032(3)
C5 0.086(3) 0.086(3) 0.183(6) -0.037(3) -0.024(3) 0.012(3)
C10A 0.051(5) 0.079(8) 0.063(5) 0.004(4) 0.016(4) -0.008(4)
N7A 0.072(2) 0.100(2) 0.0682(19) -0.0161(18) -0.0049(16) 0.0159(18)
N8A 0.075(2) 0.102(2) 0.0683(19) -0.0141(18) -0.0014(16) 0.0201(19)
C12A 0.101(6) 0.355(17) 0.079(5) -0.069(8) -0.014(4) 0.107(9)
C11A 0.091(6) 0.37(2) 0.103(6) -0.060(10) -0.008(5) 0.092(9)
C10B 0.040(12) 0.039(7) 0.063(13) 0.009(7) 0.022(7) -0.015(7)
N7B 0.072(2) 0.100(2) 0.0682(19) -0.0161(18) -0.0049(16) 0.0159(18)
N8B 0.075(2) 0.102(2) 0.0683(19) -0.0141(18) -0.0014(16) 0.0201(19)
C12B 0.053(7) 0.074(8) 0.046(6) -0.012(6) 0.010(5) 0.018(6)
C11B 0.056(7) 0.065(8) 0.061(8) -0.018(6) -0.007(6) 0.024(6)
loop_
_atom_type_symbol
_atom_type_description
_atom_type_scat_dispersion_real
_atom_type_scat_dispersion_imag
_atom_type_scat_source
C C 0.0181 0.0091 'International Tables Vol C Tables 4.2.6.8 and 6.1.1.4'
H H 0.0000 0.0000 'International Tables Vol C Tables 4.2.6.8 and 6.1.1.4'
N N 0.0311 0.0180 'International Tables Vol C Tables 4.2.6.8 and 6.1.1.4'
F F 0.0727 0.0534 'International Tables Vol C Tables 4.2.6.8 and 6.1.1.4'
Cl Cl 0.3639 0.7018 'International Tables Vol C Tables 4.2.6.8 and 6.1.1.4'
Zn Zn -1.5491 0.6778 'International Tables Vol C Tables 4.2.6.8 and 6.1.1.4'
O O 0.0492 0.0322 'International Tables Vol C Tables 4.2.6.8 and 6.1.1.4'
loop_
_geom_angle_atom_site_label_1
_geom_angle_atom_site_label_2
_geom_angle_atom_site_label_3
_geom_angle
_geom_angle_site_symmetry_1
_geom_angle_site_symmetry_3
N7B Zn1 N4 114.79(15) . .
N7A Zn1 N4 114.79(15) . .
N7B Zn1 N5 108.54(15) . .
N7A Zn1 N5 108.54(15) . .
N4 Zn1 N5 109.30(14) . .
N7B Zn1 N2 110.12(14) . .
N7A Zn1 N2 110.12(14) . .
N4 Zn1 N2 107.79(14) . .
N5 Zn1 N2 105.93(14) . .
N1 Zn2 N6 111.91(14) 6_656 7_765
N1 Zn2 N3 112.28(14) 6_656 .
N6 Zn2 N3 106.68(14) 7_765 .
N1 Zn2 N8A 109.22(15) 6_656 3
N6 Zn2 N8A 108.64(15) 7_765 3
N3 Zn2 N8A 107.97(14) . 3
C4 N4 C5 103.7(4) . .
C4 N4 Zn1 124.5(3) . .
C5 N4 Zn1 131.8(3) . .
C1 N1 C3 103.5(4) . .
C1 N1 Zn2 125.3(3) . 6_556
C3 N1 Zn2 131.0(3) . 6_556
C7 N5 C8 103.3(4) . .
C7 N5 Zn1 127.0(3) . .
C8 N5 Zn1 129.3(3) . .
C1 N2 C2 103.1(4) . .
C1 N2 Zn1 123.6(3) . .
C2 N2 Zn1 133.2(3) . .
C4 N3 C6 103.7(4) . .
C4 N3 Zn2 123.7(3) . .
C6 N3 Zn2 132.5(3) . .
C7 N6 C9 103.9(4) . .
C7 N6 Zn2 124.7(3) . 7_755
C9 N6 Zn2 130.9(3) . 7_755
N6 C7 N5 115.0(3) . .
N4 C4 N3 114.5(4) . .
N1 C1 N2 114.7(4) . .
C5 C6 N3 109.3(4) . .
N5 C8 C9 109.5(4) . .
C2 C3 N1 109.1(5) . .
N2 C2 C3 109.6(4) . .
N6 C9 C8 108.3(4) . .
C6 C5 N4 108.7(5) . .
N7A C10A N8A 115.5(10) . .
C10A N7A C11A 102.8(7) . .
C10A N7A Zn1 127.0(7) . .
C11A N7A Zn1 129.0(4) . .
C10A N8A C12A 103.2(7) . .
C10A N8A Zn2 129.2(7) . 3_455
C12A N8A Zn2 125.6(4) . 3_455
C11A C12A N8A 108.6(6) . .
C12A C11A N7A 109.1(7) . .
N8B C10B N7B 120(3) . .
C10B N7B C11B 102.1(17) . .
C10B N7B Zn1 131.1(16) . .
C11B N7B Zn1 122.4(6) . .
C10B N8B C12B 103.2(17) . .
C11B C12B C13 120.4(13) . .
C11B C12B N8B 106.5(10) . .
C13 C12B N8B 133.0(12) . .
C12B C11B C16 120.9(13) . .
C12B C11B N7B 106.9(10) . .
C16 C11B N7B 132.2(13) . .
C12B C13 C14 117.9(16) . .
F C15 C14 118(2) . .
F C15 C16 125(2) . .
C14 C15 C16 117(2) . .
C11B C16 C15 121.1(17) . .
C15 C14 C13 123(2) . .
C15 C14 Cl 119(2) . .
C13 C14 Cl 117.9(18) . .
loop_
_geom_bond_atom_site_label_1
_geom_bond_atom_site_label_2
_geom_bond_distance
_geom_bond_site_symmetry_2
Zn1 N7B 1.975(3) .
Zn1 N7A 1.975(3) .
Zn1 N4 1.974(3) .
Zn1 N5 1.989(3) .
Zn1 N2 1.994(3) .
Zn2 N1 1.980(3) 6_656
Zn2 N6 1.985(3) 7_765
Zn2 N3 1.990(3) .
Zn2 N8A 1.990(4) 3
N4 C4 1.323(5) .
N4 C5 1.354(6) .
N1 C1 1.307(5) .
N1 C3 1.337(6) .
N5 C7 1.323(5) .
N5 C8 1.346(6) .
N2 C1 1.325(5) .
N2 C2 1.328(6) .
N3 C4 1.324(5) .
N3 C6 1.347(6) .
N6 C7 1.315(5) .
N6 C9 1.352(6) .
C6 C5 1.346(7) .
C8 C9 1.351(7) .
C3 C2 1.332(7) .
C10A N7A 1.320(16) .
C10A N8A 1.314(16) .
N7A C11A 1.356(9) .
N8A C12A 1.353(8) .
C12A C11A 1.351(12) .
C10B N8B 1.27(4) .
C10B N7B 1.30(4) .
N7B C11B 1.452(13) .
N8B C12B 1.450(14) .
C12B C11B 1.394(19) .
C12B C13 1.40(2) .
C11B C16 1.40(2) .
C13 C14 1.54(3) .
C15 F 1.27(2) .
C15 C14 1.30(3) .
C15 C16 1.52(3) .
C14 Cl 1.61(3) .
