#------------------------------------------------------------------------------
#$Date: 2020-06-04 03:57:56 +0300 (Thu, 04 Jun 2020) $
#$Revision: 252594 $
#$URL: file:///home/coder/svn-repositories/cod/cif/4/13/49/4134952.cif $
#------------------------------------------------------------------------------
#
# This file is available in the Crystallography Open Database (COD),
# http://www.crystallography.net/
#
# All data on this site have been placed in the public domain by the
# contributors.
#
data_4134952
loop_
_publ_author_name
'Jiang, Hong'
'Zhang, Wenqiang'
'Kang, Xing'
'Cao, Ziping'
'Chen, Xu'
'Liu, Yan'
'Cui, Yong'
_publ_section_title
;
 Topology-Based Functionalization of Robust Chiral Zr-Based Metal-Organic
 Frameworks for Catalytic Enantioselective Hydrogenation.
;
_journal_issue                   21
_journal_name_full               'Journal of the American Chemical Society'
_journal_page_first              9642
_journal_page_last               9652
_journal_paper_doi               10.1021/jacs.0c00637
_journal_volume                  142
_journal_year                    2020
_chemical_formula_moiety         '0.11(C378 H270 O153 Zr27)'
_chemical_formula_sum            'C42 H30 O17 Zr3'
_chemical_formula_weight         1080.32
_space_group_crystal_system      trigonal
_space_group_IT_number           155
_space_group_name_Hall           'R 3 2"'
_space_group_name_H-M_alt        'R 3 2 :H'
_atom_sites_solution_hydrogens   mixed
_audit_creation_date             2020-01-17
_audit_creation_method
;
Olex2 1.2
(compiled 2018.05.29 svn.r3508 for OlexSys, GUI svn.r5506)
;
_cell_angle_alpha                90
_cell_angle_beta                 90
_cell_angle_gamma                120
_cell_formula_units_Z            9
_cell_length_a                   30.654(4)
_cell_length_b                   30.654(4)
_cell_length_c                   24.900(7)
_cell_measurement_reflns_used    3843
_cell_measurement_temperature    173
_cell_measurement_theta_max      41.653
_cell_measurement_theta_min      2.433
_cell_volume                     20263(7)
_computing_cell_refinement       'SAINT V8.38A (?, 2016)'
_computing_data_reduction        'SAINT V8.38A (?, 2016)'
_computing_molecular_graphics    'Olex2 (Dolomanov et al., 2009)'
_computing_publication_material  'Olex2 (Dolomanov et al., 2009)'
_computing_structure_refinement  'ShelXL (Sheldrick, 2015)'
_diffrn_ambient_temperature      173
_diffrn_measured_fraction_theta_full 0.342
_diffrn_measured_fraction_theta_max 0.992
_diffrn_measurement_device_type  'CCD area detector'
_diffrn_measurement_method       'phi and omega scans'
_diffrn_radiation_type           CuK\a
_diffrn_radiation_wavelength     1.54178
_diffrn_reflns_av_R_equivalents  0.1952
_diffrn_reflns_av_unetI/netI     0.1220
_diffrn_reflns_Laue_measured_fraction_full 0.342
_diffrn_reflns_Laue_measured_fraction_max 0.992
_diffrn_reflns_limit_h_max       24
_diffrn_reflns_limit_h_min       -25
_diffrn_reflns_limit_k_max       25
_diffrn_reflns_limit_k_min       -25
_diffrn_reflns_limit_l_max       20
_diffrn_reflns_limit_l_min       -20
_diffrn_reflns_number            15456
_diffrn_reflns_point_group_measured_fraction_full 0.334
_diffrn_reflns_point_group_measured_fraction_max 0.994
_diffrn_reflns_theta_full        67.679
_diffrn_reflns_theta_max         39.968
_diffrn_reflns_theta_min         6.063
_exptl_absorpt_coefficient_mu    3.103
_exptl_absorpt_correction_T_max  0.7488
_exptl_absorpt_correction_T_min  0.4552
_exptl_absorpt_correction_type   multi-scan
_exptl_absorpt_process_details
;
SADABS-2016/2 (Bruker,2016/2) was used for absorption correction.
wR2(int) was 0.1221 before and 0.0928 after correction.
The Ratio of minimum to maximum transmission is 0.6079.
The \l/2 correction factor is Not present.
;
_exptl_crystal_colour            'clear light colourless'
_exptl_crystal_colour_lustre     clear
_exptl_crystal_colour_modifier   light
_exptl_crystal_colour_primary    colourless
_exptl_crystal_density_diffrn    0.797
_exptl_crystal_description       block
_exptl_crystal_F_000             4842
_exptl_crystal_size_max          0.08
_exptl_crystal_size_mid          0.03
_exptl_crystal_size_min          0.02
_refine_diff_density_max         0.930
_refine_diff_density_min         -0.628
_refine_diff_density_rms         0.108
_refine_ls_abs_structure_details
;
 Refined as an inversion twin.
;
_refine_ls_abs_structure_Flack   0.45(3)
_refine_ls_extinction_method     none
_refine_ls_goodness_of_fit_ref   0.931
_refine_ls_hydrogen_treatment    constr
_refine_ls_matrix_type           full
_refine_ls_number_parameters     160
_refine_ls_number_reflns         2731
_refine_ls_number_restraints     385
_refine_ls_restrained_S_all      0.882
_refine_ls_R_factor_all          0.0979
_refine_ls_R_factor_gt           0.0543
_refine_ls_shift/su_max          0.000
_refine_ls_shift/su_mean         0.000
_refine_ls_structure_factor_coef Fsqd
_refine_ls_weighting_details
;
 w=1/[\s^2^(Fo^2^)+(0.0682P)^2^]
 where P=(Fo^2^+2Fc^2^)/3
;
_refine_ls_weighting_scheme      calc
_refine_ls_wR_factor_gt          0.1178
_refine_ls_wR_factor_ref         0.1356
_reflns_Friedel_coverage         0.841
_reflns_Friedel_fraction_full    0.325
_reflns_Friedel_fraction_max     0.996
_reflns_number_gt                1669
_reflns_number_total             2731
_reflns_threshold_expression     'I > 2\s(I)'
_cod_data_source_file            ja0c00637_si_004.cif
_cod_data_source_block           ith-CMOF-1
_cod_depositor_comments
'Adding full bibliography for 4134951--4134954.cif.'
_cod_original_cell_volume        20263(8)
_cod_original_sg_symbol_H-M      'R 3 2'
_cod_database_code               4134952
_shelxl_version_number           2013-2
_shelx_space_group_comment
;
The symmetry employed for this shelxl refinement is uniquely defined
by the following loop, which should always be used as a source of
symmetry information in preference to the above space-group names.
They are only intended as comments.
;
_olex2_refinement_description
;
1. Twinned data refinement
 Scales: 0.55(3)
 0.45(3)
2. Fixed Uiso
 At 1.2 times of:
  All C(H) groups
 At 1.5 times of:
  All C(H,H,H) groups, All O(H) groups, All O(H,H) groups
3. Restrained distances
 C21-C18
 1.5 with sigma of 0.02
 O4-C21
 1.27 with sigma of 0.02
 C11-C14
 1.5 with sigma of 0.02
 O2-C14 = O3-C14
 1.27 with sigma of 0.02
 C15-C3 = C21-C18
 1.5 with sigma of 0.02
 C11-C14 = C8-C5
 1.5 with sigma of 0.02
 O3-C14 = O2-C14 = O5-C21 = O4-C21
 1.27 with sigma of 0.02
 Zr2-O7
 2.1 with sigma of 0.02
 C12-C14
 2.48 with sigma of 0.04
 C3-C20
 2.48 with sigma of 0.04
 C16-C3
 2.48 with sigma of 0.04
 C21-C19
 2.48 with sigma of 0.04
 C21-C17
 2.48 with sigma of 0.04
 C14-C10
 2.48 with sigma of 0.04
 C14-C12
 2.48 with sigma of 0.04
 C9-C5
 2.48 with sigma of 0.04
 C13-C5
 2.48 with sigma of 0.04
 C8-C6
 2.48 with sigma of 0.04
 C8-C4
 2.48 with sigma of 0.04
4. Restrained planarity
 C9, C10, C11, C12, C13, C8, C14
 with sigma of 0.1
 O4, C18, C21, O5
 with sigma of 0.1
 C16, C17, C18, C19, C20, C15, C21
 with sigma of 0.1
 C16, C17, C18, C19, C20, C15, C3, C21
 with sigma of 0.1
 C5, C9, C10, C11, C12, C13, C8, C14
 with sigma of 0.1
 C11, O2, O3, C14
 with sigma of 0.1
5. Rigid bond restraints
 C13, C12
 with sigma for 1-2 distances of 0.01 and sigma for 1-3 distances of 0.01
6. Uiso/Uaniso restraints and constraints
O4 \\sim C7 \\sim C16 \\sim C17 \\sim C18 \\sim C19 \\sim C20 \\sim C15 \\sim
C6 \\sim C1 \\sim C2 \\sim C3 \\sim C4 \\sim C5 \\sim C9 \\sim C10 \\sim C11
\\sim C12 \\sim C13 \\sim C8 \\sim O2 \\sim O3 \\sim C21 \\sim C14 \\sim O5
\\sim O1 \\sim O9 \\sim O8 \\sim O6: within 1.7A with sigma of 0.04 and sigma
for terminal atoms of 0.08
O1W \\sim O6: within 1.7A with sigma of 0.04 and sigma for terminal atoms of
0.08
C21 \\sim C18 \\sim C17 \\sim C16 \\sim C15 \\sim C20 \\sim C19 \\sim C3 \\sim
C2 \\sim C1 \\sim C6 \\sim C7 \\sim C5 \\sim C4 \\sim C8 \\sim C9 \\sim C13
\\sim C12 \\sim C11 \\sim C10 \\sim C14: within 1.7A with sigma of 0.04 and
sigma for terminal atoms of 0.08
Uanis(O1W) \\sim Ueq: with sigma of 0.1 and sigma for terminal atoms of 0.2
Uanis(Zr2) = Uanis(Zr1)
Uanis(C3) = Uanis(C2) = Uanis(C1) = Uanis(C7) = Uanis(C18) = Uanis(C14)
Uanis(C3) = Uanis(C10)
Uanis(O4) = Uanis(O5) = Uanis(O1) = Uanis(O2) = Uanis(O3) = Uanis(O6) =
Uanis(O8) = Uanis(O9)
Uanis(O8) = Uanis(O7)
Uanis(O8) = Uanis(O1W)
7. Rigid body (RIGU) restrains
 C10, C11, C13
 with sigma for 1-2 distances of 0.004 and sigma for 1-3 distances of 0.004
 C11, C12, C13
 with sigma for 1-2 distances of 0.004 and sigma for 1-3 distances of 0.004
 C17, C18, C21
 with sigma for 1-2 distances of 0.004 and sigma for 1-3 distances of 0.004
 C2, C3, C4
 with sigma for 1-2 distances of 0.004 and sigma for 1-3 distances of 0.004
 C21, C18, C17, C16, C15, C20, C19, C3, C2, C1, C6, C5, C4, C7, C8, C9, C13,
 C12, C11, C10, C14
 with sigma for 1-2 distances of 0.004 and sigma for 1-3 distances of 0.004
8.a Rotating group:
 O1W(H1WA,H1WB)
8.b Me refined with riding coordinates:
 C7(H7A,H7B,H7C)
8.c Aromatic/amide H refined with riding coordinates:
 C16(H16), C17(H17), C19(H19), C20(H20), C4(H4), C9(H9), C10(H10), C12(H12),
 C13(H13)
8.d Fitted hexagon refined as free rotating group:
 C16(C17,C18,C19,C20,C15), C6(C1,C2,C3,C4,C5), C9(C10,C11,C12,C13,C8)
8.e Idealised tetrahedral OH refined as rotating group:
 O1(H1)
;
_shelx_res_file
;
TITL sadddd_a.res in R32 New:R32
CELL 1.54178 30.654 30.654 24.9 90 90 120
ZERR 9 0.004 0.004 0.007 0 0 0
LATT -3
SYMM -Y,+X-Y,+Z
SYMM +Y-X,-X,+Z
SYMM +Y,+X,-Z
SYMM -X,-X+Y,-Z
SYMM -Y+X,-Y,-Z
SFAC C H O Zr
UNIT 378 270 153 27
DFIX 1.5 C21 C18
DFIX 1.27 O4 C21
DFIX 1.5 C11 C14
DFIX 1.27 O2 C14 O3 C14
DFIX 1.5 C15 C3 C21 C18
DFIX 1.5 C11 C14 C8 C5
DFIX 1.27 O3 C14 O2 C14 O5 C21 O4 C21
DFIX 2.1 Zr2 O7
DANG 2.48 C12 C14
DANG 2.48 C3 C20
DANG 2.48 C16 C3
DANG 2.48 C21 C19
DANG 2.48 C21 C17
DANG 2.48 C14 C10
DANG 2.48 C14 C12
DANG 2.48 C9 C5
DANG 2.48 C13 C5
DANG 2.48 C8 C6
DANG 2.48 C8 C4
FLAT C9 C10 C11 C12 C13 C8 C14
FLAT O4 C18 C21 O5
FLAT C16 C17 C18 C19 C20 C15 C21
FLAT C16 C17 C18 C19 C20 C15 C3 C21
FLAT C5 C9 C10 C11 C12 C13 C8 C14
FLAT C11 O2 O3 C14
DELU C13 C12
SIMU 0.04 0.08 1.7 O4 C7 C16 C17 C18 C19 C20 C15 C6 C1 C2 C3 C4 C5 C9 C10 =
 C11 C12 C13 C8 O2 O3 C21 C14 O5 O1 O9 O8 O6
SIMU 0.04 0.08 1.7 O1W O6
SIMU 0.04 0.08 1.7 C21 C18 C17 C16 C15 C20 C19 C3 C2 C1 C6 C7 C5 C4 C8 C9 =
 C13 C12 C11 C10 C14
RIGU C10 C11 C13
RIGU C11 C12 C13
RIGU C17 C18 C21
RIGU C2 C3 C4
RIGU C21 C18 C17 C16 C15 C20 C19 C3 C2 C1 C6 C5 C4 C7 C8 C9 C13 C12 C11 C10 =
 C14
ISOR O1W
EADP Zr2 Zr1
EADP C3 C2 C1 C7 C18 C14
EADP C3 C10
EADP O4 O5 O1 O2 O3 O6 O8 O9
EADP O8 O7
EADP O8 O1W

L.S. 40
PLAN  -99
TEMP 16
CONF
BOND $H
ABIN
fmap 2
acta
TWIN -1 0 0 0 -1 0 0 0 -1 2
REM <olex2.extras>
REM <HklSrc "%.\\ith-CMOF-1.hkl">
REM </olex2.extras>

WGHT    0.068200
BASF   0.44774
FVAR       0.07016
ZR2   4    0.399208    0.666667    0.666667    10.50000    0.02748    0.03824 =
         0.02786   -0.00445   -0.00222    0.01912
ZR1   4    0.340413    0.604490    0.778897    11.00000    0.02748    0.03824 =
         0.02786   -0.00445   -0.00222    0.01912
O8    3    0.409612    0.685210    0.743388    11.00000    0.10558    0.11993 =
         0.02216   -0.01128   -0.00131    0.09695
O4    3    0.419009    0.601845    0.758290    11.00000    0.10558    0.11993 =
         0.02216   -0.01128   -0.00131    0.09695
C7    1    0.699978    0.510007    0.773456    11.00000    0.09620    0.16499 =
         0.06050   -0.01778    0.01717    0.08339
AFIX  33
H7A   2    0.730118    0.542104    0.777256    11.00000   -1.50000
H7B   2    0.702945    0.492895    0.742596    11.00000   -1.50000
H7C   2    0.695221    0.490099    0.805000    11.00000   -1.50000
AFIX   0
O1    3    0.605205    0.578205    0.844615    11.00000    0.10558    0.11993 =
         0.02216   -0.01128   -0.00131    0.09695
AFIX 147
H1    2    0.576409    0.558949    0.854921    11.00000   -1.50000
AFIX  66
C16   1    0.518671    0.566674    0.788667    11.00000    0.10541    0.21416 =
         0.08501   -0.01024    0.01938    0.10262
AFIX  43
H16   2    0.522395    0.558687    0.823770    11.00000   -1.20000
AFIX  65
C17   1    0.482579    0.579997    0.776661    11.00000    0.09930    0.19248 =
         0.07241   -0.00337    0.02130    0.08840
AFIX  43
H17   2    0.462155    0.580923    0.803730    11.00000   -1.20000
AFIX  65
C18   1    0.477014    0.591935    0.724196    11.00000    0.09620    0.16499 =
         0.06050   -0.01778    0.01717    0.08339
C19   1    0.507540    0.590550    0.683737    11.00000    0.11485    0.20229 =
         0.07482   -0.00137    0.02874    0.10719
AFIX  43
H19   2    0.503816    0.598538    0.648634    11.00000   -1.20000
AFIX  65
C20   1    0.543632    0.577227    0.695742    11.00000    0.12723    0.22980 =
         0.08593    0.00548    0.02745    0.12614
AFIX  43
H20   2    0.564057    0.576301    0.668673    11.00000   -1.20000
AFIX  65
C15   1    0.549199    0.565289    0.748207    11.00000    0.11255    0.20526 =
         0.07739   -0.00512    0.02435    0.10823
AFIX  66
C6    1    0.657800    0.517330    0.766786    11.00000    0.09678    0.16912 =
         0.06226   -0.01953    0.01547    0.08458
C1    1    0.651148    0.543751    0.808317    11.00000    0.09620    0.16499 =
         0.06050   -0.01778    0.01717    0.08339
C2    1    0.615299    0.558660    0.803666    11.00000    0.09620    0.16499 =
         0.06050   -0.01778    0.01717    0.08339
C3    1    0.586103    0.547149    0.757484    11.00000    0.09620    0.16499 =
         0.06050   -0.01778    0.01717    0.08339
C4    1    0.592755    0.520728    0.715952    11.00000    0.08855    0.16256 =
         0.07122   -0.02372    0.01225    0.08048
AFIX  43
H4    2    0.573220    0.513026    0.685053    11.00000   -1.20000
AFIX  65
C5    1    0.628603    0.505819    0.720602    11.00000    0.08200    0.14790 =
         0.06075   -0.01003    0.02175    0.06753
AFIX  66
C9    1    0.596496    0.441748    0.649235    11.00000    0.08811    0.13195 =
         0.06113   -0.00502    0.03095    0.05575
AFIX  43
H9    2    0.564475    0.430379    0.663266    11.00000   -1.20000
AFIX  65
C10   1    0.602805    0.418040    0.604769    11.00000    0.09620    0.16499 =
         0.06050   -0.01778    0.01717    0.08339
AFIX  43
H10   2    0.575006    0.390807    0.589049    11.00000   -1.20000
AFIX  65
C11   1    0.650664    0.435032    0.583799    11.00000    0.09271    0.17030 =
         0.06154   -0.02763    0.01333    0.07770
C12   1    0.692214    0.475735    0.607295    11.00000    0.09455    0.14809 =
         0.04427   -0.00305    0.01710    0.07752
AFIX  43
H12   2    0.724235    0.487104    0.593264    11.00000   -1.20000
AFIX  65
C13   1    0.685905    0.499444    0.651761    11.00000    0.08267    0.14514 =
         0.06011   -0.01229    0.03180    0.05581
AFIX  43
H13   2    0.713705    0.526676    0.667482    11.00000   -1.20000
AFIX  65
C8    1    0.638046    0.482451    0.672732    11.00000    0.08586    0.13342 =
         0.06796   -0.00734    0.03098    0.05909
AFIX   0
O2    3    0.701926    0.424291    0.517277    11.00000    0.10558    0.11993 =
         0.02216   -0.01128   -0.00131    0.09695
O3    3    0.614304    0.379164    0.516861    11.00000    0.10558    0.11993 =
         0.02216   -0.01128   -0.00131    0.09695
C21   1    0.435505    0.601931    0.711019    11.00000    0.09079    0.14669 =
         0.07694   -0.01698    0.01146    0.07053
C14   1    0.657590    0.410407    0.534968    11.00000    0.09620    0.16499 =
         0.06050   -0.01778    0.01717    0.08339
O9    3    0.333333    0.666667    0.814639    10.33333    0.10558    0.11993 =
         0.02216   -0.01128   -0.00131    0.09695
O5    3    0.421248    0.606660    0.665428    11.00000    0.10558    0.11993 =
         0.02216   -0.01128   -0.00131    0.09695
O6    3    0.333333    0.666667    0.666667    10.16667    0.10558    0.11993 =
         0.02216   -0.01128   -0.00131    0.09695
O7    3    0.394590    0.732753    0.686943    11.00000    0.10558    0.11993 =
         0.02216   -0.01128   -0.00131    0.09695
O1W   3    0.296399    0.530085    0.758292    11.00000    0.10558    0.11993 =
         0.02216   -0.01128   -0.00131    0.09695
AFIX   7
H1WA  2    0.291669    0.499815    0.786632    11.00000   -1.50000
H1WB  2    0.306888    0.512015    0.725882    11.00000   -1.50000
AFIX   0
HKLF 4 1 0 1 0 1 0 0 0 0 -1

REM  sadddd_a.res in R32 New:R32
REM R1 =  0.0543 for    1669 Fo > 4sig(Fo)  and  0.0979 for all    2731 data
REM    160 parameters refined using    385 restraints

END

WGHT      0.0682      0.0000

REM Highest difference peak  0.930,  deepest hole -0.628,  1-sigma level  0.108
Q1    1   0.4379  0.6667  0.6667  10.50000  0.05    0.93
Q2    1   0.2951  0.6002  0.6652  11.00000  0.05    0.75
Q3    1   0.4874  0.6667  0.6667  10.50000  0.05    0.71
Q4    1   0.3333  0.6667  0.7749  10.33333  0.05    0.69
Q5    1   0.3066  0.5706  0.7758  11.00000  0.05    0.64
Q6    1   0.4561  0.5931  0.6657  11.00000  0.05    0.60
Q7    1   0.3766  0.6033  0.7861  11.00000  0.05    0.55
Q8    1   0.3333  0.5377  0.6667  10.50000  0.05    0.50
Q9    1   0.6535  0.4183  0.6030  11.00000  0.05    0.45
Q10   1   0.6685  0.4846  0.5803  11.00000  0.05    0.44
Q11   1   0.2535  0.5233  0.7798  11.00000  0.05    0.44
Q12   1   0.4559  0.6026  0.7802  11.00000  0.05    0.43
Q13   1   0.3898  0.5456  0.6657  11.00000  0.05    0.42
Q14   1   0.5897  0.5264  0.6742  11.00000  0.05    0.42
Q15   1   0.5864  0.5220  0.8900  11.00000  0.05    0.41
Q16   1   0.5369  0.4136  0.6291  11.00000  0.05    0.40
Q17   1   0.5784  0.6667  0.6667  10.50000  0.05    0.39
Q18   1   0.5165  0.5240  0.7838  11.00000  0.05    0.39
Q19   1   0.5745  0.6276  0.7157  11.00000  0.05    0.39
Q20   1   0.3333  0.6667  0.8482  10.33333  0.05    0.36
Q21   1   0.4572  0.6628  0.7839  11.00000  0.05    0.35
Q22   1   0.6166  0.5938  0.7536  11.00000  0.05    0.35
Q23   1   0.6219  0.5150  0.7704  11.00000  0.05    0.34
Q24   1   0.6107  0.4928  0.6191  11.00000  0.05    0.33
Q25   1   0.4507  0.5377  0.6920  11.00000  0.05    0.31
Q26   1   0.5817  0.5917  0.7820  11.00000  0.05    0.30
Q27   1   0.5386  0.5981  0.6192  11.00000  0.05    0.30
Q28   1   0.5190  0.5683  0.7238  11.00000  0.05    0.30
Q29   1   0.5759  0.5746  0.8806  11.00000  0.05    0.30
Q30   1   0.5386  0.3536  0.6069  11.00000  0.05    0.30
Q31   1   0.5345  0.5179  0.7475  11.00000  0.05    0.29
Q32   1   0.6816  0.5683  0.7628  11.00000  0.05    0.29
Q33   1   0.2650  0.5903  0.8181  11.00000  0.05    0.29
Q34   1   0.5427  0.5392  0.7344  11.00000  0.05    0.29
Q35   1   0.3586  0.5740  0.8213  11.00000  0.05    0.28
Q36   1   0.4505  0.5704  0.8335  11.00000  0.05    0.28
Q37   1   0.5881  0.5969  0.6682  11.00000  0.05    0.28
Q38   1   0.3333  0.6667  0.8964  10.33333  0.05    0.27
Q39   1   0.3212  0.5624  0.8349  11.00000  0.05    0.27
Q40   1   0.6644  0.5172  0.6229  11.00000  0.05    0.27
Q41   1   0.7080  0.4702  0.7847  11.00000  0.05    0.27
Q42   1   0.6265  0.5939  0.8909  11.00000  0.05    0.27
Q43   1   0.5428  0.5030  0.7544  11.00000  0.05    0.27
Q44   1   0.4833  0.5273  0.8224  11.00000  0.05    0.26
Q45   1   0.3730  0.6861  0.8346  11.00000  0.05    0.26
Q46   1   0.5219  0.5251  0.6720  11.00000  0.05    0.26
Q47   1   0.6658  0.4583  0.7165  11.00000  0.05    0.26
Q48   1   0.4114  0.6011  0.8441  11.00000  0.05    0.25
Q49   1   0.4949  0.6308  0.7215  11.00000  0.05    0.25
Q50   1   0.5850  0.5068  0.8063  11.00000  0.05    0.25
Q51   1   0.2796  0.4649  0.7672  11.00000  0.05    0.25
Q52   1   0.3424  0.3194  0.0578  11.00000  0.05    0.24
Q53   1   0.6520  0.4732  0.7832  11.00000  0.05    0.24
Q54   1   0.4268  0.6172  0.7336  11.00000  0.05    0.24
Q55   1   0.6776  0.4983  0.7246  11.00000  0.05    0.24
Q56   1   0.5360  0.4539  0.8314  11.00000  0.05    0.23
Q57   1   0.6014  0.4118  0.5091  11.00000  0.05    0.23
Q58   1   0.5464  0.4807  0.7287  11.00000  0.05    0.23
Q59   1   0.4684  0.6019  0.8649  11.00000  0.05    0.23
Q60   1   0.7484  0.5368  0.6707  11.00000  0.05    0.23
Q61   1   0.8239  0.1017  0.0597  11.00000  0.05    0.23
Q62   1   0.6725  0.4667  0.6339  11.00000  0.05    0.23
Q63   1   0.4429  0.5694  0.7221  11.00000  0.05    0.22
Q64   1   0.6080  0.5903  0.8254  11.00000  0.05    0.22
Q65   1   0.6636  0.4947  0.5070  11.00000  0.05    0.22
Q66   1   0.5008  0.5545  0.8341  11.00000  0.05    0.22
Q67   1   0.6551  0.6058  0.7872  11.00000  0.05    0.22
Q68   1   0.2837  0.4416  0.8358  11.00000  0.05    0.22
Q69   1   0.3768  0.4673  0.8702  11.00000  0.05    0.22
Q70   1   0.5902  0.5702  0.9335  11.00000  0.05    0.22
Q71   1   0.5392  0.5205  0.6055  11.00000  0.05    0.21
Q72   1   0.6667  0.5134  0.8333  10.50000  0.05    0.21
Q73   1   0.3520  0.4486  0.8713  11.00000  0.05    0.21
Q74   1   0.7144  0.5323  0.7626  11.00000  0.05    0.21
Q75   1   0.6509  0.6667  0.6667  10.50000  0.05    0.21
Q76   1   0.5929  0.5553  0.5609  11.00000  0.05    0.21
Q77   1   0.7103  0.5007  0.8551  11.00000  0.05    0.21
Q78   1   0.3709  0.4188  0.9123  11.00000  0.05    0.21
Q79   1   0.7957  0.4624  0.8333  10.50000  0.05    0.21
Q80   1   0.6129  0.6867  0.7305  11.00000  0.05    0.20
Q81   1   0.5685  0.8419  0.0577  11.00000  0.05    0.20
Q82   1   0.2786  0.4005  0.8799  11.00000  0.05    0.20
Q83   1   0.6667  0.5759  0.8333  10.50000  0.05    0.20
Q84   1   0.2368  0.3717  0.8211  11.00000  0.05    0.20
Q85   1   0.8602  0.1483  0.0995  11.00000  0.05    0.20
Q86   1   0.4407  0.5099  0.8469  11.00000  0.05    0.20
Q87   1   0.9675  0.6890  0.1321  11.00000  0.05    0.20
Q88   1   0.6024  0.4319  0.7402  11.00000  0.05    0.20
Q89   1   0.4199  0.7682  0.0458  11.00000  0.05    0.19
Q90   1   0.4131  0.0783  0.1302  11.00000  0.05    0.19
Q91   1   0.2495  0.2924  0.0354  11.00000  0.05    0.19
Q92   1   0.3931  0.4665  0.0382  11.00000  0.05    0.19
Q93   1   0.2068  0.4682  0.7753  11.00000  0.05    0.19
Q94   1   0.3671  0.3326 -0.0003  11.00000  0.05    0.19
Q95   1   0.7284  0.4481  0.8313  11.00000  0.05    0.19
Q96   1   0.4467  0.0956  0.1861  11.00000  0.05    0.19
Q97   1   0.4205  0.5030  0.8261  11.00000  0.05    0.19
Q98   1   0.6118  0.5212  0.9445  11.00000  0.05    0.19
Q99   1   0.2484  0.2488  0.0784  11.00000  0.05    0.19
;
_shelx_res_checksum              99315
_shelx_hkl_file
;
  -5   1   0 1322.37  125.39
   1   4   0 1334.07  106.49
   4  -5   0 1337.97  112.89
  -4   5   0 1261.67  124.09
   5  -1   0 1370.86  112.69
  -5   4   0 1243.08  124.79
   4   1   0 1333.97  108.79
   5  -4   0 1309.27  111.29
   5  -4   0 1385.46  115.09
  -6   3   0 3258.47  249.97
   3   3   0 2800.32  237.08
   3  -6   0 3288.57  239.38
   6  -3   0 3227.68  244.28
   6  -3   0 2776.62  239.98
   6   0   0  506.45   64.29
  -6   6   0  340.77   86.09
   0   6   0  379.86   46.00
   6  -6   0  433.86   60.99
   6  -6   0  464.55   67.49
   5  -7   0   18.00   49.99
  -7   2   0  102.49   88.09
   5  -7   0   74.89   53.29
   2   5   0   36.50   29.20
  -5   7   0    1.00   79.49
   7  -2   0  245.78   57.89
  -7   5   0  -91.79   83.29
   5   2   0   66.59   43.00
   7  -5   0   43.30   43.80
   7  -5   0   61.99   59.39
  -8   1   0 3116.59  234.38
   1   7   0 2377.46  211.68
   7  -8   0 2586.24  220.08
   7  -8   0 2795.22  221.08
  -7   8   0 2639.64  233.88
   8  -1   0 2785.32  228.88
   8  -1   0 2827.82  220.78
   4  -8   0 4150.48  301.27
   4   4   0 3525.95  295.37
  -8   4   0 3700.13  313.57
   4  -8   0 4005.10  298.17
   8  -4   0 3655.73  299.27
   8  -4   0 3863.01  303.57
  -4   8   0 3807.72  307.27
  -8   7   0 2363.06  220.18
   7   1   0 2543.15  200.78
   8  -7   0 2410.96  202.78
   8  -7   0 2625.74  205.18
   3   6   0  553.14   61.39
   6  -9   0  707.93   84.99
   6  -9   0  743.93   79.49
   9  -3   0  568.24   79.29
  -6   9   0  558.44   98.89
   9  -3   0  698.63   98.59
  -9   6   0  705.93  110.99
   3  -9   0  668.53   84.29
   3  -9   0  586.84   72.69
   6   3   0  554.54   66.39
   9  -6   0  624.74   90.09
   9  -6   0  574.14   75.69
   9   0   0 2248.68  185.08
   9   0   0 2039.60  200.18
   0   9   0 2015.80  178.58
   9  -9   0 2291.67  188.88
  -9   0   0 2523.75  210.18
   9  -9   0 2524.95  189.38
   8 -10   0 1290.37  131.79
   8 -10   0 1494.95  130.99
   2   8   0 1355.86  117.19
 -10   2   0 1599.84  159.18
  10  -2   0 1357.96  129.99
  -8  10   0 1299.57  149.79
  10  -2   0 1271.87  141.29
  -8  10   0 1619.94  131.79
   5   5   0  929.01   91.69
   5 -10   0  859.81  108.29
 -10   5   0 1300.57  139.29
   5 -10   0 1033.20  110.79
  -5  10   0 1259.47  116.99
  10  -5   0  985.80  115.59
  10  -5   0 1024.50  102.19
 -10   8   0 1386.86  149.99
   8   2   0 1297.47  119.89
   2 -10   0 1306.97  123.89
  10  -8   0 1307.77  126.89
  10  -8   0 1462.25  133.79
  10 -11   0   66.89   62.89
   1  10   0   36.10   37.40
  10 -11   0   77.69   65.09
 -11   1   0   97.99  126.29
  11  -1   0   82.29   54.69
 -10  11   0   41.20   96.79
 -10  11   0  218.78   85.59
  11  -1   0   24.50   83.69
   7 -11   0 1416.96  125.99
   4   7   0 1423.06  111.99
   7 -11   0 1353.26  130.89
 -11   4   0 1209.38  150.98
  -7  11   0 1126.89  143.39
  11  -4   0 1401.46  139.19
  11  -4   0 1218.48  125.79
   4 -11   0 1287.97  128.49
 -11   7   0 1154.18  151.08
   7   4   0 1199.48  114.29
   4 -11   0 1438.76  122.59
  11  -7   0 1540.75  129.89
  10   1   0   33.30   57.69
  10   1   0    8.20   78.49
   1 -11   0   91.79   66.39
 -11  10   0   48.00   99.69
  11 -10   0  106.99   68.49
   9 -12   0  -33.00   66.09
 -12   3   0  -62.89  119.69
   3   9   0   -1.90   43.00
   9 -12   0   64.29   69.69
  12  -3   0   52.99   83.59
  -9  12   0 -109.69   91.29
  12  -3   0   82.99   62.89
 -12   6   0  673.63  125.09
   6 -12   0  868.71  100.89
   6 -12   0  842.22   95.09
  -6  12   0  871.81  115.69
  12  -6   0  778.02   94.99
   3 -12   0  -63.39   74.29
   9   3   0   60.69   51.29
   3 -12   0   12.80   65.29
 -12   9   0  -68.99  100.29
  12  -9   0   81.79   78.29
  12  -9   0  -15.80   62.29
 -12  12   0 2740.43  244.78
  12   0   0 2348.27  210.88
  12   0   0 2209.58  230.78
  12 -12   0 2772.72  215.48
  12 -12   0 2497.55  216.38
 -12   0   0 2619.04  247.08
  11 -13   0 2066.69  197.68
  11 -13   0 2445.76  197.78
 -13   2   0 2234.98  232.78
  13  -2   0 2324.57  214.08
  13  -2   0 2157.08  192.28
 -11  13   0 2305.87  232.68
 -11  13   0 2470.05  212.38
   8 -13   0  333.47   79.39
   8 -13   0  327.77   83.89
 -13   5   0  246.08  127.49
   5   8   0  361.46   54.39
  -8  13   0  371.86  113.19
  13  -5   0  434.56   78.39
 -13   8   0  383.76  113.69
   5 -13   0  237.08   77.79
   8   5   0  365.86   57.49
   5 -13   0  293.57   76.09
  13  -8   0  423.26   93.29
  13  -8   0  302.97   74.29
   2 -13   0 2451.35  187.88
  11   2   0 1990.50  180.98
   2 -13   0 2052.59  199.08
 -13  11   0 2298.07  221.08
  13 -11   0 1909.41  187.98
  13 -11   0 2115.09  189.38
  13 -14   0 5894.61  456.15
 -14   1   0 5698.73  478.65
  13 -14   0 6012.40  457.05
 -13  14   0 6072.99  478.85
 -13  14   0 4880.51  474.05
  14  -1   0 5996.80  451.45
  10 -14   0 1284.27  143.69
   4  10   0 1198.28  114.59
  10 -14   0 1291.07  133.69
 -14   4   0 1448.46  182.18
  14  -4   0 1179.78  186.78
 -10  14   0 1042.80  173.78
  14  -4   0 1268.67  132.09
   7   7   0  694.03   77.09
   7 -14   0  889.41  106.79
 -14   7   0  829.72  150.78
   7 -14   0  528.55  102.19
  14  -7   0  932.31  122.39
  14  -7   0  635.74  102.99
   4 -14   0 1064.49  145.19
   4 -14   0 1430.66  129.79
 -14  10   0 1007.00  179.08
  10   4   0  951.40  113.69
  14 -10   0 1453.05  138.29
  14 -10   0 1234.08  130.29
  13   1   0 5908.81  453.75
 -14  13   0 5751.02  480.85
   1 -14   0 5558.24  467.65
  14 -13   0 5937.21  457.75
  14 -13   0 5820.92  457.85
  12 -15   0 3235.28  264.77
 -15   3   0 3225.28  302.67
  12 -15   0 3020.10  264.87
  15  -3   0 3244.18  259.17
  15  -3   0 2816.22  316.87
 -12  15   0 3354.16  295.87
 -15   6   0   -1.90  131.59
   6   9   0  -73.99   52.29
   9 -15   0   59.89  101.79
   9 -15   0  -67.49   81.99
  15  -6   0   43.40   80.09
  -9  15   0   54.19  127.39
  15  -6   0  205.28  108.49
 -15   9   0   98.59  137.89
   6 -15   0  -22.00   78.59
   6 -15   0 -152.38  101.29
  15  -9   0  120.69   96.59
  15  -9   0   73.99   78.59
   3 -15   0 3677.33  282.47
   3 -15   0 3296.97  301.47
 -15  12   0 3219.08  314.57
  12   3   0 3253.47  273.37
  15 -12   0 3377.76  288.87
  15 -12   0 3499.15  282.37
 -15  15   0 3797.62  325.47
  15   0   0 3678.43  296.57
 -15  15   0 3671.43  341.17
  15 -15   0 3636.84  305.67
 -15   0   0 3410.26  356.16
  15 -15   0 3722.33  305.47
  14 -16   0 2700.73  238.78
 -16   2   0 2556.74  297.47
  14 -16   0 2843.12  241.38
  16  -2   0 2722.83  228.38
 -14  16   0 2642.74  282.57
  11 -16   0 1047.90  121.99
  11 -16   0  999.10  122.69
 -16   5   0  669.13  168.38
 -11  16   0  917.01  167.88
  16  -5   0 1025.80  113.79
  16  -5   0  658.03  148.99
   8 -16   0   46.80   92.59
   8   8   0   40.00   53.09
   8 -16   0  206.58   98.89
 -16   8   0   54.99  133.39
  16  -8   0  233.78  112.29
  -8  16   0  -60.79  142.09
  16  -8   0  180.28   76.89
 -16  11   0  909.01  155.58
   5 -16   0  622.84  112.29
   5 -16   0  572.64  150.98
  11   5   0  530.05   91.99
  16 -11   0  776.72  125.39
  16 -11   0  909.01  108.59
   2 -16   0 3025.20  252.77
 -16  14   0 2493.05  288.97
 -16  14   0 2996.50  274.87
  14   2   0 2944.41  244.28
  16 -14   0 2957.40  251.77
  16 -14   0 2859.71  256.37
  16 -17   0 2295.37  213.88
 -17   1   0 2100.59  295.87
  16 -17   0 2257.57  213.88
  17  -1   0 2168.38  197.68
  13 -17   0 1056.69  148.39
  13 -17   0 1004.20  139.99
 -17   4   0 1497.65  223.88
  17  -4   0 1206.08  130.19
 -13  17   0 1356.66  214.88
  17  -4   0 1495.05  220.68
  10 -17   0 -171.88   90.09
 -17   7   0  -80.39  147.59
  10 -17   0 -175.48   92.29
   7  10   0   69.99   62.59
  17  -7   0  113.49   84.49
  17  -7   0  315.27  121.09
 -10  17   0  -60.79  156.18
   7 -17   0  -58.39  115.19
   7 -17   0   40.10   95.99
 -17  10   0 -108.69  142.59
  10   7   0   11.40   56.59
  17 -10   0   31.70   85.89
  17 -10   0  -88.19  109.59
   4 -17   0 1408.76  156.98
 -17  13   0 1267.07  193.48
  13   4   0 1209.48  131.79
  17 -13   0 1106.39  154.28
  17 -13   0 1442.16  151.78
   1 -17   0 1830.72  239.08
 -17  16   0 1996.60  274.57
  16   1   0 2368.26  201.68
 -17  16   0 2612.44  248.08
  17 -16   0 2127.29  221.18
  17 -16   0 2366.96  219.28
 -18   3   0 1856.01  261.17
  15 -18   0 1408.96  184.68
 -15  18   0 1603.54  245.98
 -18   6   0 -180.18  177.88
  12 -18   0  120.49   95.59
  12 -18   0  -34.20   93.79
 -12  18   0  177.88  180.88
  18  -6   0   35.50   79.59
  18  -6   0   45.60  148.19
   9 -18   0  118.79  112.49
 -18   9   0  172.58  157.18
   9 -18   0   88.89  104.09
   9   9   0   21.10   69.29
  18  -9   0   30.00   97.69
  18  -9   0  124.99  123.69
   6 -18   0  110.79   99.19
  12   6   0   96.69   70.39
 -18  12   0 -143.49  150.08
  18 -12   0   82.69  114.59
  18 -12   0   56.29  101.09
 -18  15   0 1306.67  199.98
 -18  15   0 1702.53  316.47
  15   3   0 1470.55  148.79
  18 -15   0 1459.15  179.48
  18 -15   0 1361.76  177.78
  18   0   0  842.32  131.89
 -18  18   0  781.62  231.38
   0 -18   0 1009.90  159.88
  18 -18   0 1052.69  158.88
  18 -18   0 1068.19  175.78
 -18   0   0  538.15  433.36
  17 -19   0  642.34  133.99
  17 -19   0 1034.60  147.99
 -19   2   0  675.13  252.87
  19  -2   0  964.10  122.09
 -17  19   0  716.93  240.88
  -2 -17   0  986.40  155.48
 -19   5   0  -22.00  222.78
  14 -19   0   45.30  103.19
  14 -19   0  -61.19  109.69
 -14  19   0  222.38  218.68
  19  -5   0   32.70   78.09
 -19   8   0  105.89  184.58
  11 -19   0  410.96  151.38
  11 -19   0  127.39  125.59
  19  -8   0  317.07  142.99
  19  -8   0  427.36  101.09
 -11  19   0  179.18  209.38
   8 -19   0  262.77  152.58
  11   8   0  497.05   84.69
 -19  11   0   31.40  244.98
  19 -11   0  292.57  137.79
  19 -11   0  618.44  122.09
   5 -19   0   19.50  114.19
  14   5   0  111.19   78.09
 -19  14   0   85.09  165.78
  19 -14   0   -1.10  126.49
  19 -14   0   45.40  113.19
 -19  17   0  958.70  186.18
 -19  17   0  350.46  206.38
  17   2   0  901.81  115.09
   2 -19   0  616.14  147.19
  19 -17   0  677.63  150.58
  19 -20   0   35.80  159.98
  19 -20   0  335.67  152.18
  20  -1   0   74.69  111.39
  -1 -19   0 -193.88  147.19
 -19  20   0  -79.79  273.67
  16 -20   0  189.88  126.69
 -20   4   0  207.48  339.27
  16 -20   0  243.78  121.99
  20  -4   0  315.27   89.59
 -16  20   0  281.17  249.48
  13 -20   0  488.05  111.89
 -20   7   0  541.95  264.97
  13 -20   0  776.42  136.19
 -13  20   0  548.55  246.78
  20  -7   0  628.14  101.89
  10 -20   0  634.84  133.89
 -20  10   0  546.05  204.08
  20 -10   0  845.02  159.28
  20 -10   0 1053.99  139.29
 -20  13   0  415.06  184.58
   7 -20   0  605.34  139.09
  13   7   0  448.86  108.49
  20 -13   0  379.16  152.18
  20 -13   0  819.72  142.99
   4 -20   0  219.98  127.89
  16   4   0  225.28   95.59
 -20  16   0  465.95  194.48
 -20  16   0  284.57  174.08
  20 -16   0  -76.49  137.09
  20 -16   0  116.09  124.19
 -20  19   0 -103.09  248.68
  19   1   0  103.49  102.79
   1 -20   0  134.69  147.59
  20 -19   0  -88.59  148.29
  20 -19   0  134.39  150.38
  18 -21   0  166.98  141.29
  18 -21   0  158.98  130.99
 -21   3   0  213.48  262.47
  21  -3   0  109.49   92.29
  -3 -18   0   -0.60  143.89
 -18  21   0  298.57  292.37
 -21   6   0  182.28  263.17
  15 -21   0  213.78  109.49
  15 -21   0  408.46  143.09
  21  -6   0  142.09   81.99
 -15  21   0   63.39  265.87
  12 -21   0  890.01  138.89
 -21   9   0 1033.10  253.07
  21  -9   0  887.41  139.19
  21  -9   0  685.43  189.78
   9 -21   0  955.00  163.08
 -21  12   0  495.05  211.48
  12   9   0  797.32  169.08
  21 -12   0  811.22  173.08
   6 -21   0  134.29  138.59
 -21  15   0 -207.48  186.58
  15   6   0  206.88   96.79
 -21  15   0  238.78  201.18
  21 -15   0  200.38  134.19
  21 -15   0  197.08  142.69
   3 -21   0  171.88  136.89
  18   3   0  -59.59  109.79
 -21  18   0  134.89  243.88
  21 -18   0  -56.59  145.79
  21 -18   0  103.69  139.09
   0 -21   0  332.47  170.78
  21   0   0  -28.70  117.89
 -21  21   0 -156.68  317.67
  21 -21   0  -10.30  159.28
  21 -21   0  176.68  163.48
  20 -22   0 -276.67  174.78
  20 -22   0 -166.28  163.18
  22  -2   0   72.89  124.69
 -20  22   0   -3.60  331.37
  -2 -20   0 -120.99  169.48
  17 -22   0  371.26  143.99
  17 -22   0  121.49  130.19
 -22   5   0  -40.20  279.07
 -17  22   0  271.67  296.87
  22  -5   0  166.98  126.59
  14 -22   0  290.07  116.39
 -22   8   0  632.44  283.17
  22  -8   0  605.34  109.29
 -14  22   0  927.31  302.67
 -22  11   0  589.04  253.07
  11 -22   0  855.81  150.88
  22 -11   0  938.41  157.18
 -22  14   0  337.07  231.38
   8 -22   0  527.05  144.69
 -22  17   0 -293.07  197.68
   5 -22   0   86.49  162.38
 -22  17   0 -125.69  234.08
  17   5   0   88.99  103.69
  22 -17   0  384.46  157.78
  22 -17   0  326.37  157.88
  20   2   0  -17.50  128.39
   2 -22   0 -131.29  169.28
 -22  20   0   48.50  293.47
  22 -20   0  146.19  163.28
  22 -20   0  190.48  167.68
  19 -23   0   10.40  185.28
  19 -23   0   48.80  157.48
 -23   4   0  281.67  332.77
  23  -4   0  -46.50  110.79
  -4 -19   0  186.68  166.38
 -19  23   0  -76.49  333.67
  16 -23   0   21.70  120.59
 -23   7   0 -295.87  286.97
  23  -7   0  301.87  113.29
 -16  23   0  469.45  319.57
 -23  10   0  245.38  284.87
  13 -23   0  328.27  128.39
  23 -10   0  406.36  111.79
  10 -23   0  136.39  140.19
 -23  13   0  266.97  261.17
  23 -13   0  523.25  172.88
  23 -13   0  187.58  140.29
 -23  16   0  231.08  252.47
  16   7   0  249.68  121.69
   7 -23   0  375.66  171.08
 -23  16   0  -77.79  193.88
  23 -16   0  597.34  160.58
  23 -16   0  -31.10  169.38
 -23  19   0  144.19  279.17
   4 -23   0  -17.70  164.58
  19   4   0  -28.00  124.69
  23 -19   0  167.78  170.38
  23 -19   0   99.89  174.18
  18 -24   0    4.90  137.79
 -24   6   0  180.18  324.07
  -6 -18   0  249.48  151.18
  24  -6   0  269.17  120.39
 -18  24   0 -214.58  348.57
  15 -24   0   18.00  128.99
 -24   9   0 -300.47  303.47
  24  -9   0   -5.10  101.29
  12 -24   0  210.78  143.89
 -24  12   0  187.78  286.87
  24 -12   0  247.68  132.79
   9 -24   0 -203.98  156.48
 -24  15   0   54.69  259.97
 -24  15   0   30.50  192.38
  24 -15   0   19.00  156.18
  24 -15   0  184.78  176.78
 -24  18   0  282.47  271.37
   6 -24   0  164.58  186.88
 -24  18   0 -175.58  247.48
  24 -18   0  143.09  181.38
  24 -18   0  416.86  177.68
 -25   8   0  -74.39  328.27
  17 -25   0   73.39  155.78
  25  -8   0  186.28  124.99
 -25  11   0  -80.49  305.37
  14 -25   0 -104.29  123.99
  25 -11   0 -112.29  121.39
 -25  14   0  294.07  283.07
  11 -25   0  256.27  153.68
 -25  14   0 -410.76  211.28
  25 -14   0  -46.10  150.38
 -25  17   0    0.80  238.08
 -25  17   0  518.65  271.57
   8 -25   0  -47.60  169.58
  25 -17   0   83.59  178.08
  25 -17   0 -342.47  191.08
   5  -3  -1 1534.25  126.99
  -5   3   1 1635.64  139.09
   3   2   1 1574.64  125.29
   4  -1  -1  499.05   53.29
   1   3   1  514.45   47.90
   7  -4  -1  713.23   80.29
   7  -4  -1  818.52  103.79
   4   3   1  805.12   72.19
  -7   4   1  671.43  116.79
   4  -4  -1   36.60   38.80
   4  -4  -1   24.00   42.30
  -4   4   1   42.60   47.30
   4   0   1  -24.40   31.20
  -4   3  -1  458.65   68.19
  -1   4   1  588.14   49.30
   4  -3   1  388.26   53.29
  -4   6  -1   98.39   64.89
   6  -2  -1   50.29   42.10
   2   4   1   62.29   26.80
  -6   2   1   67.19   72.09
  -4   9  -1  810.92   98.19
   9  -5  -1  786.12   97.19
   9  -5  -1  575.14   78.39
  -9   5   1  834.02  116.39
   5   4   1  624.14   69.19
   6  -5  -1 2679.63  230.88
   6  -5  -1 3086.09  233.98
  -5  -1  -1 3300.97  238.98
   5   1   1 2452.75  229.68
  -6   5   1 3157.48  241.78
  -5   2  -1 1707.23  143.69
   3  -5  -1 1609.54  132.09
   5  -2   1 1498.05  132.89
  -3   5   1 1733.83  158.28
   5   0  -1 5529.25  471.55
  -5   5  -1 5881.21  476.35
  -5   0   1 6600.54  476.15
   5  -5   1 6520.35  472.15
   8  -3  -1  213.38   72.09
  -5   8  -1  478.15   83.49
   8  -3  -1  364.36   98.39
  -5   8  -1  478.85   70.59
   5  -8   1  372.56   65.79
   3   5   1  413.36   50.69
  11  -6  -1 2079.69  168.78
  11  -6  -1 1688.93  154.48
   5 -11   1 2004.90  155.78
   5 -11   1 1676.03  163.78
 -11   6   1 1875.21  182.58
   6   5   1 1652.93  149.29
   8  -6  -1 2825.62  213.58
   8  -6  -1 2411.56  207.88
   6   2   1 2565.64  207.28
  -8   6   1 2585.04  225.58
   5  -6  -1 2498.85  226.28
  -6   1  -1 3220.98  236.88
   5  -6  -1 3029.60  227.78
  -5   6   1 2901.51  235.58
   6  -1   1 2649.24  227.08
   2  -6  -1  -23.00   35.90
  -6   4  -1  -84.39   68.79
   6  -4   1   63.79   41.40
   6  -4   1  -38.70   49.90
   7  -1  -1 4479.15  372.16
  -6   7  -1 4655.63  370.36
  -6   7  -1 4806.12  377.56
   6  -7   1 5014.60  370.06
  -7   1   1 5543.15  381.76
   6  -7   1 4478.55  371.46
   1   6   1 4427.06  366.66
  10  -4  -1 1822.52  158.08
  -6  10  -1 1716.53  160.08
   6 -10   1 1667.93  151.68
   6 -10   1 1497.75  150.38
   4   6   1 1616.34  135.39
  13  -7  -1  695.73   81.49
   7   6   1  417.56   67.79
 -13   7   1  573.74  130.69
   6 -13   1  568.04   84.59
  10  -7  -1  416.96   75.79
  10  -7  -1  647.54   79.19
   7  -7  -1 1574.54  160.08
   0   7  -1 1799.22  160.48
  -7   0  -1 2206.28  182.88
   7  -7  -1 1831.12  162.88
   7   0   1 2038.90  172.58
   7   0   1 1986.70  159.68
  -7   7   1 1876.51  177.88
   4  -7  -1  793.72   82.29
   4  -7  -1  648.34   86.29
   3   4  -1  762.52   70.59
  -4   7   1  862.61  104.09
   7  -3   1  805.22   97.99
   7  -3   1  815.72   86.59
   6   1  -1 4556.64  341.67
   7  -6   1 4594.74  343.27
   7  -6   1 4355.46  342.57
  -1   7   1 4094.19  338.77
   9  -2  -1  827.02  114.69
  -7   9  -1  949.40  117.49
   9  -2  -1  726.03   93.49
  -7   9  -1  858.51   95.59
  -9   2   1 1033.20  126.09
   2   7   1  708.93   77.69
   7  -9   1  789.62   96.89
   7  -9   1  898.41   93.39
  12  -5  -1  861.71  101.69
  12  -5  -1  893.41  127.99
  -7  12  -1 1070.89  133.89
   5   7   1  847.72   86.49
   7 -12   1  864.01  115.59
 -12   5   1  826.22  139.89
   7 -12   1  980.90  104.09
  15  -8  -1   33.60   72.59
  15  -8  -1  -42.80  103.29
   7 -15   1   63.29   91.29
   7 -15   1  106.89   83.09
 -15   8   1 -110.99  123.79
   8   7   1   95.19   47.70
  12  -8  -1  359.86   79.89
 -12   8   1  152.08  114.99
   4 -12   1  178.28   69.09
   8   4   1  164.78   48.90
   4 -12   1  180.88   64.19
  -8  -1  -1 2432.56  220.38
   9  -8  -1 2726.03  204.68
   9  -8  -1 2612.54  201.38
   8   1   1 2344.27  207.48
  -9   8   1 2022.70  227.68
   2   6  -1 2522.05  214.08
   6  -8  -1 2832.92  214.88
   6  -8  -1 2504.85  213.28
  -8   2  -1 2241.98  233.18
   8  -2   1 2773.72  223.68
  -6   8   1 2801.02  227.28
   8  -2   1 2672.83  212.68
   3  -8  -1  416.96   63.99
  -8   5  -1  489.55   99.99
   5   3  -1  400.36   55.69
   8  -5   1  402.06   65.09
   8   0  -1  146.19   51.19
  -8   8  -1  179.78   88.39
   8  -8   1   54.99   60.49
   8  -8   1   30.30   52.29
  -8   0   1  238.08   91.19
  11  -3  -1  622.14  101.89
  11  -3  -1  530.45   76.99
  -8  11  -1  453.95   76.99
   8 -11   1  386.76   78.49
   8 -11   1  639.54   79.29
   3   8   1  406.86   60.79
 -11   3   1  351.76  117.79
  14  -6  -1  174.18  107.39
  -8  14  -1  283.87  119.09
  14  -6  -1  137.39   70.99
   6   8   1  188.98   48.10
   8 -14   1  210.08   78.79
 -14   6   1  147.99  129.09
   8 -14   1  116.39   82.59
  17  -9  -1  237.78   88.99
  17  -9  -1  587.24  128.39
   8 -17   1  184.98  101.99
   9   8   1  408.06   67.29
 -17   9   1  199.28  159.28
  14  -9  -1  130.69   91.09
 -14   9   1  236.88  128.09
   5 -14   1  252.97   89.89
   5 -14   1  262.97   79.79
  11  -9  -1  607.14   90.79
  11  -9  -1  600.24   87.59
 -11   9   1  612.94  123.49
   2 -11   1  654.33   85.29
   9   2   1  451.15   74.59
  -9   1  -1 2574.24  229.18
   8  -9  -1 2651.63  212.88
   9  -1   1 2522.75  216.68
  -8   9   1 2722.63  230.08
   9  -1   1 2517.05  217.78
   5  -9  -1  786.92   85.39
   4   5  -1  680.53   65.69
  -9   4  -1  795.02  123.59
   5  -9  -1  689.63   83.39
   9  -4   1  683.23   96.39
   9  -4   1  636.04   83.49
  -5   9   1  780.42  111.89
   7   2  -1  733.93   81.29
   2  -9  -1  592.34   81.79
  -9   7  -1  877.01  122.09
   2  -9  -1  687.13   83.59
   9  -7   1  785.42   85.69
   9  -7   1  839.22   90.49
  -9  10  -1  109.19   97.59
  10  -1  -1  104.19   57.89
  -9  10  -1   91.79   63.69
  10  -1  -1  107.09   90.09
   9 -10   1   -9.30   64.19
   9 -10   1  118.49   61.59
   1   9   1   66.29   40.50
 -10   1   1  202.68  100.99
  -9  13  -1 -101.79  112.09
  13  -4  -1   69.59   72.29
  13  -4  -1  -29.70  108.49
   4   9   1   49.10   48.40
   9 -13   1   60.49   79.59
   9 -13   1   35.70   73.39
 -13   4   1   81.19  121.89
  16  -7  -1   76.89  120.79
  16  -7  -1  -81.99   81.69
  -9  16  -1  -12.40  139.89
   9 -16   1   17.60   90.49
   7   9   1   26.90   58.09
 -16   7   1  141.49  141.39
  19 -10  -1  867.51  128.19
  19 -10  -1  814.82  151.18
 -19  10   1  471.15  181.88
  10   9   1  738.93  101.09
  16 -10  -1  154.68   79.99
  16 -10  -1  238.38  106.19
 -16  10   1  328.97  144.29
  10   6   1   65.89   52.59
   6 -16   1  198.08   87.99
  13 -10  -1  -30.40   74.89
  13 -10  -1   35.90   66.39
 -13  10   1  -81.49  118.79
  10   3   1   -4.20   55.39
   3 -13   1   38.50   69.29
   3 -13   1 -115.09   88.49
 -10   0  -1 1277.07  157.58
  10 -10  -1 1291.17  120.49
 -10  10   1 1361.76  154.38
  10   0   1 1163.58  113.79
  10   0   1 1055.89  136.49
 -10   3  -1  691.33  112.89
   7 -10  -1  540.85   79.59
   7 -10  -1  516.75   84.29
  -7  10   1  826.92  119.59
   4 -10  -1 1586.44  137.69
 -10   6  -1 1498.35  191.08
   6   4  -1 1573.34  127.49
  10  -6   1 1619.84  143.99
  10  -6   1 1401.66  137.39
 -10   9  -1   -5.60   99.09
   9   1  -1   93.29   52.09
   1 -10  -1   13.20   57.69
  10  -9   1   55.69   56.99
  10  -9   1   23.00   64.09
  -9  -1   1  166.38   91.29
 -10  12  -1  231.28   84.09
 -10  12  -1  100.19  109.29
  12  -2  -1  369.36  103.29
  12  -2  -1  144.59   66.39
 -12   2   1  359.26  112.59
  10 -12   1  190.38   73.59
   2  10   1  129.99   48.10
  10 -12   1  158.48   69.59
  15  -5  -1  792.22   97.99
  15  -5  -1  516.45  145.59
 -10  15  -1  596.54  150.18
   5  10   1  612.24   79.49
 -15   5   1  534.45  153.38
  10 -15   1  640.74  108.39
  18  -8  -1  383.66  103.89
  18  -8  -1  573.04  137.39
 -10  18  -1  614.54  188.58
  10 -18   1   98.69  101.99
   8  10   1  309.97   76.79
 -18   8   1  211.98  163.48
  21 -11  -1 1020.80  158.48
  18 -11  -1   60.89   89.89
  18 -11  -1  -10.70  118.99
   7 -18   1    3.90  107.29
  11   7   1    2.00   63.19
 -18  11   1  -16.60  153.58
  15 -11  -1 1160.98  142.59
  15 -11  -1 1127.69  129.79
  11   4   1 1032.10  115.59
   4 -15   1 1258.27  129.59
 -15  11   1 1160.38  172.38
  12 -11  -1  288.87   74.79
  12 -11  -1  445.26   82.59
   1 -12   1  277.97   81.79
 -12  11   1  454.85  123.99
  11   1   1  455.95   70.49
 -11   2  -1  632.64  149.59
   9 -11  -1  618.64   95.89
   9 -11  -1  657.73   93.49
  11  -2   1  714.43   97.29
  11  -2   1  678.83   88.19
  -9  11   1  694.03  131.99
   6 -11  -1 1919.71  157.98
   6 -11  -1 1869.41  162.18
 -11   5  -1 1844.42  185.18
   5   6  -1 1854.11  146.89
  11  -5   1 1766.42  157.18
  -6  11   1 1703.13  184.28
  11  -5   1 1787.52  167.68
 -11   8  -1  264.57  111.79
   8   3  -1  369.86   62.29
   3 -11  -1  416.56   70.39
   3 -11  -1  349.77   68.59
  11  -8   1  310.87   81.29
  11   0  -1  456.55  119.59
 -11  11  -1  272.27  117.89
  11   0  -1  499.95   70.29
 -11  11  -1  591.74  100.19
 -11   0   1  460.25  119.19
  11 -11   1  707.23   89.79
  11 -11   1  351.46   81.39
  14  -3  -1 2728.03  226.48
 -11  14  -1 2761.02  245.08
 -11  14  -1 2681.03  258.27
  14  -3  -1 2789.82  254.47
  11 -14   1 2504.85  228.68
  11 -14   1 2422.06  230.98
 -14   3   1 2918.41  269.97
   3  11   1 2860.31  218.28
 -11  17  -1  277.57  168.38
  17  -6  -1  503.25   93.39
  17  -6  -1  141.69  138.19
  11 -17   1  478.15  100.89
   6  11   1  414.86   74.79
 -17   6   1  294.77  152.98
  11 -17   1  245.68   93.99
  20  -9  -1  892.81  178.58
  20  -9  -1  891.51  144.89
 -20   9   1  626.34  201.98
   9  11   1  878.21  123.19
  23 -12  -1  172.38  125.09
 -23  12   1  248.28  248.88
  11 -23   1  -87.89  135.89
  20 -12  -1  408.76  115.59
  20 -12  -1  360.56  152.08
  12   8   1   75.89   93.99
   8 -20   1  240.98  130.89
 -20  12   1  -49.10  163.48
  17 -12  -1  734.83  119.29
 -17  12   1  865.21  177.58
   5 -17   1  823.12  124.19
  12   5   1  845.12  105.79
  14 -12  -1 4080.39  329.87
  14 -12  -1 3974.40  328.37
   2 -14   1 4214.98  327.07
 -14  12   1 4099.99  352.66
  12   2   1 4015.30  323.57
  11 -12  -1  451.35   82.89
  11 -12  -1  455.85   76.69
 -12   1  -1  487.55  132.19
 -11  12   1  286.47  121.79
  12  -1   1  450.05   67.59
  12  -1   1  518.25  106.79
 -12   4  -1  118.19  113.89
   8 -12  -1  169.28   70.49
   8 -12  -1  157.68   66.69
  -8  12   1   81.99  127.49
  12  -4   1  269.97   64.99
  12  -4   1   24.40  105.09
   5 -12  -1  908.81  104.49
 -12   7  -1  870.41  144.99
   7   5  -1  938.31   87.59
   5 -12  -1  956.40  102.99
  12  -7   1  876.51  101.59
  12  -7   1  789.62  112.39
   2 -12  -1  180.78   70.69
 -12  10  -1   47.60  110.29
   2 -12  -1   59.89   71.09
  10   2  -1   93.69   59.49
  12 -10   1  225.48   69.99
  12 -10   1  113.79   76.69
 -12  13  -1 4604.24  354.96
  13  -1  -1 4116.09  324.77
 -13   1   1 4165.38  353.26
  12 -13   1 3682.53  329.47
  12 -13   1 4024.10  334.17
  16  -4  -1  873.01  116.49
 -12  16  -1 1180.18  183.28
   4  12   1  932.21  106.69
  12 -16   1  910.91  121.19
 -16   4   1 1138.49  195.48
 -12  19  -1  332.07  217.28
  19  -7  -1  363.76  270.57
 -19   7   1    6.90  180.08
  12 -19   1  -70.79  166.38
   7  12   1  318.67   87.59
  12 -22   1  245.08  121.59
 -22  10   1  390.16  234.98
  25 -13  -1 -269.47  136.89
  12 -25   1    7.20  142.39
 -25  13   1  139.99  305.97
  22 -13  -1  -25.00  128.29
  22 -13  -1  -34.70  172.08
   9 -22   1  186.18  135.19
  13   9   1 -128.69  104.09
 -22  13   1  -66.19  195.68
  19 -13  -1  116.99  106.19
  19 -13  -1  256.57  130.49
  13   6   1   56.09   73.39
 -19  13   1  -82.59  160.28
  16 -13  -1 2453.75  211.08
  16 -13  -1 2279.57  219.78
 -16  13   1 1969.10  253.27
   3 -16   1 2569.14  213.48
  13   3   1 2360.16  200.38
  13 -13  -1 4392.66  353.36
 -13   0  -1 4421.16  383.76
  13 -13  -1 4618.54  353.76
  13   0   1 4230.48  347.57
  13   0   1 4092.99  360.56
 -13  13   1 4591.74  373.86
  10 -13  -1   92.09   72.59
  10 -13  -1   50.29   76.49
  13  -3   1 -206.08  131.29
 -10  13   1   89.59  115.09
  13  -3   1  -67.79   60.09
   7 -13  -1  358.06   81.99
   7 -13  -1  672.73   86.09
   6   7  -1  445.96   61.79
 -13   6  -1  341.97  125.59
  13  -6   1  568.54   89.19
  13  -6   1  496.35  103.19
  -7  13   1  419.46  122.99
 -13   9  -1 -198.38  113.99
   9   4  -1   43.20   50.49
   4 -13  -1  139.69   72.69
   4 -13  -1   44.90   76.29
  13  -9   1    6.20   83.69
  13  -9   1   20.90   71.09
 -13  12  -1 4485.35  363.46
  12   1  -1 4156.08  334.67
   1 -13  -1 4217.48  338.97
 -13  12  -1 4651.83  348.07
   1 -13  -1 3979.70  340.57
  13 -12   1 3971.10  339.27
  13 -12   1 4208.48  340.97
 -13  15  -1 2528.25  254.37
 -13  15  -1 2543.55  273.87
  15  -2  -1 2842.82  223.88
  13 -15   1 2669.23  240.48
 -15   2   1 2726.93  273.67
 -13  18  -1 -178.58  191.78
  18  -5  -1   25.50   69.19
  13 -18   1  -25.00  105.59
 -18   5   1 -340.97  171.48
  13 -18   1   46.80   86.49
  21  -8  -1 1003.00  136.79
 -13  21  -1 1019.90  271.27
 -21   8   1  529.95  238.48
  24 -11  -1   54.49  116.59
  13 -24   1   74.39  122.09
 -24  11   1 -225.68  300.97
  24 -14  -1  -74.39  145.19
  24 -14  -1  474.45  280.27
  10 -24   1  -66.09  143.89
 -24  14   1   50.19  258.57
  21 -14  -1  -89.49  174.28
  21 -14  -1  -77.49  121.09
  14   7   1  119.09   93.99
   7 -21   1  201.58  134.99
 -21  14   1   28.90  175.28
  18 -14  -1 1056.89  149.39
  18 -14  -1 1020.30  136.99
   4 -18   1  916.21  147.49
 -18  14   1  622.44  189.98
  14   4   1 1037.80  120.79
  15 -14  -1 3750.12  308.27
  15 -14  -1 3649.23  307.87
  14   1   1 3855.61  301.27
 -15  14   1 3659.03  342.67
  12 -14  -1 4202.58  329.17
  12 -14  -1 3841.52  327.67
 -14   2  -1 3747.73  359.86
  14  -2   1 4073.09  323.67
 -12  14   1 4347.47  341.17
 -12  14   1 4160.18  351.46
   9 -14  -1   92.19   79.19
   9 -14  -1  147.99   71.89
 -14   5  -1  -53.89  128.99
  -9  14   1   73.99  117.69
  14  -5   1  363.46  101.59
   6 -14  -1  145.99   77.19
 -14   8  -1 -144.89  120.99
   8   6  -1  263.27   50.09
   6 -14  -1   71.59   83.39
  14  -8   1  195.58   92.99
  14  -8   1  182.08   74.49
  11   3  -1 2704.63  219.58
   3 -14  -1 2771.12  229.38
 -14  11  -1 2397.06  259.17
   3 -14  -1 2598.34  234.48
  14 -11   1 2604.74  233.38
  14 -11   1 2827.62  230.88
 -14  14  -1 3058.89  260.67
  14   0  -1 3138.19  241.28
   0 -14  -1 2820.52  259.87
 -14  14  -1 2962.10  283.57
 -14   0   1 2847.71  290.17
  14 -14   1 2914.11  251.07
  14 -14   1 2633.24  249.78
 -14  17  -1 1068.19  199.98
  17  -3  -1  864.21  113.59
  14 -17   1  963.70  151.18
 -17   3   1  712.43  191.88
  20  -6  -1  320.27   85.49
 -14  20  -1  729.93  254.47
 -20   6   1  301.57  248.98
  14 -20   1  256.67  103.59
  14 -20   1  304.77  191.88
 -23   9   1   84.59  297.87
  14 -23   1  112.09  111.69
  23 -15  -1  205.58  169.28
  23 -15  -1   70.59  145.59
   8 -23   1  132.89  166.38
 -23  15   1  -61.39  221.48
  15   8   1  156.58  113.39
  20 -15  -1 -161.38  157.78
  20 -15  -1  144.39  109.09
 -20  15   1   56.99  171.88
  15   5   1   29.60   76.89
   5 -20   1  212.68  122.59
  17 -15  -1 1956.60  197.08
  17 -15  -1 1817.02  209.98
   2 -17   1 2384.16  200.28
  15   2   1 2042.70  184.68
 -17  15   1 1712.73  245.88
  14 -15  -1 3846.72  312.37
  14 -15  -1 4034.40  313.67
 -15   1  -1 3982.90  355.76
 -14  15   1 3620.04  348.77
 -14  15   1 3614.54  333.37
  15  -1   1 3681.13  305.87
  11 -15  -1 1223.78  134.29
 -15   4  -1 1170.58  192.78
  11 -15  -1 1002.40  134.49
  15  -4   1  975.30  154.28
 -11  15   1 1335.17  180.98
  15  -4   1 1129.09  121.89
   8 -15  -1   86.89   80.39
 -15   7  -1   25.40  129.99
   7   8  -1  118.49   47.30
   8 -15  -1  -28.90   83.09
  15  -7   1  126.89   79.39
  -8  15   1 -194.08  118.19
  15  -7   1  -36.70   94.89
   5 -15  -1  478.35   92.79
  10   5  -1  585.74   81.19
 -15  10  -1  445.06  142.59
  15 -10   1  601.04  103.79
  15 -10   1  674.23  102.59
   2 -15  -1 2981.90  245.58
  13   2  -1 2998.30  233.38
   2 -15  -1 2722.63  261.17
 -15  13  -1 2959.10  258.17
 -15  13  -1 2398.36  276.77
  15 -13   1 2871.11  247.48
  15 -13   1 2715.53  248.68
  -1 -15  -1 2478.45  263.17
  16  -1  -1 2870.71  222.18
 -15  16  -1 2881.71  265.37
 -15  16  -1 2526.25  285.17
  15 -16   1 2772.92  237.78
  15 -16   1 2074.99  233.48
 -16   1   1 2481.85  292.57
 -15  19  -1  202.48  243.18
  19  -4  -1   54.19   72.59
  15 -19   1  289.27  103.29
  15 -19   1  251.57  119.89
 -19   4   1  175.98  227.38
  22  -7  -1  690.23  107.79
 -15  22  -1  541.35  280.57
 -22   7   1  -50.29  288.17
  25 -10  -1  145.59  119.09
 -25  10   1  396.36  339.97
  15 -25   1  210.78  134.19
  25 -16  -1  384.36  309.17
  25 -16  -1  134.99  165.88
   9 -25   1  480.55  171.78
 -25  16   1  159.58  279.07
 -25  16   1  -74.99  212.78
  22 -16  -1  -26.80  138.29
  22 -16  -1  346.47  152.88
   6 -22   1    1.00  153.98
  16   6   1   60.49  104.59
 -22  16   1   82.09  202.78
 -22  16   1 -242.58  179.28
  19 -16  -1  824.22  186.08
  19 -16  -1  433.96  166.38
   3 -19   1  358.46  138.99
 -19  16   1  166.98  182.58
  16   3   1  529.75   98.69
 -19  16   1  457.25  167.58
 -16   0  -1 1725.53  285.77
  16 -16  -1 2460.75  216.88
  16 -16  -1 2450.55  215.18
 -16  16   1 2108.39  261.07
  16   0   1 2477.95  204.98
 -16  16   1 2298.87  271.27
 -16   3  -1 2233.48  270.17
  13 -16  -1 2122.69  213.48
  13 -16  -1 2258.27  213.68
  16  -3   1 2715.53  202.48
  16  -3   1 2378.56  252.87
 -13  16   1 2486.45  264.67
  10 -16  -1   69.79   88.19
  10 -16  -1   75.39   80.29
 -16   6  -1  -61.19  150.48
  16  -6   1  234.28  114.69
 -10  16   1  350.26  142.69
  16  -6   1  194.18   79.39
   7 -16  -1  255.77  103.59
   9   7  -1    8.50   50.99
   7 -16  -1   -4.20   88.09
 -16   9  -1   86.99  134.79
  16  -9   1  135.39  107.99
  16  -9   1   38.50   83.59
   4 -16  -1 1132.29  130.99
  12   4  -1  863.11  109.79
   4 -16  -1  911.91  152.78
 -16  12  -1  983.60  169.98
  16 -12   1  939.01  134.69
  16 -12   1 1092.39  132.19
   1 -16  -1 2696.13  244.58
   1 -16  -1 2685.43  276.57
 -16  15  -1 2835.62  258.97
 -16  15  -1 2114.59  284.47
  15   1  -1 2942.91  230.58
  16 -15   1 2907.61  244.78
  16 -15   1 2539.55  244.28
  -2 -16  -1  888.61  155.88
 -16  18  -1 1245.28  352.36
  18  -2  -1 1247.18  125.69
 -18   2   1  902.41  243.38
  16 -18   1 1123.49  167.78
  16 -18   1  761.42  145.29
  21  -5  -1  104.89   91.59
 -16  21  -1  234.48  265.87
 -21   5   1  162.98  267.57
  16 -21   1  187.98  209.68
  16 -21   1  145.29  122.59
 -16  24  -1  233.88  414.36
  24  -8  -1  278.27   96.29
  16 -24   1  -49.20  125.39
 -24   8   1  -15.80  327.57
  24 -17  -1    0.10  169.18
  17   7   1   48.40  131.19
 -24  17   1  -72.59  225.58
 -24  17   1  512.55  274.57
   7 -24   1  224.18  170.58
  21 -17  -1 -296.57  141.89
  21 -17  -1  -88.59  124.09
  17   4   1  -33.40   90.59
 -21  17   1    6.40  204.08
 -21  17   1  -28.90  201.28
   4 -21   1  -10.70  142.19
  18 -17  -1 1138.19  161.58
  18 -17  -1  951.80  169.98
   1 -18   1 1123.19  167.58
 -18  17   1  927.71  214.48
  17   1   1 1315.87  138.99
  15 -17  -1 2033.30  200.58
 -17   2  -1 1888.51  277.27
  15 -17  -1 1975.50  202.18
 -15  17   1 2199.88  262.67
  17  -2   1 2104.49  186.38
  12 -17  -1  961.50  126.19
 -17   5  -1  578.84  200.08
  12 -17  -1  765.42  127.39
 -12  17   1  856.81  175.68
  17  -5   1  938.91  159.58
  17  -5   1  937.21  111.19
   9 -17  -1  234.98  105.29
   9 -17  -1  288.67  105.19
 -17   8  -1  244.48  156.48
  17  -8   1  306.07  117.99
  17  -8   1  255.67   92.99
  -9  17   1  208.18  157.48
 -17  11  -1  299.97  154.98
  11   6  -1  326.87   68.99
   6 -17  -1  231.68   95.09
   6 -17  -1  467.35  125.59
  17 -11   1  359.66   97.49
  17 -11   1  478.75  113.89
 -17  14  -1  971.50  189.58
  14   3  -1 1005.40  119.19
 -17  14  -1 1254.37  158.98
   3 -17  -1  911.81  145.89
   3 -17  -1  905.41  172.78
  17 -14   1 1039.70  136.59
  17 -14   1  825.02  150.98
 -17  17  -1 1559.24  234.48
   0 -17  -1 1719.33  200.78
 -17  17  -1 1950.20  336.97
  17 -17   1 1867.81  211.58
  17 -17   1 1957.70  211.08
 -17  20  -1  357.26  260.77
  -3 -17  -1   80.29  136.49
  17 -20   1   83.69  109.09
 -20   3   1 -135.09  366.36
  17 -20   1  197.88  139.59
  23  -6  -1   30.20  107.89
 -17  23  -1  366.56  302.47
  -6 -17  -1   97.69  149.09
 -23   6   1  135.39  312.07
  17 -23   1  110.19  124.79
  23 -18  -1  -24.40  161.78
  23 -18  -1  263.07  164.08
  18   5   1   47.20  119.09
 -23  18   1  117.49  259.17
   5 -23   1 -146.99  177.18
  20 -18  -1  293.37  133.49
  20 -18  -1   61.49  140.49
   2 -20   1   33.20  147.99
 -20  18   1  230.48  207.88
  18   2   1  100.89   96.19
  17 -18  -1 1002.10  156.58
 -18   1  -1  976.70  236.38
  17 -18  -1 1299.77  156.88
 -17  18   1  553.04  217.08
  18  -1   1 1162.28  134.09
  -1 -17   1 1067.39  161.08
 -18   4  -1 1114.69  237.48
  14 -18  -1 1103.49  132.79
  14 -18  -1  806.92  124.79
 -14  18   1  817.42  205.48
  18  -4   1  796.12  110.89
 -18   7  -1  -59.89  189.38
  11 -18  -1  -11.00   99.79
  11 -18  -1  -53.99   97.79
 -11  18   1   -9.20  177.68
  18  -7   1   68.89   86.19
  18  -7   1   17.20  119.19
 -18  10  -1  363.16  169.68
  10   8  -1  204.48   69.09
   8 -18  -1  281.57  112.79
   8 -18  -1  329.17  112.59
  18 -10   1  330.37  124.79
  18 -10   1  460.55  104.59
   5 -18  -1  -32.70  102.59
 -18  13  -1  135.69  170.08
  13   5  -1    4.70   70.69
   5 -18  -1  -31.40  183.38
  18 -13   1  243.88  121.19
  18 -13   1   35.70  109.49
 -18  16  -1 1022.40  225.58
 -18  16  -1 1285.27  180.18
   2 -18  -1 1177.88  169.38
  18 -16   1 1221.28  176.68
  -1 -18  -1  630.54  152.18
 -18  19  -1  335.37  263.37
  18 -19   1 1033.20  210.38
 -19   1   1  228.18  272.67
  18 -19   1  419.36  137.69
  -4 -18  -1  213.08  150.98
 -18  22  -1  256.57  295.37
  22  -4  -1  -31.90  101.79
 -22   4   1  800.42  306.87
  18 -22   1   81.79  320.97
  18 -22   1  -13.20  125.19
  22 -19  -1 -178.08  156.18
  22 -19  -1  237.88  144.49
   3 -22   1 -104.99  166.58
 -22  19   1  366.16  263.47
  19   3   1  213.18  108.09
  19 -19  -1  167.48  138.89
  19 -19  -1  118.59  149.79
   0 -19   1  -15.50  144.79
 -19  19   1  245.28  217.48
  19   0   1  306.87  100.59
 -19   3  -1  387.56  226.48
  16 -19  -1  447.36  121.19
  16 -19  -1  542.45  129.09
  19  -3   1  610.54   96.39
 -16  19   1   -8.10  221.08
 -19   6  -1 -337.57  218.88
  13 -19  -1  -59.09  113.09
  13 -19  -1  142.49  101.19
 -13  19   1 -193.08  202.38
  19  -6   1 -128.99  158.58
  10 -19  -1  434.76  146.69
 -19   9  -1  754.72  215.68
  10 -19  -1  597.34  123.09
  19  -9   1  513.65  137.19
  19  -9   1  633.24  117.89
 -19  12  -1  122.59  234.48
  12   7  -1  262.37   79.99
   7 -19  -1  408.76  189.78
  19 -12   1  399.76  121.69
  19 -12   1  240.98  139.39
 -19  15  -1   37.20  157.58
   4 -19  -1   83.39  120.39
  15   4  -1   32.30  122.99
 -19  15  -1  204.08  203.28
  19 -15   1  -81.69  124.79
  19 -15   1   26.70  219.48
   1 -19  -1  395.66  138.99
 -19  18  -1  437.66  248.78
  19 -18   1  189.58  139.69
  19 -18   1  656.63  199.18
  -2 -19  -1  154.58  158.38
 -19  21  -1 -258.07  300.47
  21  -2  -1  250.07  111.99
  19 -21   1  295.47  152.58
  19 -21   1 -257.57  165.98
  24  -5  -1  -99.79  110.69
  -5 -19  -1  -99.39  175.38
 -19  24  -1  208.98  355.46
  19 -24   1  209.58  153.28
 -24   5   1  440.66  364.16
  21 -20  -1   42.10  153.68
  21 -20  -1   56.69  155.18
 -21  20   1  325.17  283.47
   1 -21   1 -162.38  168.28
  20   1   1   48.40  112.09
  18 -20  -1  296.37  127.09
 -20   2  -1  290.87  358.96
  18 -20  -1   65.39  128.69
  20  -2   1  145.79   93.29
  -2 -18   1  112.29  126.49
 -18  20   1  283.97  243.78
  15 -20  -1   86.49  105.09
 -20   5  -1 -101.99  263.67
  15 -20  -1   49.10  119.29
  20  -5   1  170.58   85.99
 -15  20   1  -39.40  315.77
  12 -20  -1  186.98  126.69
  12 -20  -1  186.38  109.99
 -20   8  -1  248.18  244.98
  20  -8   1   30.30  150.58
 -12  20   1  237.88  238.28
  20  -8   1   -9.40   92.59
 -20  11  -1 1020.70  231.68
   9 -20  -1 1460.75  230.68
   9 -20  -1 1195.68  158.28
  20 -11   1 1049.30  183.18
  20 -11   1  746.13  165.38
  14   6  -1    8.10  146.59
   6 -20  -1  255.27  130.79
 -20  14  -1  110.49  273.17
 -20  14  -1  390.86  204.88
  20 -14   1  364.36  153.48
  20 -14   1  488.15  171.08
   3 -20  -1  173.08  126.79
 -20  17  -1  465.65  191.68
 -20  17  -1  226.68  237.28
  17   3  -1  338.97  103.79
  20 -17   1    0.20  145.39
  20 -17   1  163.88  139.79
 -20  20  -1 -139.39  286.67
  20   0  -1  418.16  115.09
   0 -20  -1   74.69  154.68
  20 -20   1 -167.18  153.48
  20 -20   1  210.18  155.88
  23  -3  -1   73.59  125.09
  -3 -20  -1  149.09  183.48
 -20  23  -1  111.79  310.77
  20 -23   1  -83.49  165.48
  20 -23   1 -193.18  368.46
  23 -21  -1   87.79  173.98
  23 -21  -1  332.17  180.48
  21   2   1  167.38  124.19
   2 -23   1   67.79  176.48
 -23  21   1 -153.38  314.37
  20 -21  -1 -182.28  161.08
  20 -21  -1  225.38  158.58
 -20  21   1   68.69  287.87
  21  -1   1  123.09  109.79
  -1 -20   1   69.69  167.08
 -21   4  -1  120.99  248.88
  17 -21  -1   88.79  128.69
  17 -21  -1   11.70  122.69
  21  -4   1   -8.20   91.79
 -17  21   1  212.88  262.17
  14 -21  -1  -55.19  128.59
 -21   7  -1  -91.69  250.27
  14 -21  -1  124.29  104.39
  21  -7   1   78.79   87.29
  11 -21  -1 1123.79  228.48
  11 -21  -1  962.50  140.69
  21 -10   1  833.82  132.39
  21 -10   1  468.55  164.98
 -21  13  -1  853.71  241.18
   8 -21  -1 1098.29  163.98
  21 -13   1 1101.59  180.98
  21 -13   1  644.94  168.78
   5 -21  -1   -1.30  130.19
  16   5  -1   46.50   99.09
 -21  16  -1  -14.20  173.68
 -21  16  -1  386.36  231.88
  21 -16   1  -47.30  148.79
  21 -16   1  302.77  146.69
  19   2  -1  379.36  119.69
 -21  19  -1  341.77  263.77
   2 -21  -1   89.69  139.99
  21 -19   1  -67.09  158.38
  21 -19   1  -18.20  152.98
 -21  22  -1  -56.39  306.27
  22  -1  -1  155.88  125.09
  -1 -21  -1 -204.98  178.68
  21 -22   1  153.78  185.88
  21 -22   1  -90.49  166.48
  22 -22  -1  838.92  184.78
  22 -22  -1   47.00  170.58
 -22  22   1  169.68  341.97
   0 -22   1   86.29  186.68
  22   0   1  273.07  129.19
  19 -22  -1    2.40  146.29
  19 -22  -1  255.27  159.88
  22  -3   1  200.78  107.79
 -19  22   1  191.78  308.77
  -3 -19   1   81.39  157.98
 -22   6  -1  417.66  255.27
  16 -22  -1  -13.00  135.99
  16 -22  -1   94.59  121.19
 -16  22   1 -319.47  285.47
  22  -6   1  174.68   97.99
  13 -22  -1  103.79  118.09
 -22   9  -1   89.29  260.87
 -13  22   1   38.90  419.56
  22  -9   1   12.80  104.59
  22  -9   1  -44.60  209.08
 -22  12  -1  885.91  249.88
  10 -22  -1  833.62  144.19
  22 -12   1  407.76  164.38
  22 -12   1  587.54  139.49
  15   7  -1  729.23  121.09
 -22  15  -1  221.88  244.68
   7 -22  -1  791.42  166.78
 -22  15  -1  736.93  185.18
  22 -15   1  806.82  162.08
  22 -15   1  416.26  167.38
 -22  18  -1   65.79  245.58
   4 -22  -1   74.99  144.59
  18   4  -1  173.78  119.69
 -22  18  -1   23.50  217.48
  22 -18   1  128.59  164.38
  22 -18   1  109.59  167.58
  21   1  -1    9.00  131.49
 -22  21  -1 -584.54  288.87
   1 -22  -1  161.88  164.78
  22 -21   1  -10.90  168.18
  22 -21   1  -30.00  185.98
  21 -23  -1  325.37  187.78
  21 -23  -1  722.23  196.38
 -21  23   1  303.27  358.66
  23  -2   1  407.46  123.09
  -2 -21   1  485.15  197.58
  18 -23  -1   49.20  139.49
  18 -23  -1   51.09  151.88
 -23   5  -1  212.78  303.47
  23  -5   1  -80.89  108.49
 -18  23   1   41.40  321.97
  15 -23  -1    3.90  124.39
 -23   8  -1 -350.46  256.07
  23  -8   1  -79.39   85.79
 -15  23   1  108.29  324.67
  12 -23  -1  119.49  136.89
 -23  11  -1  206.48  269.37
  23 -11   1   62.29  119.39
  23 -11   1 -209.78  205.18
 -23  14  -1  313.67  240.78
   9 -23  -1  606.94  148.29
 -23  14  -1  468.95  186.38
  23 -14   1  285.47  162.08
  23 -14   1  792.92  163.78
 -23  17  -1  247.08  214.68
 -23  17  -1  284.77  252.87
  17   6  -1  515.65  130.99
   6 -23  -1  237.58  169.88
  23 -17   1  331.07  167.08
  23 -17   1  113.59  170.38
 -23  20  -1  173.68  271.17
  20   3  -1   -4.30  137.89
   3 -23  -1   58.59  165.88
  23 -20   1 -259.37  183.88
  23 -20   1 -106.49  177.28
 -24   7  -1   88.79  314.17
  17 -24  -1   28.70  154.48
 -17  24   1  376.76  360.66
  24  -7   1    3.40  113.09
  14 -24  -1   16.40  126.29
 -24  10  -1  302.97  259.77
  24 -10   1  184.58  116.79
 -24  13  -1 -159.08  215.08
 -24  13  -1  397.86  264.07
  11 -24  -1  316.07  152.78
  24 -13   1   19.80  192.18
  24 -13   1  131.79  142.99
 -24  16  -1  785.22  220.28
 -24  16  -1  170.98  247.68
   8 -24  -1  298.67  178.38
  24 -16   1  334.27  176.38
  24 -16   1  216.98  171.58
   5 -24  -1  130.09  188.18
 -24  19  -1  230.28  260.97
  19   5  -1  222.08  147.19
  24 -19   1   57.29  189.38
  24 -19   1  147.29  185.68
  16 -25  -1  -69.79  134.99
 -25   9  -1   12.00  304.67
  25  -9   1   10.80  125.79
  13 -25  -1  164.48  143.49
 -25  12  -1   50.89  245.38
 -25  15  -1   41.40  214.08
 -25  15  -1 -237.88  252.87
  10 -25  -1  238.08  165.88
  25 -15   1  156.08  169.68
  25 -15   1 -184.38  204.58
   4  -3  -2   86.59   34.30
  -4   3   2  -80.59   39.00
   3   1   2   42.00   29.40
  -4   1  -2  -71.19   56.99
   4  -1   2   22.40   44.60
  -3   4   2  -42.10   36.60
   4  -1   2  -50.29   36.70
   7  -3  -2  317.37   85.09
  -3   8  -2   25.30   46.20
   8  -5  -2   99.19   47.20
  -8   5   2  195.58   82.29
   5   3   2    9.40   55.09
   5  -5  -2  -22.20   55.59
   0   5  -2  -23.40   49.99
  -5   0  -2 -116.29   81.49
   5  -5  -2  -10.80   38.30
   5   0   2   22.40   39.10
  -5   5   2  -53.89   54.89
   5   0   2  -20.50   53.59
   6  -1  -2   92.79   50.79
  -5   6  -2   -9.90   60.79
  -5   6  -2   84.79   48.50
   1   5   2   68.09   34.90
  -6   1   2  128.59   59.89
   5  -6   2   61.69   50.89
   9  -4  -2 1511.35  120.59
  -5   9  -2 1091.49  135.59
   9  -4  -2 1376.36  138.79
  -9   4   2 1419.46  145.29
   4   5   2 1334.67  112.69
  10  -6  -2 1901.41  195.08
 -10   6   2 2310.87  202.98
   6   4   2 2429.76  183.18
   7  -6  -2 2238.08  184.48
   7  -6  -2 1854.91  188.48
   6   1   2 2591.14  183.28
   4  -6  -2  721.83   85.89
   6  -2   2  890.11   84.29
   1  -6  -2   86.89   45.80
   5   1  -2  106.99   51.89
   1  -6  -2   70.89   43.60
  -6   5  -2 -124.69   62.49
   5   1  -2  -66.19   44.30
   6  -5   2  -17.90   50.09
  -1   6   2   97.09   35.90
   6  -5   2   36.60   48.70
  -6   8  -2  113.19   49.60
   8  -2  -2   23.60   56.09
  -6   8  -2 -147.79   69.39
   6  -8   2  -73.69   84.09
   2   6   2    8.50   33.00
   6  -8   2  156.18   56.69
  -6  11  -2  646.44  117.19
  11  -5  -2  769.52   82.59
  -6  11  -2  588.34   85.59
  11  -5  -2  745.73  105.09
   5   6   2  646.34   69.39
 -11   5   2  785.12  125.09
   6 -11   2  513.15   96.89
  12  -7  -2 1963.00  205.38
  12  -7  -2 2216.78  186.58
 -12   7   2 2454.15  214.98
   7   5   2 2301.47  182.18
   9  -7  -2 1714.93  148.99
   9  -7  -2 1736.43  144.29
   7   2   2 1561.34  140.69
   6  -7  -2 1806.42  168.58
   6  -7  -2 2187.78  166.48
   7  -1   2 2009.50  167.28
   4   3  -2  442.76   52.89
   3  -7  -2  375.36   68.19
   3  -7  -2  606.94   69.19
   7  -4   2  511.65   74.49
  -7   7  -2  693.43  109.09
  -7   7  -2  830.22   90.79
   7  -7   2  875.31   92.49
  10  -3  -2 1547.45  128.29
  -7  10  -2 1221.28  134.39
 -10   3   2 1435.06  154.18
   7 -10   2 1445.06  147.19
  13  -6  -2 1426.16  128.19
  13  -6  -2 1034.10  161.08
 -13   6   2 1354.16  168.38
   7 -13   2 1260.97  132.09
   6   7   2 1471.25  118.89
  14  -8  -2 1568.84  187.88
  14  -8  -2 2153.68  172.58
   8   6   2 2154.48  163.38
   6 -14   2 1684.33  172.58
 -14   8   2 2153.78  209.18
  11  -8  -2 2043.30  169.18
   8   3   2 1895.51  164.28
 -11   8   2 2074.39  194.08
   8  -8  -2 1193.08  107.49
   8  -8  -2 1006.30  106.69
  -8   0  -2 1337.87  141.89
   8   0   2  841.72  101.79
  -8   8   2 1127.99  128.29
  -8   3  -2   86.69   79.59
   3   5  -2   96.89   58.69
   5  -8  -2  274.87   55.09
   8  -3   2  267.17   56.79
   8  -3   2  243.48   67.39
  -5   8   2   40.30   76.49
   2  -8  -2  138.79   52.39
   2  -8  -2  126.99   46.70
   6   2  -2  101.39   46.50
  -2   8   2   83.49   42.50
   8  -6   2  187.38   60.39
   8  -6   2   75.39   53.79
  -8   9  -2  528.45   88.59
  -8   9  -2  519.45  100.09
   8  -9   2  613.14   84.79
   1   8   2  722.53   67.79
  -9   1   2  525.15  103.29
  -8  12  -2  169.98   73.29
  -8  12  -2  155.48  102.29
  12  -4  -2   83.69   62.09
  12  -4  -2   90.59  101.19
   4   8   2   66.89   44.00
   8 -12   2  -34.60   75.39
   8 -12   2  149.29   73.39
 -12   4   2  147.59  114.59
  -8  15  -2  342.47  142.99
  15  -7  -2  -42.00  122.79
  15  -7  -2   59.79   69.69
   7   8   2  126.19   52.29
   8 -15   2  115.29  115.69
   8 -15   2  246.88   85.09
 -15   7   2   -6.30  137.69
  16  -9  -2  -65.69  112.09
  16  -9  -2   61.29   70.59
 -16   9   2    4.50  145.99
   7 -16   2  -54.59   89.29
   9   7   2   64.09   53.99
  13  -9  -2  730.93  118.59
  13  -9  -2 1055.59  105.99
   9   4   2  815.72   93.79
 -13   9   2  897.01  148.19
  10  -9  -2  174.88   60.39
  10  -9  -2  256.57   69.89
  -9  -1  -2  580.74  124.99
 -10   9   2  282.67  102.59
   9   1   2  228.48   56.09
   7  -9  -2 1662.23  134.59
  -9   2  -2 1288.87  158.28
   7  -9  -2 1473.65  136.19
   9  -2   2 1373.16  141.39
   9  -2   2 1571.64  131.79
   4  -9  -2 1539.35  124.19
   5   4  -2 1453.55  113.29
   4  -9  -2 1307.77  121.69
   9  -5   2 1100.09  125.79
   9  -5   2 1363.36  124.99
   8   1  -2  654.33   75.79
   1  -9  -2  562.84   82.09
   1  -9  -2  724.43  114.59
  -8  -1   2  490.95  111.29
   9  -8   2  588.84   84.29
  -1   9   2  736.73   68.69
  11  -2  -2  -26.00  106.29
  11  -2  -2  115.09   61.99
  -9  11  -2  111.39  101.09
  -9  11  -2   43.40   68.69
 -11   2   2  -12.40  117.79
   9 -11   2  -60.79   67.89
   2   9   2   -8.30   42.70
   9 -11   2   14.00   66.59
  -9  14  -2   32.30  128.59
  14  -5  -2  105.49   75.49
  14  -5  -2  370.76  122.99
  -9  14  -2  123.39   82.69
   9 -14   2  -10.60   82.19
 -14   5   2   78.69  132.09
   5   9   2  169.98   54.29
   9 -14   2  231.18   88.89
  17  -8  -2  199.68   84.59
  17  -8  -2  473.85  140.39
  -9  17  -2  541.45  171.38
   8   9   2  300.47   66.59
   9 -17   2  273.87  105.29
 -17   8   2   74.69  148.99
  18 -10  -2   94.59   86.99
  18 -10  -2   28.50  132.19
  10   8   2   64.29   68.09
 -18  10   2  -74.79  166.98
   8 -18   2  216.18  107.89
  15 -10  -2  883.81  109.49
 -15  10   2  632.54  150.88
   5 -15   2  717.13  112.69
  10   5   2  775.22   95.79
  12 -10  -2  644.44   91.29
 -12  10   2  487.25  129.09
  10   2   2  638.44   81.69
   9 -10  -2  301.07   65.59
   9 -10  -2   41.30   62.59
  10  -1   2  184.78   56.19
  10  -1   2  167.28   75.99
  -9  10   2  257.57  105.09
   6 -10  -2 2640.74  193.18
   6 -10  -2 2073.59  192.18
  -6  10   2 1985.80  209.48
  10  -4   2 2365.26  197.58
  10  -4   2 2461.45  192.98
   3 -10  -2 1883.51  143.89
   7   3  -2 1814.22  135.39
   3 -10  -2 1404.66  140.79
  10  -7   2 1320.37  142.39
  10  -7   2 1585.84  148.49
  10   0  -2   -2.00   53.89
 -10  10  -2  -13.30   68.79
 -10  10  -2  -14.90   99.09
 -10   0   2  113.49  113.09
  10 -10   2   75.79   67.39
  10 -10   2  -88.49   64.29
   0  10   2  135.89   43.80
  13  -3  -2  311.97   70.79
 -10  13  -2  489.35  124.59
  13  -3  -2  474.65  127.79
 -10  13  -2  337.97   93.69
 -13   3   2   64.39  126.79
   3  10   2  227.18   52.39
  10 -13   2   70.69   79.09
  10 -13   2  137.09   81.49
 -10  16  -2  302.97  158.08
  16  -6  -2   45.20   80.99
  16  -6  -2   73.19  143.49
   6  10   2  105.39   63.09
 -16   6   2  185.98  156.18
  10 -16   2  -40.00   84.49
  10 -16   2   23.30  102.09
  19  -9  -2  945.41  152.88
 -19   9   2  577.84  204.78
   9  10   2  810.12  109.39
  10 -19   2  544.65  162.98
  20 -11  -2  294.27  115.29
  20 -11  -2  140.19  151.98
 -20  11   2   12.90  167.48
   9 -20   2 -110.79  125.49
  11   9   2  301.27  148.49
  17 -11  -2  170.58  115.19
  17 -11  -2  144.79   84.69
  11   6   2  134.39   66.39
 -17  11   2  150.08  153.78
   6 -17   2  180.58   98.39
  14 -11  -2 1184.88  131.69
 -14  11   2 1290.77  173.18
  11   3   2 1252.97  120.39
   0  11  -2  -73.29   75.59
  11 -11  -2   39.20   59.29
  11 -11  -2   53.09   70.59
 -11  11   2  169.78  118.99
  11   0   2  187.88   85.29
  11   0   2   87.69   61.79
   8 -11  -2 2099.99  177.78
   8 -11  -2 1947.91  175.68
 -11   3  -2 2169.58  207.08
  11  -3   2 1962.50  173.28
  11  -3   2 2007.50  185.18
  -8  11   2 2195.78  210.38
   5 -11  -2  571.84   88.19
   6   5  -2  706.83   69.49
   5 -11  -2  673.53   86.99
  -5  11   2  446.46  115.99
  11  -6   2  807.32   99.39
   2 -11  -2  -66.69   60.69
   2 -11  -2  -34.50   64.59
 -11   9  -2   27.60  101.29
   9   2  -2  -37.70   53.79
  11  -9   2  -50.69   69.89
  11  -9   2   57.39   66.89
  12  -1  -2  102.99   59.59
 -11  12  -2  137.89  118.59
 -11  12  -2   52.99  105.39
  11 -12   2  158.68   79.59
   1  11   2  114.49   52.59
 -12   1   2   49.99  128.19
  11 -12   2  -34.10   71.59
  15  -4  -2  764.32  108.89
 -11  15  -2  965.10  169.48
 -11  15  -2  622.44  134.39
 -15   4   2  432.06  162.18
  11 -15   2  639.24  114.49
   4  11   2  945.41   89.89
  18  -7  -2 1092.39  139.99
 -11  18  -2 1013.50  213.28
  11 -18   2  983.60  141.09
 -18   7   2  667.13  200.88
   7  11   2 1312.97  118.59
  21 -10  -2  599.04  118.89
  11 -21   2  544.05  126.99
 -21  10   2  261.07  198.18
  10  11   2  652.73  107.69
  22 -12  -2  -12.10  121.69
  22 -12  -2  -29.60  317.07
  12  10   2  145.69  104.39
 -22  12   2  365.76  200.98
  10 -22   2   -3.30  126.59
  19 -12  -2  240.98  131.29
  19 -12  -2   51.49  103.99
  12   7   2   51.99   74.39
 -19  12   2   21.00  202.18
   7 -19   2   53.99  187.18
  16 -12  -2 1118.79  144.19
  16 -12  -2 1092.69  131.39
 -16  12   2 1159.68  187.48
  12   4   2 1023.90  117.39
   4 -16   2 1189.68  134.09
  13 -12  -2  851.41  114.09
  13 -12  -2  982.10  113.69
 -13  12   2 1164.78  166.48
  12   1   2  787.42  101.19
  10 -12  -2  656.63  100.09
  12  -2   2  979.50  135.09
  12  -2   2  624.44   87.69
 -10  12   2  431.56  137.49
   7 -12  -2 2306.97  185.88
   7 -12  -2 1860.31  184.88
 -12   5  -2 2330.67  214.58
  12  -5   2 2200.68  184.18
  12  -5   2 2384.66  191.78
  -7  12   2 1763.32  230.38
   4 -12  -2   82.69   65.59
   8   4  -2  166.68   47.10
 -12   8  -2  -26.70  109.79
   4 -12  -2   -2.20   66.49
  12  -8   2   98.89   74.39
  12  -8   2  127.69   69.49
   1 -12  -2  122.89   76.49
 -12  11  -2  268.07   82.99
  11   1  -2  122.79   64.59
   1 -12  -2   92.49   68.69
 -12  11  -2  238.28  121.09
  12 -11   2  108.79   74.99
  12 -11   2  169.88   79.39
 -11  -1   2   31.00  131.39
 -12  14  -2 1719.93  189.78
  14  -2  -2 1887.31  163.08
 -12  14  -2 1772.92  213.18
  12 -14   2 1755.62  181.78
 -14   2   2 1668.03  216.18
   2  12   2 1924.21  156.58
 -12  17  -2   23.90  180.58
  17  -5  -2  178.38   78.19
  12 -17   2  248.58   82.89
  12 -17   2  116.09  108.99
 -17   5   2   84.69  169.48
  20  -8  -2 1539.15  163.28
 -12  20  -2 1131.99  267.17
 -20   8   2 1377.06  257.17
  12 -20   2 1072.49  168.88
   8  12   2 1803.92  156.28
  23 -11  -2  103.29  114.69
 -23  11   2 -247.28  232.28
  11  12   2  293.97  115.09
  12 -23   2  -36.30  128.19
  24 -13  -2  -60.89  135.19
 -24  13   2   57.49  244.78
  13  11   2  -59.09  123.79
  11 -24   2   43.80  141.49
  21 -13  -2  117.99  111.19
  21 -13  -2 -182.88  154.88
   8 -21   2  -35.30  128.19
 -21  13   2   79.79  176.08
  13   8   2   44.90   91.19
  18 -13  -2   93.49  118.79
  18 -13  -2  174.88   89.49
  13   5   2   -1.30   65.99
   5 -18   2  197.18  107.79
 -18  13   2  159.18  167.88
  15 -13  -2 1450.05  155.38
  15 -13  -2 1538.75  154.28
  13   2   2 1514.25  143.59
 -15  13   2 1490.85  199.78
 -13   1  -2  772.62  173.78
  12 -13  -2 1132.79  114.89
  12 -13  -2  700.13  113.09
  13  -1   2 1081.89  109.79
 -12  13   2  987.90  172.38
   9 -13  -2  853.71  104.79
 -13   4  -2  648.54  148.09
   9 -13  -2  707.83  108.09
  13  -4   2  865.51   98.89
  13  -4   2  867.71  118.39
  -9  13   2  833.12  154.98
   7   6  -2 1331.67  107.99
   6 -13  -2 1096.79  145.19
   6 -13  -2 1084.19  129.49
 -13   7  -2 1242.98  170.18
  13  -7   2 1464.35  129.39
  -6  13   2 1080.89  172.88
  13  -7   2 1304.77  136.59
 -13  10  -2  348.57  125.49
   3 -13  -2  206.58   76.69
   3 -13  -2   28.40   87.19
  13 -10   2  267.37   83.79
  13 -10   2   24.90   86.09
  13   0  -2 3343.37  232.68
 -13  13  -2 2744.83  274.17
 -13  13  -2 3079.59  254.27
   0 -13  -2 2730.93  243.68
   0 -13  -2 2326.37  239.88
 -13   0   2 2349.76  276.27
  13 -13   2 3060.99  243.58
 -13  16  -2 1036.60  194.78
 -13  16  -2  665.63  161.88
  16  -3  -2  982.50  107.89
  13 -16   2  888.31  148.89
 -16   3   2  566.24  182.28
  19  -6  -2 1022.90  151.68
 -13  19  -2  856.61  235.18
 -19   6   2  826.32  212.78
  13 -19   2 1041.50  140.69
   6  13   2 1382.46  135.89
  13 -22   2  221.38  103.49
 -22   9   2  309.97  226.68
  25 -12  -2   56.69  127.79
  13 -25   2 -245.48  115.59
 -25  12   2 -152.38  324.17
  23 -14  -2  -13.10  133.69
  23 -14  -2 -309.37  183.68
 -23  14   2 -166.18  204.58
   9 -23   2 -136.29  137.29
  14   9   2  -56.99  117.69
  20 -14  -2  390.36  141.49
  20 -14  -2  247.58  109.19
   6 -20   2  -57.99  123.69
  14   6   2   62.39   78.39
 -20  14   2  127.79  163.38
  17 -14  -2 1207.98  151.48
  17 -14  -2 1210.28  137.79
 -17  14   2  668.13  185.88
   3 -17   2  975.40  144.99
  14   3   2 1036.10  121.99
  14 -14  -2 2514.45  213.88
  14 -14  -2 2495.95  214.18
 -14   0  -2 2149.88  262.57
 -14  14   2 2360.66  248.68
  14   0   2 2386.06  205.48
  11 -14  -2  896.81  126.69
 -14   3  -2 1013.50  189.58
  14  -3   2 1230.78  118.29
 -11  14   2 1520.35  188.28
  14  -3   2  994.00  145.69
   8 -14  -2 2053.09  181.08
 -14   6  -2 2441.36  220.98
   8 -14  -2 1614.24  181.08
  -8  14   2 1971.20  224.08
  14  -6   2 2213.48  178.98
  14  -6   2 1912.91  189.38
 -14   9  -2  -86.59  127.79
   9   5  -2  171.18   51.69
   5 -14  -2   92.09   77.29
   5 -14  -2   38.90   78.99
  14  -9   2   30.30   88.19
  14  -9   2   95.79   76.29
 -14  12  -2 1635.24  212.08
 -14  12  -2 1817.52  176.78
   2 -14  -2 1611.94  174.88
   2 -14  -2 1455.15  166.98
  12   2  -2 1906.71  153.18
  14 -12   2 1733.63  171.28
  15  -1  -2 1495.05  139.99
  -1 -14  -2 1508.65  176.48
 -14  15  -2 1435.86  216.48
 -14  15  -2 1744.53  185.88
  -1 -14  -2 1175.58  161.28
 -15   1   2 1392.16  222.88
  14 -15   2 1608.24  170.08
  18  -4  -2  379.26   83.19
 -14  18  -2   -4.10  218.68
  14 -18   2  320.77  116.49
  14 -18   2  777.12  155.28
 -18   4   2  101.69  190.68
 -21   7   2  559.04  239.28
  14 -21   2  393.46  114.29
  24 -10  -2  134.19  102.29
 -24  10   2 -106.79  312.47
  14 -24   2   76.29  125.59
  25 -15  -2  -86.49  156.58
 -25  15   2 -218.88  280.97
  15  10   2  296.27  135.89
  10 -25   2  169.98  169.88
  22 -15  -2   87.69  131.59
  22 -15  -2 -134.49  154.58
   7 -22   2 -220.78  151.48
  15   7   2   48.30  103.49
 -22  15   2  -70.49  188.68
  19 -15  -2  606.34  139.69
  19 -15  -2  820.92  156.08
 -19  15   2  322.97  184.48
   4 -19   2  429.46  134.99
  15   4   2  543.95   99.39
  16 -15  -2 1540.35  161.88
  16 -15  -2 1445.06  160.18
 -16  15   2 1317.37  220.78
  15   1   2 1462.85  151.58
  13 -15  -2 1206.88  143.49
 -15   2  -2 1164.68  217.98
  13 -15  -2 1347.37  144.19
 -13  15   2 1502.25  195.18
  15  -2   2 1449.95  135.79
  15  -2   2 1140.89  181.98
 -15   5  -2  143.09  162.98
  15  -5   2  310.57   97.99
 -10  15   2  413.86  134.89
 -15   8  -2  -58.99  140.69
   7 -15  -2  161.08   87.89
   7 -15  -2  140.29   85.99
  15  -8   2  131.09   99.09
  15  -8   2  101.69   78.39
   4 -15  -2  613.64  114.99
  11   4  -2  775.42   91.89
   4 -15  -2  807.02  130.39
 -15  11  -2  475.05  156.18
  15 -11   2  656.83  118.59
  15 -11   2  923.71  118.09
   1 -15  -2 1333.97  185.98
  14   1  -2 1783.42  148.39
 -15  14  -2 1401.46  220.28
   1 -15  -2 1223.68  163.98
 -15  14  -2 1593.14  182.38
  15 -14   2 1637.74  168.78
 -15  17  -2  506.25  204.38
 -15  17  -2  533.45  215.48
  -2 -15  -2  344.27  113.19
  -2 -15  -2  539.85  147.09
  17  -2  -2  388.36   85.29
  15 -17   2  327.37  105.49
  15 -17   2  592.34  120.09
 -17   2   2  120.29  189.68
  20  -5  -2  245.48   83.89
 -15  20  -2  159.48  293.27
  15 -20   2  323.67  104.99
 -20   5   2  268.77  246.38
  23  -8  -2  317.77   99.19
  15 -23   2  246.28  112.39
 -23   8   2  519.95  302.77
  24 -16  -2 -375.26  240.98
  24 -16  -2  183.38  155.38
 -24  16   2  290.67  241.78
   8 -24   2  -91.09  181.68
  16   8   2  146.09  134.39
  21 -16  -2   28.30  108.79
  21 -16  -2   99.79  140.39
 -21  16   2  161.98  182.48
   5 -21   2   22.30  133.49
  16   5   2  249.58   90.49
  18 -16  -2  421.46  115.99
  18 -16  -2  805.82  149.59
  16   2   2  696.73  112.69
 -18  16   2  448.16  189.08
 -18  16   2 1281.47  206.78
   2 -18   2  979.60  159.78
  15 -16  -2 1517.25  157.38
  15 -16  -2 1298.47  157.28
 -16   1  -2 1287.57  233.88
  16  -1   2 1387.26  142.59
  12 -16  -2  921.21  125.69
 -16   4  -2  909.71  197.08
  12 -16  -2  829.12  127.89
 -12  16   2 1038.20  187.28
  16  -4   2  909.21  153.98
  16  -4   2 1039.00  112.59
   9 -16  -2   -2.20   90.09
   9 -16  -2   82.69   87.09
 -16   7  -2   55.79  162.88
  16  -7   2  -31.20  101.59
  -9  16   2   95.19  135.69
  16  -7   2  105.99   78.19
  10   6  -2  188.68   56.09
 -16  10  -2   78.49  148.79
   6 -16  -2   70.39   88.39
   6 -16  -2  135.89  100.69
  16 -10   2   69.99   88.09
  16 -10   2  262.77  105.69
 -16  13  -2  842.62  189.78
   3 -16  -2  961.80  162.78
  13   3  -2 1139.89  114.19
 -16  13  -2  644.74  141.69
   3 -16  -2  880.71  140.59
  16 -13   2 1070.79  140.19
  16 -13   2 1245.18  146.29
  16   0  -2 1340.57  132.29
   0 -16  -2  932.71  160.58
 -16  16  -2 1073.19  234.08
 -16  16  -2 1146.59  186.58
 -16   0   2  680.33  223.98
  16 -16   2 1452.95  170.08
  19  -3  -2  202.28   92.29
 -16  19  -2   70.29  254.57
  -3 -16  -2  188.38  180.68
  -3 -16  -2  145.49  128.19
 -19   3   2  497.05  238.08
  16 -19   2   25.90  133.29
  16 -19   2  148.79  101.99
  22  -6  -2  140.19   85.79
  -6 -16  -2  155.48  143.49
 -16  22  -2   18.90  286.87
  16 -22   2  333.37  129.89
 -22   6   2  158.18  295.07
  25  -9  -2  191.58  110.29
  -9 -16  -2  490.95  176.38
  16 -25   2  451.35  145.59
 -25   9   2  158.58  368.96
  23 -17  -2   -5.30  147.59
  23 -17  -2 -198.68  169.38
   6 -23   2   45.60  177.18
 -23  17   2 -339.47  208.88
 -23  17   2   94.59  222.28
  17   6   2  152.98  117.89
  20 -17  -2  115.39  134.99
  20 -17  -2  168.88  118.19
   3 -20   2   90.79  145.79
 -20  17   2  353.76  190.38
  17   3   2  -56.69   96.39
  17 -17  -2  447.26  111.59
  17 -17  -2  737.43  163.28
  17   0   2  626.64  102.39
 -17  17   2  706.63  217.68
  14 -17  -2  931.71  135.79
 -17   3  -2  796.42  200.98
  14 -17  -2  904.81  136.29
  17  -3   2 1221.68  120.39
  17  -3   2  670.53  176.18
 -14  17   2  810.72  200.58
  11 -17  -2  166.68   85.79
 -17   6  -2   51.99  183.48
  11 -17  -2   46.30   93.09
  17  -6   2    0.00   74.59
  17  -6   2    0.70  113.29
 -11  17   2   77.99  165.18
   8 -17  -2  114.49   99.19
 -17   9  -2  413.26  174.08
   8 -17  -2  289.37   99.99
  17  -9   2  222.28  107.39
  17  -9   2  363.56   95.89
   5 -17  -2  242.38  118.89
  12   5  -2  534.65   88.09
 -17  12  -2  359.26  181.28
   5 -17  -2  290.97  106.39
  17 -12   2  568.14  110.69
  17 -12   2  563.84  116.59
   2 -17  -2  447.76  151.88
 -17  15  -2  640.94  207.38
   2 -17  -2  384.46  120.49
 -17  15  -2  404.86  140.59
  15   2  -2  485.15   98.09
  17 -15   2  486.65  128.69
  17 -15   2  452.05  126.89
 -17  18  -2  -74.79  239.78
  -1 -17  -2  411.66  128.49
  -1 -17  -2   97.89  205.68
  17 -18   2   96.79  117.59
 -18   1   2 -270.97  241.18
  -4 -17  -2  192.08  147.09
  21  -4  -2  -41.30   94.89
 -17  21  -2  410.06  254.07
  17 -21   2  212.58  116.39
 -21   4   2  654.03  286.27
  -7 -17  -2 -117.39  171.28
  24  -7  -2  384.46  120.49
  17 -24   2  182.08  128.69
 -24   7   2  644.44  369.66
  22 -18  -2  214.38  155.48
  22 -18  -2  -10.80  127.39
 -22  18   2   12.60  213.98
   4 -22   2  195.58  156.68
  18   4   2  100.69  109.49
  19 -18  -2    3.70  112.59
  19 -18  -2    9.70  143.49
 -19  18   2  191.08  197.58
  18   1   2   20.10   85.29
   1 -19   2   63.49  144.79
 -18   2  -2  341.97  200.58
  16 -18  -2  305.37  107.39
  16 -18  -2  645.54  140.59
  18  -2   2  459.35   92.99
  13 -18  -2   96.59   92.69
  13 -18  -2  160.78   89.79
 -18   5  -2   82.39  207.78
  18  -5   2  122.19   72.89
 -13  18   2   58.39  184.68
  18  -5   2  262.47  142.59
  10 -18  -2   17.80   99.39
 -18   8  -2   48.90  202.08
  10 -18  -2  127.09   94.69
 -10  18   2  206.98  172.38
  18  -8   2   75.59   89.39
  18  -8   2   59.29  117.79
 -18  11  -2  778.92  199.78
   7 -18  -2  717.93  127.49
  18 -11   2  924.11  148.89
   4 -18  -2  321.47  143.99
 -18  14  -2  176.48  146.59
 -18  14  -2 1139.09  393.36
   4 -18  -2  409.96  149.59
  14   4  -2  467.15   91.89
  18 -14   2  503.95  126.59
  18 -14   2  751.62  129.59
   1 -18  -2  262.77  131.49
 -18  17  -2  251.27  163.98
  17   1  -2  373.56  107.19
 -18  17  -2  511.55  234.78
  18 -17   2   42.90  126.39
  18 -17   2  360.56  139.09
  20  -2  -2  116.99  100.79
  -2 -18  -2    0.10  146.69
 -18  20  -2  243.48  259.07
  18 -20   2   49.80  125.29
 -20   2   2  305.67  338.17
 -18  23  -2 -188.88  332.87
  -5 -18  -2   21.50  168.38
  23  -5  -2  239.98  109.79
  18 -23   2   74.19  129.79
 -23   5   2 -497.55  319.57
  24 -19  -2  109.69  173.28
  24 -19  -2 -156.98  185.28
 -24  19   2 -238.38  279.97
  19   5   2  264.97  136.79
   5 -24   2  445.36  213.18
  21 -19  -2  120.19  150.58
  21 -19  -2  496.45  147.89
  19   2   2 -100.29  105.79
 -21  19   2  125.09  223.88
   2 -21   2   69.59  164.28
  18 -19  -2  -74.09  117.49
  18 -19  -2   48.50  134.19
 -18  19   2  234.68  212.58
  -1 -18   2 -111.19  122.99
  19  -1   2  250.87   96.39
 -19   4  -2  509.45  209.48
  15 -19  -2  362.06  112.39
  15 -19  -2  198.68  107.49
 -15  19   2  557.64  235.18
  19  -4   2  379.26   90.59
  12 -19  -2  -57.39  109.59
 -19   7  -2 -379.76  214.48
  19  -7   2  -45.60  127.19
 -12  19   2  229.98  203.68
  19  -7   2  194.88  135.19
   9 -19  -2  537.65  124.49
 -19  10  -2  466.75  271.87
  19 -10   2  465.05  116.69
  19 -10   2  348.37  134.09
 -19  13  -2 1277.57  231.78
   6 -19  -2 1488.65  211.08
  13   6  -2 1083.99  125.59
  19 -13   2  939.91  167.58
  19 -13   2 1122.09  180.98
 -19  16  -2  122.79  161.98
   3 -19  -2   79.49  115.49
 -19  16  -2  -80.39  217.38
  16   3  -2  192.08  100.39
  19 -16   2  343.47  134.19
  19 -16   2  266.07  139.69
   0 -19  -2  212.98  145.59
  19   0  -2  337.37  113.29
 -19  19  -2  123.59  258.57
  19 -19   2  -29.70  140.29
  19 -19   2  189.28  166.38
  -3 -19  -2 -229.78  170.28
  22  -3  -2   51.59  111.89
 -19  22  -2  -66.99  273.77
 -22   3   2  133.29  418.76
  19 -22   2  -74.89  147.59
  23 -20  -2  274.17  171.58
  23 -20  -2  137.49  162.38
   3 -23   2   81.09  178.98
  20   3   2  217.08  127.39
 -23  20   2  482.45  287.07
  20 -20  -2  256.87  163.58
  20 -20  -2   84.99  148.79
   0 -20   2  324.27  168.18
  20   0   2   93.39  102.09
 -20  20   2 -307.27  238.88
  17 -20  -2   45.00  127.29
  17 -20  -2  149.19  119.19
 -20   3  -2 -151.78  237.88
 -17  20   2 -108.99  225.08
  20  -3   2  197.48   86.09
  14 -20  -2  103.39  111.89
 -20   6  -2 -256.77  221.98
  14 -20  -2  156.28  104.39
 -14  20   2  255.77  240.78
  20  -6   2  -23.30   74.29
  20  -6   2  150.68  187.48
  11 -20  -2   81.49  118.89
  11 -20  -2   74.69  115.29
 -20   9  -2 -234.48  228.98
 -11  20   2  410.66  239.88
  20  -9   2   -4.80  100.69
  20  -9   2 -264.97  139.09
 -20  12  -2 1176.08  232.98
   8 -20  -2  861.71  159.98
   8 -20  -2 1430.36  201.98
  20 -12   2  821.02  166.08
 -20  15  -2  595.74  298.47
  15   5  -2  569.14  135.09
 -20  15  -2  454.95  220.68
  20 -15   2  182.78  146.39
  20 -15   2  443.96  166.58
   2 -20  -2   -3.90  130.09
  18   2  -2  -50.49  107.19
 -20  18  -2 -253.07  240.98
  20 -18   2  269.67  142.09
  20 -18   2  156.78  155.88
  -1 -20  -2   -7.40  164.08
  21  -1  -2  -34.90  122.89
 -20  21  -2   57.09  255.57
  20 -21   2  -49.30  178.28
  20 -21   2  -72.79  152.08
  22 -21  -2  326.17  162.38
  22 -21  -2  211.98  167.68
   1 -22   2 -104.79  179.78
  21   1   2  224.98  123.59
 -22  21   2  336.77  301.67
  19 -21  -2  314.47  157.88
  19 -21  -2   78.59  135.19
  -2 -19   2  178.48  158.18
  21  -2   2   81.69  115.09
 -19  21   2  147.69  261.47
 -21   5  -2 -201.28  235.98
  16 -21  -2  225.48  125.19
  16 -21  -2  133.99  119.39
 -16  21   2 -243.08  252.57
  21  -5   2   94.89   94.39
 -21   8  -2 -164.28  216.98
  13 -21  -2  -86.39  124.79
  13 -21  -2 -147.49  111.29
  21  -8   2   -9.40  181.78
 -13  21   2 -129.79  262.77
  21  -8   2 -113.19   94.39
  10 -21  -2  261.57  145.39
 -21  11  -2  810.02  233.48
  10 -21  -2  277.27  123.19
  21 -11   2  551.24  125.99
   7 -21  -2  779.42  151.38
 -21  14  -2  754.32  228.08
 -21  14  -2  680.13  171.18
  21 -14   2  457.35  159.28
  21 -14   2  834.12  158.48
 -21  17  -2   90.59  187.08
   4 -21  -2   38.40  136.49
 -21  17  -2   62.79  239.58
  17   4  -2  175.88  108.29
  21 -17   2  -55.29  156.88
  21 -17   2 -208.98  152.98
 -21  20  -2  335.77  256.97
  20   1  -2  120.59  123.09
   1 -21  -2  -19.20  152.68
  21 -20   2   53.99  155.98
  21 -20   2  149.29  177.48
  21 -22  -2  165.58  174.68
  21 -22  -2  275.97  171.58
 -21  22   2  231.38  329.47
  22  -1   2  111.99  117.39
  -1 -21   2  419.36  192.48
  18 -22  -2   43.40  142.29
  18 -22  -2  -61.99  130.99
  22  -4   2  109.99  104.39
 -18  22   2  911.61  302.07
 -22   7  -2  -47.20  231.88
  15 -22  -2  -33.60  125.89
  15 -22  -2  -18.80  136.09
 -15  22   2  -60.19  280.57
  22  -7   2   52.39  106.99
  12 -22  -2   55.29  128.89
 -22  10  -2  365.36  241.08
  22 -10   2   76.69  181.08
  22 -10   2  -58.29  103.79
 -22  13  -2  363.36  235.78
 -22  13  -2  556.54  172.98
   9 -22  -2  607.74  140.99
  22 -13   2  162.18  148.59
  22 -13   2  455.05  139.99
 -22  16  -2  469.45  182.28
   6 -22  -2  434.26  166.08
 -22  16  -2  136.79  232.88
  22 -16   2  113.49  162.88
  22 -16   2  471.75  166.38
  19   3  -2 -186.48  126.99
   3 -22  -2   28.60  154.38
 -22  19  -2 -254.67  225.88
  22 -19   2 -291.97  163.08
  22 -19   2   82.09  177.38
  22   0  -2  162.48  145.49
 -22  22  -2  -86.49  273.27
   0 -22  -2  -13.70  171.28
  22 -22   2   45.10  226.78
  22 -22   2   36.40  167.48
  20 -23  -2  230.58  159.98
  20 -23  -2  176.18  188.88
  -3 -20   2  253.17  178.18
 -20  23   2   22.60  344.77
  23  -3   2  220.28  122.69
  17 -23  -2 -173.68  148.99
 -23   6  -2  133.59  273.87
  17 -23  -2   22.80  150.08
 -17  23   2  176.98  319.17
  23  -6   2  104.99  109.89
 -23   9  -2   87.79  237.18
  14 -23  -2   -6.60  125.19
  14 -23  -2  135.89  164.08
  23  -9   2  228.08  103.79
 -23  12  -2  -38.60  218.68
 -23  12  -2 -271.07  192.28
  11 -23  -2  136.29  144.99
  23 -12   2  190.28  136.59
  23 -12   2  326.97  168.58
 -23  15  -2  413.26  229.48
   8 -23  -2  419.96  166.48
 -23  15  -2  483.05  199.88
  23 -15   2  313.77  167.38
  23 -15   2  -71.49  165.88
   5 -23  -2  541.95  180.58
 -23  18  -2  231.58  227.68
  18   5  -2  177.98  134.39
 -23  18  -2   93.09  226.98
  23 -18   2  115.89  182.68
  23 -18   2  142.89  182.98
  19 -24  -2  133.99  177.48
  19 -24  -2   65.09  168.58
  24  -5   2  154.78  124.49
 -19  24   2  -32.40  355.76
  -5 -19   2    4.60  155.88
 -24   8  -2  312.07  280.27
  16 -24  -2  -39.20  179.38
  16 -24  -2 -173.08  134.09
 -16  24   2  -25.00  362.96
  24  -8   2  -17.20  118.39
 -24  11  -2  164.38  232.08
  13 -24  -2 -178.28  140.59
  24 -11   2 -172.28  224.58
  24 -11   2   -8.20  124.49
 -24  14  -2   39.60  192.08
 -24  14  -2  270.87  201.48
  10 -24  -2  203.88  155.18
  24 -14   2  169.38  180.28
  24 -14   2 -205.08  156.78
   7 -24  -2  276.57  192.18
 -24  17  -2   -2.40  194.58
 -24  17  -2  255.47  232.48
  24 -17   2  196.48  182.48
  24 -17   2  277.57  180.68
  15 -25  -2  -62.39  147.79
 -25  10  -2 -120.29  274.87
  25 -10   2  117.19  143.39
  12 -25  -2  227.98  161.28
 -25  13  -2  -57.99  216.98
 -25  13  -2   92.69  190.48
  25 -13   2  339.77  227.38
  25 -13   2  -38.70  152.08
 -25  16  -2   -3.60  197.48
   9 -25  -2  419.26  180.68
 -25  16  -2  583.24  235.98
  25 -16   2  358.56  188.18
   1   1  -3  -61.69   43.70
  -2   1  -3  -10.10   30.60
   1  -2  -3   21.00   37.40
   4  -2  -3 1099.19   95.89
  -2   4  -3 1124.59   94.19
  -4   2   3 1093.69   99.39
   2   2   3  960.80   94.59
   2   2   3 1262.47   96.39
   0   3  -3   33.50   39.10
   3  -3  -3  -18.20   29.60
  -3   0  -3  -24.70   33.40
  -3   3   3  -40.70   34.90
   3   0   3  -33.40   31.60
   3   0   3  -20.60   40.20
   0  -3  -3   12.30   39.40
  -3   3  -3    2.10   32.70
   3   0  -3  -27.90   33.10
   3   0  -3   -1.30   27.70
   0   3   3   50.39   30.20
  -3   0   3   38.50   39.00
  -3   6  -3 4343.07  339.07
   6  -3  -3 3876.31  338.67
   6  -3  -3 4298.07  342.07
  -6   3   3 4780.22  343.17
   3   3   3 4694.33  340.37
   3   3   3 4261.17  338.47
   5  -4  -3  644.04   98.39
  -1   5  -3  744.63   80.29
   5  -4  -3  760.22   78.29
   4   1   3  730.93   78.19
  -5   4   3  798.92   84.49
   4   1   3  615.44   71.19
   2   2  -3 1095.49   97.89
   2  -4  -3 1117.19   92.29
   2  -4  -3 1074.99   97.89
   4  -2   3  920.71   94.69
  -2   4   3 1113.39   97.99
  -4   5  -3 2967.20  240.68
  -4   5  -3 2909.61  228.08
   5  -1  -3 2982.10  230.88
   5  -1  -3 2719.03  225.68
   1   4   3 2440.16  243.08
  -5   1   3 3283.57  231.38
   1   4   3 2895.41  225.58
  -4   8  -3 2560.54  209.58
   8  -4  -3 2177.08  194.78
  -4   8  -3 2404.96  196.38
   4   4   3 2550.04  196.58
   4   4   3 2274.97  193.08
  -8   4   3 2650.33  204.38
   7  -5  -3  -89.59   50.99
  -2   7  -3   48.40   51.69
   7  -5  -3  -91.99   67.09
   5   2   3  115.09   49.00
  -7   5   3  132.09   68.49
   5   2   3   94.19   38.30
   1   4  -3  635.54   82.59
   4  -5  -3  847.52   75.09
  -5   1  -3  563.54   96.99
   4  -5  -3  730.93   83.59
   5  -1   3  622.24   87.19
  -4   5   3  679.23   81.79
   1  -5  -3 3399.06  259.27
   4   1  -3 3575.44  258.57
  -5   4  -3 2911.71  271.57
   1  -5  -3 3210.58  257.97
   5  -4   3 3483.75  259.57
  -4  -1   3 3196.78  260.27
  -1   5   3 3327.67  261.27
  -1   5   3 3313.07  257.77
  -5   7  -3  742.33  110.99
  -5   7  -3  623.64   84.39
  -7   2   3  929.71   98.29
  -5  10  -3 2045.20  175.58
  -5  10  -3 2191.28  193.08
  10  -5  -3 2043.70  188.38
  10  -5  -3 2216.08  173.28
   5   5   3 2123.69  169.08
 -10   5   3 2094.09  189.88
   5   5   3 1959.20  180.68
   9  -6  -3  368.06   62.29
   9  -6  -3  437.66   90.19
   6   3   3  245.78   49.80
   6   3   3  306.27   55.49
  -9   6   3  440.66  102.69
   6  -6  -3    2.40   81.39
   0   6  -3  -23.20   55.39
   6  -6  -3   31.20   44.90
   6   0   3  101.09   64.19
  -6   6   3  -51.89   65.89
   3  -6  -3 4748.82  340.77
   3   3  -3 3777.12  339.47
   3  -6  -3 4302.47  338.57
  -6   3  -3 4122.09  350.76
  -3   6   3 4678.33  342.87
   6  -3   3 4141.89  340.27
   6  -3   3 4750.52  340.87
  -6   6  -3    7.70   51.79
   0  -6  -3   25.90   49.90
   6   0  -3  156.68   55.79
  -6   6  -3  -71.49   79.69
   6   0  -3    7.60   50.19
   0   6   3   55.79   40.80
  -6   0   3   28.20   56.19
   6  -6   3  -37.30   52.19
  -6   9  -3 1562.34  138.19
   9  -3  -3 1547.35  134.69
  -6   9  -3 1582.44  156.08
  -9   3   3 1573.24  152.28
   3   6   3 1502.95  128.99
  -6  12  -3 1552.14  165.18
  12  -6  -3 1927.41  160.08
  12  -6  -3 2039.10  182.68
  -6  12  -3 2028.90  187.98
 -12   6   3 1931.81  187.18
   6   6   3 1824.22  152.98
  11  -7  -3 2174.28  194.68
  -4  11  -3 1941.91  178.98
  11  -7  -3 2382.56  178.58
 -11   7   3 2229.18  198.48
   7   4   3 1903.91  180.48
   7   4   3 2185.98  174.28
  -1   8  -3  -26.30   56.29
   8  -7  -3   14.40   60.19
   8  -7  -3  -31.10   50.79
   7   1   3  -10.00   52.29
  -8   7   3  -62.59   69.99
   7   1   3  -30.50   45.60
   2   5  -3   77.39   45.50
   5  -7  -3   -4.40   59.79
   5  -7  -3   32.30   49.00
   7  -2   3   28.50   64.79
  -5   7   3 -100.99   65.19
   7  -2   3   38.80   50.59
   2  -7  -3 1266.27  108.69
   2  -7  -3 1111.79  110.79
   7  -5   3 1124.49  112.79
  -7   8  -3  130.29   85.09
   8  -1  -3  105.79   53.99
  -7   8  -3  142.29   55.99
  -8   1   3   -5.70   68.29
   7  -8   3  186.88   62.19
   1   7   3   18.90   41.60
  11  -4  -3 1882.91  200.88
  -7  11  -3 2101.59  176.68
  11  -4  -3 2146.29  175.48
  -7  11  -3 2194.48  201.38
 -11   4   3 2197.78  199.68
   7 -11   3 1672.13  185.28
   4   7   3 2351.46  170.38
  14  -7  -3 1741.33  232.08
  14  -7  -3 1354.76  128.39
  -7  14  -3 1164.78  165.88
 -14   7   3 1177.88  173.38
   7   7   3 1391.16  119.09
   7 -14   3 1155.38  132.69
  13  -8  -3 3137.29  245.98
  13  -8  -3 2912.61  256.47
 -13   8   3 2942.21  267.47
   8   5   3 3050.29  241.58
  10  -8  -3 1281.77  139.39
  -2  10  -3 1344.77  132.89
  10  -8  -3 1592.64  127.29
 -10   8   3 1423.06  148.89
   8   2   3 1179.78  126.19
   8   2   3 1451.05  122.49
   7  -8  -3   25.30   60.19
  -8   1  -3  -46.90  104.99
   7  -8  -3   63.49   46.90
   1   7  -3   -1.50   49.90
   8  -1   3   25.50   63.59
   8  -1   3   33.70   47.50
  -7   8   3   55.49   69.79
   4   4  -3 2512.05  209.18
   4  -8  -3 2574.84  206.78
   4  -8  -3 2504.95  203.98
  -8   4  -3 2541.55  223.18
   8  -4   3 2460.35  207.08
   8  -4   3 2576.24  208.18
  -4   8   3 2625.24  213.28
  -8   7  -3   36.40   78.69
  -8   7  -3  133.19   60.79
   1  -8  -3   29.70   47.30
   7   1  -3  120.59   50.09
   1  -8  -3  105.79   53.59
   8  -7   3  100.09   63.39
  -1   8   3   49.50   42.10
   8  -7   3  112.39   60.69
  -7  -1   3  -41.10   66.29
  -8  10  -3   69.69   65.89
  -8  10  -3    7.40  110.29
  10  -2  -3  225.58   61.29
   2   8   3   81.39   43.10
 -10   2   3   99.39   96.59
   8 -10   3   -0.30   73.69
   8 -10   3  209.48   68.09
  13  -5  -3 1046.50  179.98
  13  -5  -3 1696.63  141.99
  -8  13  -3 1303.87  150.38
  -8  13  -3 1325.77  180.08
   8 -13   3 1679.83  149.49
   5   8   3 1782.12  132.39
 -13   5   3 1431.66  178.28
  16  -8  -3  -40.90   72.59
  16  -8  -3  163.48  138.69
   8   8   3   55.49   58.59
   8 -16   3   51.39   90.19
 -16   8   3  158.98  148.69
  15  -9  -3 1199.08  168.18
  15  -9  -3 1603.94  144.39
 -15   9   3 1077.29  179.68
   9   6   3 1736.53  134.09
  12  -9  -3 1237.28  125.89
  -3  12  -3 1125.79  126.09
   9   3   3  966.90  118.89
 -12   9   3 1332.67  149.59
   9   3   3 1057.49  107.59
   9  -9  -3  -26.00  149.99
   9  -9  -3  110.89   78.09
   0   9  -3  102.89   59.99
  -9   0  -3  124.69  115.49
   9   0   3   18.50   69.59
  -9   9   3   25.20   85.99
   9   0   3   93.39   57.29
  -9   3  -3  413.86  107.99
   3   6  -3  297.37   65.59
   6  -9  -3  358.86   60.39
   6  -9  -3  214.18   66.09
  -6   9   3  402.36   80.49
   9  -3   3  503.25   83.19
   9  -3   3  238.08   59.89
   3  -9  -3 1562.94  132.69
   3  -9  -3 1527.05  133.09
   6   3  -3 1447.76  124.49
   6   3  -3 1416.06  139.29
   9  -6   3 1254.17  134.39
   9  -6   3 1746.83  138.09
   0  -9  -3  -22.20   60.39
   9   0  -3  -63.89   55.79
  -9   9  -3   47.90   92.19
  -9   9  -3  -30.70   66.09
   9  -9   3   11.00   62.39
   9  -9   3   29.30   62.99
  -9   0   3  102.09   90.39
   0   9   3   59.09   41.20
  -9  12  -3  280.07  123.49
  12  -3  -3   45.90  111.09
  12  -3  -3  169.38   71.49
  -9  12  -3  207.28   84.79
   9 -12   3  366.66   79.79
   3   9   3  228.38   53.09
   9 -12   3   -5.60   77.29
 -12   3   3  200.78  118.09
  15  -6  -3   41.50   71.29
  -9  15  -3   89.19  139.99
  -9  15  -3 -142.29   90.29
  15  -6  -3  -75.19  139.99
 -15   6   3  269.37  145.49
   9 -15   3   43.40   84.59
   6   9   3   10.80   58.29
  18  -9  -3  832.62  122.89
 -18   9   3  956.30  196.68
   9 -18   3  834.12  135.29
   9   9   3  735.23  102.39
  17 -10  -3   36.10  126.99
  17 -10  -3   52.69   79.19
 -17  10   3  284.47  160.48
   7 -17   3   53.59  101.59
  10   7   3  145.59   62.39
  14 -10  -3  814.42  140.59
  14 -10  -3 1342.87  124.09
  10   4   3 1128.29  113.09
 -14  10   3 1105.39  165.28
  -1  11  -3   28.30   79.89
  11 -10  -3    8.40   56.89
  11 -10  -3   49.10   85.79
  10   1   3   24.50   58.99
 -11  10   3  153.18  103.99
  10   1   3  -56.39   68.29
   8 -10  -3 1333.07  127.99
 -10   2  -3 1693.63  281.17
   2   8  -3 1323.47  130.79
  10  -2   3 1290.47  122.79
  -8  10   3 1381.76  151.98
  10  -2   3 1331.97  135.89
 -10   5  -3 2396.26  211.08
   5   5  -3 2113.49  193.38
   5 -10  -3 2197.28  186.98
   5 -10  -3 2356.56  187.38
  10  -5   3 2119.99  188.48
  -5  10   3 2325.57  202.48
 -10   8  -3  -24.20  132.69
   2 -10  -3  102.99   59.19
   2 -10  -3   75.49   60.79
 -10   8  -3   47.60   92.59
  -2  10   3  106.09   48.80
  10  -8   3   51.39   66.19
  10  -8   3   20.30   69.99
 -10  11  -3 -105.79  112.69
  11  -1  -3  -75.89   60.69
 -10  11  -3  -55.69   88.89
   1  10   3  -20.40   45.80
 -11   1   3  -53.69  119.19
  10 -11   3  -99.89   68.99
  10 -11   3  -99.79   70.59
 -10  14  -3  235.78  142.69
  14  -4  -3  152.18  175.08
 -10  14  -3  214.88  102.29
  14  -4  -3  284.87   77.89
   4  10   3  140.89   58.59
 -14   4   3  425.26  139.49
  10 -14   3   76.29   97.49
  10 -14   3  380.86   89.59
  17  -7  -3 1151.08  231.88
  17  -7  -3 1411.46  151.28
 -10  17  -3 1460.55  210.58
   7  10   3 1309.37  130.19
 -17   7   3 1489.75  211.68
  10 -17   3 1193.38  148.49
  20 -10  -3 1328.47  169.78
  10  10   3 1315.47  179.98
  10 -20   3 1446.06  173.18
  19 -11  -3  483.15  161.48
  11   8   3  631.24  102.99
   8 -19   3  954.00  167.18
 -19  11   3  522.85  230.58
  16 -11  -3  110.79   77.19
  16 -11  -3  122.89  105.69
  11   5   3   12.70   56.39
 -16  11   3   31.40  148.39
  -2  13  -3  287.57   96.59
  13 -11  -3  208.38   70.19
  13 -11  -3  237.48   98.09
  11   2   3   89.59   74.69
  11   2   3  395.36   69.69
 -13  11   3  520.25  126.59
  10 -11  -3   84.99   64.19
 -11   1  -3  -36.10  129.29
  10 -11  -3   83.79   63.39
   1  10  -3   71.09   76.79
  11  -1   3  198.08   95.39
  11  -1   3  133.89   61.99
 -10  11   3  204.08  109.29
   7 -11  -3 1949.30  196.78
 -11   4  -3 2470.15  224.18
   4   7  -3 2268.97  200.98
  11  -4   3 2494.85  194.08
  11  -4   3 2490.75  201.78
   7   4  -3 2221.68  178.78
   4 -11  -3 2370.06  189.18
   4 -11  -3 2149.58  188.48
 -11   7  -3 2060.79  211.78
  11  -7   3 2155.38  188.48
  11  -7   3 2332.97  189.18
   1 -11  -3  -68.59   68.89
 -11  10  -3  -41.80  110.69
 -11  10  -3   28.30   77.19
  10   1  -3    6.90   53.29
   1 -11  -3   52.39   78.29
  11 -10   3  -25.30   77.89
  11 -10   3    2.20   72.89
  -1  11   3   49.70   48.60
  13  -2  -3  623.14   94.19
 -11  13  -3  632.14  149.19
 -13   2   3  599.74  147.79
   2  11   3  509.25   78.09
  16  -5  -3  604.14  110.79
 -11  16  -3 1016.20  175.08
  11 -16   3  850.71  119.19
 -16   5   3  998.50  177.58
   5  11   3  717.63   96.69
 -11  19  -3 1447.26  276.57
   8  11   3 2282.57  184.68
 -19   8   3 2021.60  287.47
  22 -11  -3  641.54  130.29
 -22  11   3  221.28  208.08
  11 -22   3  448.66  133.89
  11  11   3  754.12  114.59
  21 -12  -3  505.35  113.49
  21 -12  -3   91.79  242.58
   9 -21   3  539.75  131.99
 -21  12   3  234.78  192.28
  12   9   3  389.96  100.59
  18 -12  -3    5.30  124.09
  18 -12  -3  134.19   83.59
   6 -18   3   48.80  107.29
  12   6   3   85.99   66.49
 -18  12   3  165.78  181.38
  15 -12  -3  299.07   78.29
  15 -12  -3  142.29   99.39
 -15  12   3  225.48  149.39
  12   3   3  369.16   70.99
  12 -12  -3  167.48   74.79
   0  12  -3   91.29   95.99
 -12   0  -3 -129.19  132.69
  12 -12  -3   71.19   65.49
 -12  12   3  140.59  127.69
  12   0   3   64.89  112.79
  12   0   3   81.29   67.49
   9 -12  -3 1332.47  137.79
   3   9  -3 1567.44  158.58
   9 -12  -3 1342.47  132.79
 -12   3  -3 1354.06  189.78
  12  -3   3 1410.56  129.49
  12  -3   3 1284.47  143.99
  -9  12   3 1410.36  171.18
   6 -12  -3 1932.21  173.48
 -12   6  -3 2136.19  208.48
   6 -12  -3 1591.34  203.38
  12  -6   3 1960.30  173.88
  -6  12   3 2073.69  202.88
  12  -6   3 2086.89  178.48
   3 -12  -3  254.07   76.69
 -12   9  -3   66.59  119.49
 -12   9  -3  306.37   94.29
   9   3  -3  285.47   57.99
  12  -9   3  197.68   87.89
  12  -9   3  321.57   85.69
   0 -12  -3   97.69   85.59
  12   0  -3   95.29   58.29
   0 -12  -3   27.00   73.99
 -12  12  -3   89.99   90.59
  12 -12   3   31.60   79.89
 -12   0   3  -26.30  142.19
  15  -3  -3  132.59   73.69
 -12  15  -3  232.88  167.68
 -12  15  -3   34.90  122.69
   3  12   3  164.98   64.09
 -15   3   3  101.39  161.88
  12 -15   3  116.29   86.89
  12 -15   3   20.10   96.39
  18  -6  -3 2144.29  203.78
 -12  18  -3 2108.89  264.87
  12 -18   3 2335.87  202.98
   6  12   3 2357.86  194.28
 -18   6   3 1756.92  281.37
  21  -9  -3 1534.95  172.48
 -21   9   3 1127.29  244.08
   9  12   3 1710.23  163.38
  12 -21   3 1289.87  175.58
  24 -12  -3   75.09  127.29
 -24  12   3 -181.18  243.68
  12 -24   3  116.99  135.79
  12  12   3  215.18  125.89
  23 -13  -3   79.79  133.99
 -23  13   3   15.30  209.38
  10 -23   3   12.30  141.49
  13  10   3  225.38  118.29
  20 -13  -3  110.59  147.89
  20 -13  -3  -23.50   99.99
 -20  13   3   38.90  185.08
  13   7   3  307.17   83.99
   7 -20   3  235.48  136.49
  17 -13  -3  375.16   89.99
  17 -13  -3  521.25  119.79
  13   4   3  297.77   80.99
 -17  13   3  322.07  169.18
  14 -13  -3  701.73  106.99
  14 -13  -3  651.63  111.29
 -14  13   3  586.34  156.28
  13   1   3  659.83   95.29
 -13   2  -3  377.56  147.59
  11 -13  -3  334.07   76.29
 -11  13   3  459.95  140.29
  13  -2   3  148.79   98.69
  13  -2   3  380.16   74.49
   8 -13  -3 2581.54  245.68
   8 -13  -3 3001.70  244.08
 -13   5  -3 3141.69  278.47
  -8  13   3 2614.64  268.37
  13  -5   3 3128.59  243.18
  13  -5   3 3262.37  251.37
   5 -13  -3 1533.35  147.39
   8   5  -3 1490.55  130.39
 -13   8  -3 1559.64  190.68
   5 -13  -3 1600.44  146.09
  13  -8   3 1483.75  153.58
  13  -8   3 1523.25  147.89
  11   2  -3  554.94   81.99
   2 -13  -3  411.46   93.79
 -13  11  -3  556.74  150.68
  13 -11   3  686.13  113.99
 -13  14  -3  -30.40  107.49
  -1 -13  -3   79.89   97.49
 -13  14  -3  108.89  166.18
  -1 -13  -3   22.00   92.99
  14  -1  -3  -37.90   63.29
  13 -14   3  153.28   98.29
  13 -14   3  -18.90   86.99
 -14   1   3    4.10  160.68
   1  13   3   96.09   62.59
  17  -4  -3  824.82  114.69
 -13  17  -3  639.74  194.98
  13 -17   3  962.50  126.19
   4  13   3  696.23  107.59
 -17   4   3  907.41  201.18
 -13  20  -3 1629.34  283.97
  20  -7  -3 1652.73  167.18
 -20   7   3 1050.49  253.07
  13 -20   3 1686.03  173.08
   7  13   3 1727.43  223.78
  23 -10  -3   45.80  107.29
  13 -23   3  252.37  114.29
  10  13   3  545.45  122.19
 -23  10   3  447.56  250.17
  25 -14  -3  -58.49  146.79
  11 -25   3  107.29  158.88
 -25  14   3 -193.58  251.97
  14  11   3 -138.59  133.89
  22 -14  -3  185.68  121.99
  22 -14  -3  211.58  199.28
  14   8   3  154.78  100.59
 -22  14   3  302.27  194.48
   8 -22   3  161.38  159.68
  19 -14  -3  192.88  132.49
  19 -14  -3  -30.60   99.59
   5 -19   3  -37.00  142.39
  14   5   3   85.79   68.89
 -19  14   3  179.58  172.48
  16 -14  -3  534.05   95.79
 -16  14   3  272.87  178.08
  14   2   3  615.24   96.29
 -14   1  -3  251.67  156.78
  13 -14  -3  687.53  105.39
  13 -14  -3  670.13  108.09
 -13  14   3  574.14  160.38
  14  -1   3  546.55   93.59
  10 -14  -3 1048.80  123.49
  10 -14  -3  938.61  131.29
 -14   4  -3 1325.77  189.98
  14  -4   3 1218.78  138.49
  14  -4   3 1208.28  121.09
 -10  14   3 1351.66  181.28
   7 -14  -3 1257.77  138.39
   7 -14  -3 1143.99  137.19
 -14   7  -3 1037.70  190.28
  14  -7   3 1453.05  131.79
  14  -7   3 1240.18  139.19
  -7  14   3 1107.49  182.78
 -14  10  -3  360.26  153.48
   4 -14  -3  193.38   82.79
 -14  10  -3  219.08  109.39
   4 -14  -3  290.47   82.99
  10   4  -3  132.09   57.99
  14 -10   3  244.98   83.29
  14 -10   3  370.06   93.49
   1 -14  -3   80.59   97.19
  13   1  -3   50.59   70.99
   1 -14  -3    8.50   93.09
 -14  13  -3 -160.68  163.58
 -14  13  -3   99.19  103.89
  14 -13   3  109.99  106.49
  14 -13   3   57.59   91.39
  16  -2  -3  240.18   74.49
 -14  16  -3  177.58  140.39
  -2 -14  -3  371.66  119.99
  -2 -14  -3  177.78   99.79
 -14  16  -3  537.45  200.18
  14 -16   3  410.06  104.99
  14 -16   3  155.48  114.29
 -16   2   3  157.48  172.38
 -14  19  -3  842.82  223.38
  19  -5  -3  825.32  118.39
 -19   5   3  636.64  228.88
  14 -19   3  730.23  135.19
   5  14   3 1094.99  130.89
  22  -8  -3  366.46   99.29
 -22   8   3  685.33  252.47
  14 -22   3  389.56  118.19
  25 -11  -3   70.59  110.79
 -25  11   3  476.45  342.67
  14 -25   3  -46.20  131.59
  24 -15  -3   43.50  143.89
  15   9   3 -124.99  131.99
   9 -24   3  194.28  162.78
 -24  15   3   50.59  223.48
  21 -15  -3  -17.70  107.19
  21 -15  -3  -45.10  159.18
  15   6   3  -72.29   88.59
   6 -21   3 -127.59  148.19
 -21  15   3  138.29  187.58
  18 -15  -3   93.09   93.49
  18 -15  -3  227.98  130.09
  15   3   3  251.37  119.39
   3 -18   3   78.59  164.88
 -18  15   3   27.70  175.18
  15 -15  -3   -8.80   79.79
  15 -15  -3  183.28   96.39
  15   0   3  242.48  226.58
 -15  15   3  -99.89  169.18
  15   0   3   81.09   77.79
 -15   3  -3   90.89  157.88
  12 -15  -3   73.89   81.89
  12 -15  -3  195.08   81.69
  15  -3   3  413.86  115.49
  15  -3   3  294.77   73.99
 -12  15   3  562.04  169.68
   9 -15  -3 1592.34  156.88
 -15   6  -3 1385.76  211.68
  -9  15   3 1265.67  205.58
  15  -6   3 1581.14  147.99
  15  -6   3 1524.25  161.38
 -15   9  -3   33.00  158.38
   6 -15  -3  -29.80   83.99
   6 -15  -3  201.98   90.79
  15  -9   3  168.28  103.99
  15  -9   3   28.90   80.19
 -15  12  -3  336.07  168.78
   3 -15  -3  238.28  101.29
   3 -15  -3  168.78   96.69
 -15  12  -3  118.59  105.99
  12   3  -3  308.57   73.99
  15 -12   3  339.57   97.69
  15 -12   3  225.58  103.09
   0 -15  -3   -2.80  108.29
  15   0  -3  175.68   77.29
 -15  15  -3  296.57  121.79
   0 -15  -3  177.38  119.59
 -15  15  -3  262.87  188.78
  15 -15   3  277.97  125.69
 -15   0   3  181.38  164.88
  15 -15   3   65.79  103.69
 -15  18  -3  162.28  196.48
  -3 -15  -3  223.88  149.39
  -3 -15  -3  181.88  128.99
 -18   3   3  113.99  204.08
  15 -18   3  210.48  104.89
  15 -18   3 -134.69  148.09
  21  -6  -3  147.19   89.19
  -6 -15  -3  323.47  140.49
 -15  21  -3   21.70  269.87
  15 -21   3  341.27  109.89
 -21   6   3  234.18  250.37
  -9 -15  -3 -210.18  165.68
  24  -9  -3  195.88  107.69
  15 -24   3  115.89  121.79
 -24   9   3  446.26  311.67
  23 -16  -3  586.44  187.58
  23 -16  -3  -20.90  136.19
  16   7   3  223.88  117.69
   7 -23   3   69.49  178.18
  20 -16  -3  131.99  109.99
  20 -16  -3  192.88  143.49
  16   4   3   24.40   76.99
 -20  16   3 -206.58  187.98
   4 -20   3  156.78  136.29
  17 -16  -3  117.89   94.89
  17 -16  -3  -40.30  113.29
   1 -17   3  169.58  119.69
 -16   2  -3   85.09  160.58
  14 -16  -3  284.17   86.49
  14 -16  -3  151.68   95.49
  16  -2   3  614.94  138.69
  16  -2   3  385.56   82.49
 -14  16   3  414.76  178.88
  11 -16  -3 -138.99   91.29
  11 -16  -3    8.30   79.69
 -16   5  -3  188.18  171.28
 -11  16   3  -43.80  181.18
  16  -5   3  157.58  104.69
  16  -5   3  114.19   72.39
   8 -16  -3  -74.89   81.99
   8 -16  -3   98.29   97.39
 -16   8  -3   64.29  170.58
  -8  16   3   78.79  144.99
  16  -8   3  -13.40  103.79
  16  -8   3  -49.40   79.89
   5 -16  -3  833.62  134.49
   5 -16  -3  835.32  115.39
 -16  11  -3  884.41  189.28
  11   5  -3  702.13   95.49
  16 -11   3  838.42  127.39
  16 -11   3  736.83  129.69
 -16  14  -3  457.45  195.28
 -16  14  -3  205.88  124.29
   2 -16  -3  253.47  113.69
   2 -16  -3  276.87  123.29
  14   2  -3  576.14   93.49
  16 -14   3  459.05  122.09
  16 -14   3  483.05  120.89
  -1 -16  -3  154.08  148.89
 -16  17  -3  161.38  226.88
  17  -1  -3  219.98   90.59
  -1 -16  -3  110.79  142.49
 -16  17  -3  204.08  159.98
  16 -17   3  -26.20  123.79
  16 -17   3  205.88  146.69
 -17   1   3  261.47  201.88
  -4 -16  -3  176.48  137.79
  -4 -16  -3   37.10  187.18
 -16  20  -3 -228.38  219.68
  20  -4  -3  -46.70   74.79
  16 -20   3  107.49  106.19
 -20   4   3  142.29  260.17
  -7 -16  -3 -246.08  242.38
  -7 -16  -3 -174.48  163.98
  23  -7  -3  111.99   91.59
 -23   7   3 -262.27  314.17
  16 -23   3 -179.98  118.39
  22 -17  -3 -109.59  156.28
  22 -17  -3  -71.79  114.39
  17   5   3 -148.99   95.49
 -22  17   3  328.07  197.98
   5 -22   3  -87.49  158.48
  19 -17  -3 -101.49  137.29
  19 -17  -3   -1.10  102.29
   2 -19   3  -35.50  143.29
 -19  17   3  134.69  196.48
  17   2   3   75.79   88.09
  16 -17  -3 -112.39  111.19
  16 -17  -3   -3.50   94.79
  17  -1   3  133.59  147.69
 -16  17   3 -148.49  190.48
 -17   4  -3   36.20  166.58
  17  -4   3  483.55  135.09
  17  -4   3  364.06   90.79
 -13  17   3  390.96  176.68
  10 -17  -3  180.28   87.19
  10 -17  -3   67.89   96.79
 -17   7  -3  254.97  191.88
  17  -7   3  174.98   85.39
  17  -7   3   33.20  104.59
 -10  17   3  334.67  160.88
   7 -17  -3 1173.68  153.58
   7 -17  -3 1197.88  163.58
 -17  10  -3 1294.37  218.08
  17 -10   3 1475.25  156.68
  17 -10   3 1214.88  158.48
 -17  13  -3 1094.69  213.08
   4 -17  -3 1074.09  141.09
   4 -17  -3  927.91  160.08
  13   4  -3  697.43  113.09
  17 -13   3 1019.90  139.19
  17 -13   3 1141.69  142.29
  16   1  -3  272.07   91.29
   1 -17  -3   26.10  167.18
   1 -17  -3  271.57  148.29
 -17  16  -3  288.77  140.59
 -17  16  -3 -203.78  359.06
  17 -16   3  260.37  135.39
  -2 -17  -3  -23.00  137.99
 -17  19  -3   10.40  210.48
  -2 -17  -3 -221.58  196.08
  19  -2  -3   34.10   89.99
 -19   2   3  407.36  263.57
  17 -19   3  206.98  176.48
  17 -19   3  -15.00  114.39
 -17  22  -3  -31.00  300.77
  -5 -17  -3   67.59  298.37
  -5 -17  -3   65.19  156.98
  22  -5  -3  -47.70  104.89
  17 -22   3   25.20  114.89
 -22   5   3  152.08  323.87
  24 -18  -3  123.39  159.28
  24 -18  -3  731.93  253.37
   6 -24   3  414.76  206.68
 -24  18   3  209.68  240.08
  18   6   3  264.17  139.19
  21 -18  -3   -8.80  147.19
  21 -18  -3   55.99  128.39
 -21  18   3   98.39  202.18
   3 -21   3 -110.39  150.48
  18   3   3  120.09   88.49
  18 -18  -3   67.79  109.39
  18 -18  -3   98.29  134.19
   0 -18   3 -106.99  125.39
 -18  18   3 -190.68  207.08
  18   0   3  -39.40   89.39
  15 -18  -3   53.69   96.69
 -18   3  -3   -4.30  183.98
  15 -18  -3  184.18  134.89
 -15  18   3   36.00  205.98
  18  -3   3  143.59  152.78
  18  -3   3  145.59   88.19
  12 -18  -3  116.79  105.29
 -18   6  -3   13.90  179.48
  12 -18  -3  175.98   97.69
 -12  18   3   -4.10  178.78
  18  -6   3   48.00   79.89
  18  -6   3  331.87  128.39
   9 -18  -3  622.94  132.69
 -18   9  -3 1090.39  217.38
   9 -18  -3  858.71  141.69
  18  -9   3  833.62  131.69
  -9  18   3  834.02  201.88
  18  -9   3 1036.90  136.39
 -18  12  -3 1866.91  229.68
   6 -18  -3 2104.59  212.48
   6 -18  -3 2264.67  224.78
 -18  12  -3 2098.39  256.47
  18 -12   3 2069.19  218.98
  18 -12   3 2240.38  215.98
 -18  15  -3  253.27  219.18
   3 -18  -3  198.78  148.69
  15   3  -3   60.79   88.49
 -18  15  -3  156.98  148.19
   3 -18  -3  129.59  114.59
  18 -15   3  313.77  132.19
  18 -15   3  149.69  252.07
   0 -18  -3  136.99  135.89
   0 -18  -3  320.87  187.18
 -18  18  -3  109.59  211.18
  18   0  -3   65.99   98.29
 -18  18  -3   73.29  190.08
  18 -18   3  -46.00  155.38
  18 -18   3  -27.20  126.19
  -3 -18  -3  -95.19  160.18
  21  -3  -3   90.79  108.29
 -18  21  -3   59.39  261.47
  18 -21   3   97.09  132.59
 -21   3   3  -43.00  305.07
  -6 -18  -3  402.86  186.68
  24  -6  -3  285.07  119.89
 -24   6   3  -55.69  385.56
  18 -24   3  196.18  152.08
  23 -19  -3  164.68  151.08
  23 -19  -3 -176.18  173.18
 -23  19   3  221.98  236.38
  19   4   3  220.58  113.49
   4 -23   3  267.77  185.98
  20 -19  -3  -90.69  127.29
  20 -19  -3 -130.89  147.09
   1 -20   3   77.09  166.78
 -20  19   3   35.60  213.88
  19   1   3   13.30   97.39
  17 -19  -3  -68.99  112.39
  17 -19  -3  -63.09  123.79
  19  -2   3  -74.69   89.49
 -17  19   3 -221.98  218.18
  14 -19  -3   44.70   99.79
 -19   5  -3  221.38  200.38
  14 -19  -3  287.87  111.39
 -14  19   3   46.70  219.28
  19  -5   3  151.68   93.79
  19  -5   3  -49.20  169.08
  11 -19  -3  558.84  112.89
 -19   8  -3  550.64  239.08
 -11  19   3  435.36  213.08
  19  -8   3  423.66  136.69
  19  -8   3  590.14  104.79
   8 -19  -3 1885.31  219.38
 -19  11  -3 2047.40  244.08
 -19  11  -3 2355.16  354.56
   8 -19  -3 1702.03  240.98
  19 -11   3 2061.99  210.48
  19 -11   3 1942.51  210.18
  14   5  -3  818.82  116.59
   5 -19  -3  817.32  162.38
 -19  14  -3  429.56  162.88
   5 -19  -3  753.92  140.29
 -19  14  -3  639.54  215.68
  19 -14   3 1020.80  156.58
  19 -14   3 1089.29  181.58
 -19  17  -3 -234.98  209.18
  17   2  -3   -5.80   97.99
   2 -19  -3   54.39  190.98
 -19  17  -3  245.68  168.88
   2 -19  -3  -87.99  124.49
  19 -17   3  202.68  131.89
  19 -17   3  344.27  152.38
 -19  20  -3  241.28  228.08
  -1 -19  -3  160.58  157.38
  20  -1  -3   -9.20  110.99
  19 -20   3  -41.40  193.88
  19 -20   3  -26.40  141.29
  23  -4  -3   78.49  117.79
  -4 -19  -3   -7.10  180.58
 -19  23  -3  409.26  346.87
  19 -23   3  160.08  151.98
 -23   4   3 1069.49  390.66
  22 -20  -3  -31.60  164.28
  22 -20  -3  389.66  145.19
 -22  20   3  -84.39  242.98
   2 -22   3  292.47  179.38
  20   2   3  235.08  102.69
  19 -20  -3   91.69  155.28
  19 -20  -3   59.29  124.99
  -1 -19   3 -193.38  155.58
  20  -1   3   74.99  105.89
 -19  20   3   82.69  231.58
  16 -20  -3  167.48  117.19
  16 -20  -3  194.18  121.39
  20  -4   3   79.19   97.99
 -16  20   3   86.59  227.88
 -20   7  -3  120.99  202.38
  13 -20  -3  -19.90  117.79
  13 -20  -3   39.00  107.29
 -13  20   3  128.69  238.78
  20  -7   3  222.78   89.49
  20  -7   3  168.18  162.18
  10 -20  -3 1153.08  180.28
 -20  10  -3  935.41  233.78
  20 -10   3 1236.38  170.68
  20 -10   3  910.41  166.68
 -20  13  -3 1195.28  221.78
   7 -20  -3 1943.11  227.98
   7 -20  -3 1435.26  188.88
 -20  13  -3 1582.14  245.28
  20 -13   3 2100.79  313.87
  20 -13   3 1285.87  196.88
   4 -20  -3   72.79  182.58
 -20  16  -3   28.70  174.68
   4 -20  -3   -9.10  125.39
  16   4  -3  162.28  103.89
 -20  16  -3  193.38  208.08
  20 -16   3    0.20  136.29
  20 -16   3 -116.19  165.78
  19   1  -3  143.29  113.19
 -20  19  -3 -174.68  205.68
   1 -20  -3   87.09  150.18
  20 -19   3  132.69  141.49
  20 -19   3 -142.59  171.08
  22  -2  -3  -33.70  134.29
  -2 -20  -3  122.99  181.68
 -20  22  -3 -150.98  293.37
  20 -22   3 -270.27  150.78
  21 -21  -3  148.69  170.38
  21 -21  -3  539.75  161.58
   0 -21   3  407.46  193.68
 -21  21   3  -18.30  271.07
  21   0   3   89.59  112.99
  18 -21  -3   51.39  120.79
  18 -21  -3 -169.28  141.79
 -18  21   3  -43.20  256.17
  21  -3   3   94.09  101.09
 -21   6  -3   56.29  217.88
  15 -21  -3   -3.20  123.99
  15 -21  -3   48.40  119.99
 -15  21   3  176.38  253.67
  21  -6   3  -42.30   96.49
  12 -21  -3  344.67  131.69
  12 -21  -3  473.45  140.49
 -21   9  -3  228.38  193.38
  21  -9   3  315.87  188.68
  21  -9   3  321.97  111.69
 -12  21   3  602.34  275.97
 -21  12  -3 1072.99  202.28
   9 -21  -3 1585.84  219.98
 -21  12  -3 1225.98  224.78
  21 -12   3 1006.60  182.48
 -21  15  -3  275.07  212.28
   6 -21  -3  202.08  149.79
 -21  15  -3  350.16  170.88
   6 -21  -3  159.48  200.68
  21 -15   3  -41.70  156.88
  21 -15   3  460.75  157.58
 -21  18  -3   51.69  192.38
  18   3  -3  166.28  124.59
 -21  18  -3  446.86  198.38
   3 -21  -3   87.59  147.99
  21 -18   3  114.49  174.18
  21 -18   3 -179.08  156.98
   0 -21  -3  187.08  162.88
 -21  21  -3 -172.38  253.07
  21   0  -3  166.98  134.49
  21 -21   3  -94.19  153.98
  21 -21   3 -133.29  226.08
  20 -22  -3  140.49  184.78
  20 -22  -3  164.28  147.39
 -20  22   3 -101.49  294.37
  22  -2   3  258.57  112.19
  -2 -20   3   -9.10  179.78
  17 -22  -3  179.08  149.59
  17 -22  -3 -112.49  127.89
  22  -5   3  -45.40   97.39
 -17  22   3  -62.59  283.37
  14 -22  -3  -43.70  126.19
  14 -22  -3  269.87  131.69
 -22   8  -3 -377.66  220.98
 -14  22   3 -105.09  290.17
  22  -8   3    6.60  244.28
  22  -8   3  -69.69  106.19
 -22  11  -3  139.29  192.68
  11 -22  -3  179.38  139.09
  11 -22  -3  119.09  160.08
 -22  11  -3   61.69  150.28
  22 -11   3   30.90  154.18
  22 -11   3  488.45  124.59
 -22  14  -3  127.59  176.98
   8 -22  -3  382.66  289.77
 -22  14  -3  278.37  186.28
   8 -22  -3  343.47  159.78
  22 -14   3  473.05  158.78
  22 -14   3  438.56  161.08
   5 -22  -3  -63.49  164.08
 -22  17  -3  137.99  185.68
  22 -17   3  308.17  180.68
  22 -17   3 -131.89  172.08
 -22  20  -3 -211.38  226.18
   2 -22  -3  -84.49  163.08
  20   2  -3   65.49  145.09
  22 -20   3 -230.18  165.08
  22 -20   3 -148.09  203.38
  19 -23  -3  274.17  149.88
  19 -23  -3  142.79  174.58
 -19  23   3  770.02  327.07
  23  -4   3  369.56  130.49
  16 -23  -3    9.70  139.79
  16 -23  -3   -0.50  145.39
  23  -7   3  -45.70  110.79
 -16  23   3  703.73  325.57
 -23  10  -3   67.89  190.48
  13 -23  -3  100.29  140.89
  13 -23  -3  -19.20  155.78
 -23  10  -3  223.58  227.38
  23 -10   3  173.98  119.89
  23 -10   3   38.10  197.28
 -23  13  -3    5.20  183.58
  10 -23  -3  164.18  150.28
 -23  13  -3  160.58  188.88
  23 -13   3  403.26  154.88
  23 -13   3   54.59  164.58
 -23  16  -3 -118.59  176.98
   7 -23  -3  158.28  174.38
 -23  16  -3  642.24  211.18
  23 -16   3   13.10  170.18
  23 -16   3 -167.48  175.08
   4 -23  -3  137.29  193.38
 -23  19  -3 -199.78  243.78
 -23  19  -3  -57.39  206.38
  23 -19   3   97.99  197.98
  23 -19   3  140.89  195.28
  18 -24  -3   36.60  172.78
  18 -24  -3  480.05  162.58
  24  -6   3  154.58  126.19
 -18  24   3  157.58  359.16
  15 -24  -3  -42.00  165.78
 -24   9  -3 -291.47  190.78
  15 -24  -3   28.40  151.18
  24  -9   3  123.19  125.59
 -24  12  -3  241.58  226.78
  12 -24  -3  237.28  155.48
 -24  12  -3  164.68  171.28
  24 -12   3  101.19  197.28
  24 -12   3  -93.89  144.59
 -24  15  -3   56.59  195.28
 -24  15  -3   33.40  209.58
   9 -24  -3  140.19  161.48
  24 -15   3  -75.19  174.78
  24 -15   3 -159.58  175.68
 -24  18  -3  453.55  242.18
   6 -24  -3  358.06  183.48
 -24  18  -3  226.68  208.88
  24 -18   3  462.15  205.58
  24 -18   3  547.65  193.28
 -25  11  -3   45.60  258.77
 -25  11  -3  214.08  166.78
  14 -25  -3   37.80  149.39
  25 -11   3   16.70  147.29
 -25  14  -3  -11.80  209.18
  11 -25  -3  116.79  167.78
 -25  14  -3  111.99  220.08
  25 -14   3 -105.59  170.78
  25 -14   3  -96.99  218.18
   1  -1  -4    0.90   33.00
   0   1  -4    8.50   33.00
  -1   0  -4   23.50   25.10
   1  -1  -4   56.89   38.00
  -1   0  -4   15.60   30.80
   1   0   4   -9.10   30.00
  -1   1   4   55.19   33.70
   3  -2  -4  543.25   70.49
   3  -2  -4  632.34   62.79
  -2  -1  -4  579.44   66.39
  -1   3  -4  609.04   68.09
  -3   2   4  579.04   72.09
   2   1   4  605.34   61.49
   2   1   4  608.14   64.29
   2   0  -4   -0.60   43.80
  -2   2  -4   -2.80   35.40
   2   0  -4  -19.50   31.70
   0  -2  -4  -16.60   28.80
   0  -2  -4    6.70   41.20
   0   2   4   20.20   29.80
   0   2   4   -5.00   35.50
  -3  -2  -4  153.18   45.80
   5  -3  -4   85.29   49.40
  -2   5  -4  112.39   49.50
   3   2   4  131.89   39.70
   3   2   4   83.69   41.90
   2  -3  -4  623.94   62.99
  -3   1  -4  559.04   68.49
   1   2  -4  634.34   71.29
   3  -1   4  619.54   71.59
  -2   3   4  570.34   80.19
  -1  -3  -4 4822.02  382.96
   4  -1  -4 5115.19  384.66
   4  -1  -4 4774.92  381.76
  -1  -3  -4 5026.90  384.26
  -3   4  -4 5021.00  384.06
   1   3   4 4916.71  382.46
  -4   1   4 4982.70  385.66
   1   3   4 5033.80  383.76
   7  -4  -4 5767.42  490.75
   7  -4  -4 6726.23  498.95
   7  -4  -4 6858.21  492.95
  -3   7  -4 6354.06  491.45
  -7   4   4 6768.72  494.65
   4   3   4 6599.74  491.15
   4   3   4 5508.35  489.45
   0   4  -4   56.99   46.20
  -4   0  -4   57.19   45.10
   4  -4  -4   45.20   46.40
   4  -4  -4  -69.69   43.00
   4   0   4  -29.20   52.19
   4   0   4   20.00   39.60
  -4   4   4   24.10   51.79
   1  -4  -4 5205.58  394.06
  -4   3  -4 5263.27  394.06
   1  -4  -4 4714.33  392.16
   3   1  -4 5211.88  395.16
  -1   4   4 5006.80  392.26
   4  -3   4 5000.20  391.56
  -3  -1   4 5195.58  395.96
  -4   6  -4 5880.91  449.16
   6  -2  -4 5238.48  447.66
  -2  -4  -4 5904.81  448.66
   6  -2  -4 6252.97  452.05
  -6   2   4 6155.58  451.95
   2   4   4 5960.80  450.15
   2   4   4 5332.47  447.56
  -4   9  -4 3670.43  283.47
   9  -5  -4 3570.24  298.17
   5   4   4 3501.95  282.67
   6  -5  -4 5439.56  419.76
   6  -5  -4 5221.08  424.46
  -1   6  -4 5492.25  418.96
   6  -5  -4 5062.59  417.96
   5   1   4 5294.07  416.26
   5   1   4 5670.43  418.46
  -6   5   4 5551.24  421.66
  -5   2  -4  256.67   53.79
   3  -5  -4   77.79   58.39
   3  -5  -4  153.78   45.10
   2   3  -4  269.97   57.69
  -3   5   4  191.08   52.59
   5  -2   4  121.79   48.70
  -3   5   4  216.58   58.89
   5  -2   4  159.08   59.99
   0  -5  -4  -34.70   49.99
   5   0  -4    2.20   43.70
   5   0  -4   63.29   51.89
  -5   5  -4   -8.90   46.80
  -5   5  -4   -3.30   71.89
   0   5   4   61.99   39.20
  -5   0   4   -4.90   49.99
  -5   8  -4 3575.44  259.67
  -5   8  -4 3325.67  248.58
   8  -3  -4 2822.62  246.78
   3   5   4 3110.89  249.97
   3   5   4 2805.32  245.08
  -8   3   4 3203.88  256.07
  11  -6  -4 3426.16  286.07
  -5  11  -4 3738.23  288.97
  11  -6  -4 3717.63  298.17
   6   5   4 3743.43  290.17
 -11   6   4 3655.23  300.47
   6   5   4 3429.76  283.37
   8  -6  -4 4156.18  335.47
  -2   8  -4 4369.16  336.67
   8  -6  -4 4405.76  341.27
  -8   6   4 4417.96  342.27
   6   2   4 4388.46  335.77
   6   2   4 4036.10  333.67
   5  -6  -4 5499.05  429.56
   5  -6  -4 5544.85  429.06
   5  -6  -4 4930.21  426.16
   1   5  -4 5864.91  429.16
   6  -1   4 5332.57  427.06
  -5   6   4 5467.85  429.76
   6  -1   4 5930.21  429.16
   4   2  -4 6435.66  472.35
   2  -6  -4 5427.26  470.45
  -6   4  -4 6945.60  479.05
  -6   4  -4 6316.17  472.15
   2  -6  -4 6246.57  471.45
   6  -4   4 5904.41  470.25
   6  -4   4 5689.43  471.15
  -4  -2   4 6150.88  472.25
  -2   6   4 6136.89  473.85
  -2   6   4 5749.52  469.45
  -1  -6  -4  787.02   79.99
  -1  -6  -4  816.42   88.49
  -6   7  -4  731.83  111.89
   7  -1  -4  684.53   81.69
   7  -1  -4  707.03   87.39
  -6   7  -4  761.42   87.99
   1   6   4  733.23   78.29
  -7   1   4  697.53   93.09
  -6  10  -4 2443.26  203.08
  10  -4  -4 2277.27  199.28
  -6  10  -4 2524.25  216.68
  10  -4  -4 2500.05  224.68
   4   6   4 2402.06  197.08
 -10   4   4 2525.95  214.18
   4   6   4 2565.14  208.88
  -6  13  -4 3899.21  314.87
  13  -7  -4 3842.52  329.97
  13  -7  -4 4047.99  308.67
   7   6   4 3912.81  304.07
   7   6   4 3627.44  319.97
 -13   7   4 3882.01  328.97
  10  -7  -4 1952.20  164.28
  -3  10  -4 2130.39  165.08
  10  -7  -4 1883.61  175.68
   7   3   4 1917.61  163.48
 -10   7   4 1873.91  179.38
   7   3   4 1805.72  160.18
   0   7  -4  -35.20   58.39
   7  -7  -4   17.90   76.19
   7  -7  -4  -13.20   45.80
   7   0   4  -77.59   46.20
  -7   7   4   38.30   65.19
   7   0   4   -2.50   63.39
   4  -7  -4 6199.78  531.55
   4  -7  -4 6890.81  532.65
  -7   3  -4 7904.41  541.65
   3   4  -4 7209.68  533.05
   7  -3   4 6031.50  531.25
  -4   7   4 7000.70  534.95
   7  -3   4 7100.19  533.55
  -7   6  -4  770.42   90.59
   6   1  -4  737.83   93.29
   1  -7  -4  722.83   80.09
   1  -7  -4  764.22   83.59
   6   1  -4  606.14   80.89
  -7   6  -4  864.91  120.19
  -6  -1   4  741.23   93.79
   7  -6   4  567.54   94.59
   7  -6   4  752.62   86.69
  -1   7   4  878.21   77.09
   9  -2  -4 1264.37  117.59
  -7   9  -4 1306.97  147.39
  -2  -7  -4 1027.60  114.69
  -7   9  -4 1467.25  126.99
  -9   2   4 1213.28  135.79
   2   7   4 1358.76  112.99
  12  -5  -4 2410.06  236.58
  -7  12  -4 2348.36  222.78
  12  -5  -4 2352.26  199.98
  -7  12  -4 2460.85  205.58
 -12   5   4 2507.35  221.28
   5   7   4 2458.85  197.18
  15  -8  -4  581.94  141.19
  -7  15  -4  550.94  101.39
  15  -8  -4  494.55   85.59
   8   7   4  483.35   79.59
 -15   8   4  585.44  144.19
  12  -8  -4  814.72  145.89
  -4  12  -4 1347.07  122.89
  12  -8  -4 1171.88  112.99
 -12   8   4 1246.78  143.99
   8   4   4 1017.90  118.69
   8   4   4  960.30  107.69
  -1   9  -4  -57.09   58.39
   9  -8  -4  -43.40   85.19
   9  -8  -4  -34.10   51.99
   8   1   4   52.99   49.99
   8   1   4   -1.80   58.99
  -9   8   4   18.90   72.39
   6  -8  -4 4463.45  348.17
   6  -8  -4 4052.29  346.07
  -8   2  -4 4910.41  359.26
   2   6  -4 4706.03  348.67
   8  -2   4 4079.29  346.37
  -6   8   4 4271.97  352.66
   8  -2   4 4603.04  349.77
   5   3  -4 3353.06  267.67
  -8   5  -4 3268.17  267.67
   3  -8  -4 3057.39  263.07
   3  -8  -4 3574.14  265.87
  -8   5  -4 3732.53  282.07
   8  -5   4 3236.08  265.77
  -3   8   4 3422.76  270.07
   8  -5   4 2941.21  265.47
  -3   8   4 3428.46  262.67
   0  -8  -4  -33.20   54.69
   8   0  -4  -63.49   55.29
  -8   8  -4  141.69  152.78
  -8   8  -4  -25.90   61.89
   8  -8   4   -0.70   77.99
   0   8   4   12.50   44.10
  -8   0   4   -8.90   69.19
   8  -8   4   -1.70   73.89
  11  -3  -4 1144.29  111.99
  -8  11  -4 1142.19  126.19
  -8  11  -4  952.50  146.89
   8 -11   4 1104.09  139.29
   3   8   4 1093.09  104.19
 -11   3   4 1094.59  141.89
  -8  14  -4  647.34  100.19
  14  -6  -4  551.24   95.19
  -8  14  -4  741.03  134.99
  14  -6  -4  371.26  151.58
 -14   6   4  738.93  137.79
   6   8   4  641.44   81.39
  17  -9  -4  569.44  176.08
  17  -9  -4  707.13  109.19
   9   8   4  731.13   98.79
 -17   9   4 1022.90  180.58
  14  -9  -4 1694.73  186.68
  14  -9  -4 1947.71  167.98
  -5  14  -4 1859.11  181.18
   9   5   4 1741.93  192.38
 -14   9   4 1853.71  195.48
   9   5   4 1993.90  160.78
  -2  11  -4  663.73  106.09
  11  -9  -4  614.54   93.39
  11  -9  -4  965.00  119.09
   9   2   4  783.82   88.09
 -11   9   4  762.22  125.59
   9   2   4  757.22   94.49
   1   8  -4   18.80   58.99
  -9   1  -4 -166.08   97.09
   8  -9  -4   82.79   51.19
   8  -9  -4  -23.10   80.59
  -8   9   4  105.69   77.69
   9  -1   4  113.09   71.49
   9  -1   4  109.79   60.09
   5  -9  -4 4106.09  311.97
   4   5  -4 4152.58  314.27
   5  -9  -4 3641.54  310.37
   9  -4   4 3760.72  309.67
  -5   9   4 4006.40  317.37
  -9   7  -4 1423.06  155.98
   2  -9  -4 1208.78  120.69
  -9   7  -4 1477.35  175.68
   7   2  -4 1231.08  128.79
   2  -9  -4 1203.08  121.19
   7   2  -4 1213.58  111.99
   9  -7   4 1274.27  124.99
   9  -7   4 1126.99  123.99
  -2   9   4 1382.16  112.69
  -9  10  -4  231.98  133.09
  10  -1  -4    0.40   63.19
  -1  -9  -4  -78.09   64.29
  -9  10  -4  -14.00  114.59
   9 -10   4 -128.09   76.59
 -10   1   4 -151.48  153.88
   1   9   4  -21.00   46.70
   9 -10   4   19.50   68.59
  13  -4  -4  589.64   95.59
  -9  13  -4  635.94  152.88
  -9  13  -4  654.23  137.89
   4   9   4  756.52   85.89
   9 -13   4  661.73  108.59
 -13   4   4  901.11  140.19
  16  -7  -4  632.94   91.59
   9 -16   4  732.73  107.19
   7   9   4  428.66   79.69
 -16   7   4  601.54  160.98
  19 -10  -4 2605.74  216.68
 -19  10   4 2017.80  292.77
  10   9   4 1968.70  240.58
  16 -10  -4   62.69   71.49
  16 -10  -4  -70.69  119.69
 -16  10   4   29.70  139.89
  10   6   4  -23.50   55.79
  13 -10  -4 1524.95  153.48
  13 -10  -4 1619.84  144.89
  -3  13  -4 1287.47  158.28
 -13  10   4 1422.76  169.98
  10   3   4 1417.46  149.39
  10   3   4 1609.34  136.49
  10 -10  -4  -84.19   83.09
  10 -10  -4  -49.70   59.39
   0  10  -4  -16.00   68.09
  10   0   4  -41.20   94.99
  10   0   4  -87.29   56.09
 -10  10   4   25.70   91.59
   7 -10  -4 1992.20  173.98
 -10   3  -4 2246.88  203.38
   3   7  -4 2216.48  179.68
   7 -10  -4 1627.74  172.48
  10  -3   4 2289.17  178.98
  10  -3   4 1782.42  171.38
   4 -10  -4 2745.13  224.48
   6   4  -4 2873.81  230.58
 -10   6  -4 2634.64  228.18
 -10   6  -4 2764.82  249.48
   4 -10  -4 2877.31  224.38
  10  -6   4 2564.94  225.28
  10  -6   4 2627.54  225.88
  -4  10   4 2830.02  237.18
   9   1  -4    9.90   52.79
 -10   9  -4  -84.49  115.29
   1 -10  -4  -61.49   66.99
 -10   9  -4   13.10   72.49
   1 -10  -4 -123.29   71.09
  10  -9   4  -57.69   78.49
  -1  10   4  -20.20   46.70
  10  -9   4  106.19   72.89
  -9  -1   4   -8.30   92.59
  12  -2  -4  598.64   82.59
 -10  12  -4  473.85  134.39
 -10  12  -4  348.97   96.59
  10 -12   4  442.46   90.89
 -12   2   4  476.05  125.09
  10 -12   4  301.27  101.59
   2  10   4  506.65   67.99
 -10  15  -4  649.64  123.99
 -10  15  -4  823.12  157.58
  10 -15   4  696.33  115.09
 -15   5   4  998.20  167.68
   5  10   4  633.24   91.49
  18  -8  -4 2300.97  213.68
   8  10   4 2309.37  200.18
 -18   8   4 2000.80  267.27
  10 -18   4 2373.26  214.18
  21 -11  -4 1467.65  166.68
 -21  11   4  985.90  239.98
  10 -21   4  953.80  166.38
  11  10   4 1198.18  147.19
  18 -11  -4  729.43  159.48
  18 -11  -4  658.33  116.79
  11   7   4  810.42  107.49
 -18  11   4 1085.49  203.18
  15 -11  -4  587.44  119.89
  15 -11  -4  652.53   99.89
 -15  11   4  645.44  149.88
  11   4   4  658.93   93.39
  -1  12  -4  547.45  104.59
  12 -11  -4  542.85  106.79
  12 -11  -4  670.23   82.69
 -12  11   4  573.74  136.89
  11   1   4  177.38  138.29
  11   1   4  485.75   83.59
   9 -11  -4  741.33  106.99
   9 -11  -4  816.92   95.79
  11  -2   4  694.93   92.69
  11  -2   4  827.12  111.09
   6 -11  -4 3976.90  317.37
 -11   5  -4 4108.89  339.97
   6 -11  -4 3861.11  315.87
   5   6  -4 4159.38  322.37
  11  -5   4 4006.90  319.87
  11  -5   4 3751.12  314.37
   3 -11  -4 1176.28  117.79
   8   3  -4 1021.20  128.19
   3 -11  -4 1152.78  118.39
 -11   8  -4 1141.79  126.39
 -11   8  -4 1081.89  162.78
  11  -8   4 1015.00  118.69
  11  -8   4 1171.78  122.39
 -11  11  -4  -65.09  134.19
 -11  11  -4   -2.20   80.19
   0 -11  -4   64.29   65.59
  11   0  -4  -68.69   58.39
   0 -11  -4   18.70   77.69
  11 -11   4  137.79   96.89
  11 -11   4    5.20   75.89
 -11   0   4  -34.10  123.89
   0  11   4    9.70   50.49
 -11  14  -4  442.46  145.99
 -14   3   4  652.23  157.18
  11 -14   4  445.66  100.29
  11 -14   4  467.45  114.79
   3  11   4  594.04   78.39
  17  -6  -4 1001.40  132.79
 -11  17  -4 1168.68  200.68
 -17   6   4 1400.96  209.88
  11 -17   4 1049.99  137.09
   6  11   4  871.11  113.79
  20  -9  -4 2465.65  224.08
  11 -20   4 2125.69  226.08
 -20   9   4 1964.80  295.47
   9  11   4 2629.74  211.58
  23 -12  -4  276.07  126.49
  11 -23   4   22.20  134.59
 -23  12   4   66.89  226.68
  12  11   4  198.98  114.39
  20 -12  -4  461.55  205.98
  20 -12  -4  729.03  125.09
  12   8   4  767.82  105.69
 -20  12   4  729.83  210.78
  17 -12  -4  324.47   82.79
  17 -12  -4  305.17  124.99
 -17  12   4  114.49  168.58
  12   5   4  310.47   68.19
  -2  14  -4  -98.29  112.99
  14 -12  -4   41.80  103.29
  14 -12  -4  113.99   65.89
  12   2   4   62.49   65.59
  12   2   4   43.20  147.99
 -14  12   4   79.19  129.99
  11 -12  -4  743.23   94.09
  11 -12  -4  649.14  110.49
   1  11  -4  757.72  111.49
 -11  12   4  742.53  141.09
  12  -1   4  678.53  113.69
  12  -1   4  735.63   93.79
 -12   4  -4 1410.96  182.38
   4   8  -4 1388.26  147.89
   8 -12  -4 1513.25  134.39
   8 -12  -4 1111.89  129.69
  12  -4   4 1151.58  128.09
  -8  12   4 1410.56  170.18
  12  -4   4 1381.66  139.69
   5 -12  -4 2520.35  213.38
 -12   7  -4 2384.16  249.38
   5 -12  -4 2686.73  216.48
  -5  12   4 2538.35  239.48
  12  -7   4 2564.24  218.28
  12  -7   4 2562.34  216.08
   2 -12  -4  361.46   86.89
 -12  10  -4  196.28  142.19
   2 -12  -4  305.17   79.39
 -12  10  -4  415.66   96.79
  10   2  -4  435.86   70.99
  12 -10   4  559.44   94.99
  -1 -12  -4  -20.00   89.49
  13  -1  -4   72.89   63.79
 -12  13  -4  114.89   97.19
  -1 -12  -4   23.60   83.49
 -12  13  -4  -79.19  148.09
  12 -13   4   68.09   87.39
 -13   1   4   38.70  149.39
   1  12   4  -21.40   57.89
  12 -13   4   73.09  112.19
  16  -4  -4  950.00  113.29
 -12  16  -4 1001.20  152.68
 -12  16  -4 1009.80  175.18
 -16   4   4 1098.09  198.68
   4  12   4  635.84  102.39
  12 -16   4  695.73  125.79
  19  -7  -4 1878.81  190.98
   7  12   4 2019.10  183.38
  12 -19   4 1888.81  189.28
 -19   7   4 1786.02  384.76
  22 -10  -4  788.42  135.69
  10  12   4  864.31  127.19
  12 -22   4  731.93  134.29
 -22  10   4  813.42  240.28
  25 -13  -4  127.89  138.49
 -25  13   4  221.98  268.27
  12 -25   4   90.39  129.89
  13  12   4   -5.90  139.29
  22 -13  -4   42.20  111.69
   9 -22   4   74.19  143.49
  13   9   4  134.09  104.69
 -22  13   4  176.68  212.78
  19 -13  -4  319.47  144.19
  19 -13  -4  317.67   92.69
  13   6   4  451.75   81.59
 -19  13   4  303.27  202.18
  16 -13  -4   -2.30  112.79
  16 -13  -4   71.19   78.49
 -16  13   4 -153.48  149.69
  13   3   4   93.79   71.89
   0  13  -4 -174.48  106.09
  13 -13  -4  -15.70   66.69
  13 -13  -4  -92.49   98.09
  13   0   4  -27.40   93.99
  13   0   4  -66.39   68.59
 -13  13   4   80.49  128.89
   3  10  -4 1615.24  171.98
  10 -13  -4 1727.13  160.28
  10 -13  -4 1825.32  155.78
 -13   3  -4 1468.95  200.48
 -10  13   4 1554.44  201.58
  13  -3   4 1898.91  167.98
  13  -3   4 1695.63  153.48
 -13   6  -4 4236.58  372.56
   7 -13  -4 4188.38  343.97
   7 -13  -4 4632.74  346.47
  13  -6   4 4302.97  347.57
  -7  13   4 4068.49  363.86
  13  -6   4 4371.06  342.77
 -13   9  -4  799.52  119.89
   4 -13  -4  638.24  105.89
 -13   9  -4  691.03  157.88
   4 -13  -4  804.92  107.49
  13  -9   4  630.44  107.89
  13  -9   4  727.63  109.69
 -13  12  -4   62.49   95.29
   1 -13  -4   39.70   82.99
   1 -13  -4  117.39   88.89
 -13  12  -4  -62.69  154.78
  12   1  -4  -48.00   68.99
  13 -12   4   -5.40  100.99
  13 -12   4  -41.80   91.29
 -12  -1   4  145.29  154.98
  -2 -13  -4 -115.79   98.79
  -2 -13  -4   86.99  106.59
 -13  15  -4  -62.49  122.39
  15  -2  -4 -101.69   63.69
 -13  15  -4 -118.89  146.99
  13 -15   4  -60.29  119.49
 -15   2   4   67.69  172.28
   2  13   4   27.30   65.29
  13 -15   4  -24.70   93.49
  18  -5  -4  985.70  133.89
 -13  18  -4  949.11  217.38
   5  13   4  953.60  119.59
 -18   5   4 1172.78  236.88
  21  -8  -4  763.52  122.09
  13 -21   4  760.22  131.69
   8  13   4  964.50  121.49
 -21   8   4  768.02  259.27
  24 -11  -4   91.09  118.99
  13 -24   4  206.88  131.69
 -24  11   4  855.71  267.47
  11  13   4  193.48  132.59
  24 -14  -4  146.89  145.39
 -24  14   4 -120.69  224.18
  10 -24   4 -231.18  151.48
  14  10   4   56.69  130.09
  21 -14  -4  156.58  107.29
  21 -14  -4  -36.00  170.38
 -21  14   4  -33.40  197.88
  14   7   4   51.09   89.09
   7 -21   4  -16.00  151.18
  18 -14  -4  113.09  123.99
  18 -14  -4  187.28  137.39
 -18  14   4  126.79  186.48
  14   4   4  339.37  139.59
  15 -14  -4   84.49   76.79
  15 -14  -4   30.10  108.99
  14   1   4  -22.40   73.89
  14   1   4  156.08  111.69
 -15  14   4  242.78  154.38
  12 -14  -4   89.39   99.19
   2  12  -4  -25.50  113.49
 -14   2  -4  143.19  131.59
  12 -14  -4   -1.90   71.89
 -12  14   4  -11.60  142.39
  14  -2   4   42.30  106.09
  14  -2   4  208.28   77.59
   9 -14  -4 2045.90  180.98
 -14   5  -4 1979.70  223.28
   9 -14  -4 1947.01  182.78
  14  -5   4 1913.31  176.48
  14  -5   4 2057.49  183.18
  -9  14   4 1861.31  217.68
   6 -14  -4  994.70  124.39
   6 -14  -4 1005.60  116.39
  -6  14   4  800.72  169.98
  14  -8   4  965.70  112.39
  14  -8   4 1010.00  127.69
   3 -14  -4  569.94  101.49
  11   3  -4  546.65   76.79
   3 -14  -4  436.16   96.69
 -14  11  -4  436.46  111.49
 -14  11  -4  208.98  163.48
  14 -11   4  663.33  105.19
  14 -11   4  566.54  105.49
 -14  14  -4  -93.19  163.88
   0 -14  -4   24.50  104.29
 -14  14  -4 -107.19  110.39
   0 -14  -4   98.79   98.29
  14   0  -4 -108.79   73.79
  14 -14   4   63.69   96.59
 -14   0   4  -19.50  176.58
  14 -14   4   32.00  123.39
 -14  17  -4  432.26  160.38
  17  -3  -4  -65.59   77.69
  -3 -14  -4  151.08  123.49
  -3 -14  -4  118.29  128.29
 -14  17  -4 -197.98  169.08
  14 -17   4   44.40  101.19
 -17   3   4   38.00  193.18
   3  14   4  132.49   87.39
  -6 -14  -4  466.25  145.09
  20  -6  -4  640.74  103.09
 -20   6   4  353.66  248.18
  14 -20   4  492.45  111.09
   6  14   4  704.53  117.29
  23  -9  -4  282.57  107.59
  -9 -14  -4  181.78  168.28
  14 -23   4  112.99  113.89
   9  14   4  172.28  133.79
 -23   9   4  489.25  264.77
  23 -15  -4   -5.00  126.49
  15   8   4  115.89  108.19
   8 -23   4  -81.49  175.38
 -23  15   4   88.39  206.28
  20 -15  -4   59.79  148.19
  20 -15  -4   61.79   91.69
 -20  15   4  200.78  187.38
  15   5   4  -20.20   80.39
  17 -15  -4  240.28   92.49
  17 -15  -4  259.77  130.39
  15   2   4   -3.10  111.69
  14 -15  -4   32.90  107.59
  14 -15  -4  -74.29   73.79
  15  -1   4  107.39   77.19
 -14  15   4 -154.98  160.18
  15  -1   4  -32.00  113.29
  11 -15  -4  828.92  104.29
  11 -15  -4  844.92  113.29
 -15   4  -4  732.13  165.68
  15  -4   4  755.42  123.39
 -11  15   4  975.00  173.48
  15  -4   4  642.44  101.09
 -15   7  -4  531.05  165.38
   8 -15  -4  905.81  104.39
   8 -15  -4  601.54  113.89
  -8  15   4  506.15  167.58
  15  -7   4  839.22  101.19
  15  -7   4  676.63  113.69
   5 -15  -4  942.31  118.99
   5 -15  -4  699.43  121.99
 -15  10  -4  557.24  175.28
 -15  10  -4  668.83  121.99
  15 -10   4  940.21  126.09
  15 -10   4  774.62  114.99
 -15  13  -4  -26.20  114.99
   2 -15  -4   45.70  100.79
 -15  13  -4  411.56  178.48
   2 -15  -4   49.99  102.39
  15 -13   4  274.07  113.69
  16  -1  -4  117.99   86.89
 -15  16  -4  -71.09  140.39
  -1 -15  -4  133.49  121.59
 -15  16  -4 -177.58  162.68
  -1 -15  -4   83.79  114.19
  15 -16   4  147.49  106.89
 -16   1   4  142.29  194.48
  15 -16   4   93.89  151.88
  -4 -15  -4  599.94  143.19
 -15  19  -4  550.24  296.57
  -4 -15  -4  494.15  165.08
  19  -4  -4  549.54   92.29
 -19   4   4  258.77  268.07
  15 -19   4  377.76  114.99
   4  15   4  103.49  176.28
  -7 -15  -4  193.08  164.98
  22  -7  -4   88.79   91.79
 -22   7   4  113.79  276.87
  15 -22   4  234.38  125.19
   7  15   4   11.30  126.39
  22 -16  -4   51.59  116.79
  22 -16  -4  120.59  175.58
  16   6   4    4.00  103.49
 -22  16   4  -73.59  202.88
   6 -22   4  407.06  175.88
  19 -16  -4  153.48  161.68
  19 -16  -4  174.18   98.19
  16   3   4   49.30   89.49
 -19  16   4 -244.08  201.68
  16 -16  -4    1.40  104.09
  16 -16  -4    5.30   85.39
  16   0   4  -57.79  102.39
 -16  16   4 -110.89  203.88
 -16   3  -4   39.80  146.39
  13 -16  -4    5.60  107.39
  13 -16  -4   32.60   76.79
 -13  16   4  -77.89  168.98
  16  -3   4   68.89   80.89
  16  -3   4   99.89  120.99
 -16   6  -4  -36.90  147.69
  10 -16  -4  -58.49   93.19
  10 -16  -4  -45.10   78.99
  16  -6   4  -76.29   98.69
 -10  16   4 -175.48  168.18
  16  -6   4   12.70   77.19
 -16   9  -4  394.76  173.38
   7 -16  -4  733.03  117.29
   7 -16  -4  616.54  111.29
 -16   9  -4  719.63  139.79
  16  -9   4  742.33  118.59
  16  -9   4  476.15  103.89
 -16  12  -4  880.81  143.09
   4 -16  -4  882.71  125.39
 -16  12  -4  680.83  195.58
   4 -16  -4 1020.40  134.19
  16 -12   4  973.30  132.99
  16 -12   4  981.10  133.09
 -16  15  -4  114.49  160.98
 -16  15  -4   89.59  129.39
   1 -16  -4   20.90  115.79
   1 -16  -4  -28.70  121.59
  15   1  -4  144.59   83.69
  16 -15   4  150.18  118.19
  16 -15   4 -228.78  132.69
  -2 -16  -4 -150.28  132.59
 -16  18  -4  301.47  191.88
  -2 -16  -4  196.28  158.88
 -16  18  -4  101.59  197.38
  18  -2  -4  -58.99   93.89
  16 -18   4  -10.00  111.59
 -18   2   4   -0.60  232.08
  -5 -16  -4  306.77  190.28
  21  -5  -4    8.30   83.69
  -5 -16  -4  -46.90  157.18
 -21   5   4  224.88  269.27
  16 -21   4   46.30  109.99
  -8 -16  -4 -308.07  235.68
  -8 -16  -4  372.16  191.58
  24  -8  -4  176.68  105.99
  16 -24   4   25.60  127.69
 -24   8   4 -204.58  329.87
  24 -17  -4  529.05  151.78
   7 -24   4 -203.58  204.68
  17   7   4  183.38  133.79
 -24  17   4  222.28  229.18
  21 -17  -4   49.00  106.69
  21 -17  -4  114.89  149.09
 -21  17   4    7.90  209.28
  17   4   4   84.39   97.59
  18 -17  -4   60.79  201.98
  18 -17  -4   30.00  104.29
 -18  17   4 -353.36  216.08
  17   1   4   21.80   84.19
  15 -17  -4   39.50  122.99
  15 -17  -4  -82.69   86.79
  17  -2   4  194.18  134.59
  17  -2   4 -151.28  103.69
 -15  17   4 -142.79  202.28
 -17   5  -4  -39.00  162.58
  12 -17  -4  392.46   94.39
  12 -17  -4  239.78  105.69
  17  -5   4  343.47  120.29
 -12  17   4    3.00  201.28
  17  -5   4  287.17   86.89
 -17   8  -4  876.01  175.98
   9 -17  -4  755.92  136.39
   9 -17  -4  981.00  133.09
  -9  17   4 1315.47  216.78
  17  -8   4  773.72  129.69
  17  -8   4 1101.59  136.59
 -17  11  -4 1159.18  167.38
 -17  11  -4 1211.88  207.28
   6 -17  -4 1135.79  150.68
  17 -11   4  990.70  149.79
  17 -11   4  906.01  153.98
   3 -17  -4  126.09  118.99
   3 -17  -4  -53.29  118.29
 -17  14  -4  246.58  174.68
 -17  14  -4  -70.89  133.89
  14   3  -4  -24.80   81.89
  17 -14   4   21.50  110.19
  17 -14   4 -117.69  123.09
   0 -17  -4   70.89  131.79
   0 -17  -4 -100.89  152.98
 -17  17  -4 -116.49  172.98
 -17  17  -4  -78.49  164.58
  17 -17   4  -57.59  153.48
  17 -17   4   15.90  118.19
 -17   0   4  361.46  238.98
  20  -3  -4    5.10   98.89
  -3 -17  -4   96.19  156.28
  -3 -17  -4  158.78  225.88
 -17  20  -4  -63.89  239.88
 -20   3   4  325.37  271.17
  17 -20   4   -1.20  121.59
  -6 -17  -4  234.98  235.48
  -6 -17  -4  231.18  184.18
  23  -6  -4  363.46  126.59
 -23   6   4  -21.90  325.87
  17 -23   4  213.28  128.89
  23 -18  -4  318.27  233.48
  23 -18  -4   52.39  137.69
  18   5   4   89.99  119.69
 -23  18   4  153.38  227.78
   5 -23   4  401.16  206.48
  20 -18  -4  144.69  114.09
  20 -18  -4  133.29  143.19
 -20  18   4 -139.19  214.88
  18   2   4  -64.59   97.59
  17 -18  -4   24.30  109.59
  17 -18  -4    2.50  123.39
  18  -1   4  -56.29   96.09
 -17  18   4  203.68  217.38
  14 -18  -4  144.19  109.79
 -18   4  -4  125.49  176.48
  14 -18  -4  135.49   91.39
  18  -4   4 -125.59  132.59
 -14  18   4  245.88  208.58
  11 -18  -4  967.90  151.88
 -18   7  -4  983.80  192.78
  11 -18  -4 1128.29  132.19
 -11  18   4  952.00  214.38
  18  -7   4 1120.59  131.59
  18  -7   4  999.00  148.99
 -18  10  -4 1825.92  254.47
   8 -18  -4 2273.67  220.68
   8 -18  -4 2256.07  223.28
 -18  10  -4 2242.68  228.28
  18 -10   4 2129.59  218.68
  18 -10   4 2466.95  217.28
   5 -18  -4 1051.59  153.88
   5 -18  -4  718.93  204.08
  18 -13   4 1344.07  163.68
  18 -13   4 1123.79  166.58
   2 -18  -4 -108.59  148.39
 -18  16  -4  -81.49  156.08
 -18  16  -4   -1.40  165.68
   2 -18  -4   -6.20  121.99
  16   2  -4  112.29  102.99
  18 -16   4   13.50  153.48
  18 -16   4  119.39  123.69
 -18  19  -4 -157.18  210.38
  -1 -18  -4  -33.70  144.59
  19  -1  -4 -220.08   99.29
  18 -19   4  258.57  132.29
 -19   1   4  519.65  316.67
  22  -4  -4  289.47  115.59
  -4 -18  -4  -23.20  177.58
  -4 -18  -4  327.07  254.37
  18 -22   4  -16.50  139.69
 -22   4   4 -342.67  356.66
  22 -19  -4 -183.88  165.98
  22 -19  -4  138.59  129.29
   3 -22   4  374.76  194.68
  19   3   4  176.98  108.89
 -22  19   4  221.88  226.98
  19 -19  -4   48.40  157.48
  19 -19  -4  -35.30  117.99
 -19  19   4 -110.39  231.58
  19   0   4   42.10   95.69
  16 -19  -4 -138.19  139.49
  16 -19  -4  155.58  107.29
  19  -3   4   73.09   90.79
 -16  19   4 -191.68  221.58
  13 -19  -4  396.96  118.59
  13 -19  -4  268.77  112.49
 -13  19   4  457.65  220.18
  19  -6   4  520.45  146.29
  19  -6   4  542.05  115.59
  10 -19  -4 2542.85  240.58
  10 -19  -4 2491.35  290.87
 -19   9  -4 2192.58  400.06
  19  -9   4 2341.77  244.28
 -10  19   4 2777.32  309.37
  19  -9   4 2630.14  233.98
 -19  12  -4 1343.97  232.88
   7 -19  -4 1611.34  196.18
   7 -19  -4 1827.22  210.88
 -19  12  -4 2382.86  331.27
  19 -12   4 1523.85  238.38
  19 -12   4 1920.11  205.18
 -19  15  -4  288.77  170.68
   4 -19  -4  604.34  160.68
   4 -19  -4  269.17  132.09
 -19  15  -4  325.77  216.38
  19 -15   4  768.52  161.28
  19 -15   4  391.26  138.69
   1 -19  -4  136.89  138.19
   1 -19  -4   83.39  328.47
 -19  18  -4  -46.70  185.58
 -19  18  -4   40.40  342.87
  18   1  -4  147.49  108.59
  19 -18   4  104.59  224.28
  19 -18   4   43.90  129.99
  -2 -19  -4  -43.80  171.28
 -19  21  -4  195.88  272.77
  -2 -19  -4 -170.48  236.28
  21  -2  -4 -240.28  121.59
  19 -21   4  132.79  146.09
  21 -20  -4  -54.39  156.48
  21 -20  -4  121.69  145.29
  20   1   4 -168.38  108.79
   1 -21   4  -40.60  191.28
 -21  20   4  278.27  237.58
  18 -20  -4   61.29  115.99
  18 -20  -4   64.99  142.49
  20  -2   4   51.59  104.09
 -18  20   4  308.77  251.47
  15 -20  -4  145.19  113.89
  15 -20  -4  209.18  125.49
  20  -5   4   27.90   98.69
  20  -5   4  -31.20  183.18
 -15  20   4   98.69  246.38
  12 -20  -4  908.81  146.99
  12 -20  -4 1010.60  141.09
 -20   8  -4  550.54  202.68
  20  -8   4  967.70  130.29
 -12  20   4  786.72  259.17
  20  -8   4  645.44  157.18
   9 -20  -4 2058.79  239.68
 -20  11  -4 2170.48  257.77
   9 -20  -4 2568.84  254.27
  20 -11   4 2875.91  260.97
  20 -11   4 3004.20  269.17
   6 -20  -4  703.23  154.08
 -20  14  -4  393.86  175.98
 -20  14  -4  380.86  170.78
   6 -20  -4  533.45  172.18
  20 -14   4 1008.40  197.78
  20 -14   4  478.25  158.78
 -20  17  -4  -35.10  171.68
  17   3  -4 -198.38  110.39
   3 -20  -4   57.19  135.49
 -20  17  -4   11.40  172.98
  20 -17   4  237.08  177.28
  20 -17   4   30.60  139.99
   0 -20  -4  184.78  156.48
 -20  20  -4 -351.56  238.58
  20   0  -4  232.08  127.99
   0 -20  -4 -343.07  344.27
  20 -20   4   -2.40  139.29
  -3 -20  -4  200.18  194.48
  23  -3  -4  398.76  145.69
  20 -23   4  214.78  157.18
  20 -21  -4   65.19  138.39
  20 -21  -4 -179.58  173.38
 -20  21   4  350.86  261.77
  -1 -20   4   83.69  185.48
  21  -1   4   14.90  108.09
  17 -21  -4  240.68  114.99
  17 -21  -4   65.09  163.48
 -17  21   4  180.98  249.28
  21  -4   4   43.80  102.69
  14 -21  -4  178.68  120.29
 -21   7  -4  573.24  209.58
  14 -21  -4  121.59  123.69
 -14  21   4  -14.90  256.37
  21  -7   4  285.77  108.89
 -21  10  -4  974.90  208.48
  11 -21  -4  933.81  166.88
  11 -21  -4 1018.00  211.48
 -21  10  -4 1051.89  185.18
  21 -10   4  902.31  168.68
  21 -10   4  966.60  161.38
 -21  13  -4  388.26  177.28
   8 -21  -4  474.55  162.88
 -21  13  -4  747.13  183.38
  21 -13   4 1140.09  163.78
  21 -13   4  821.62  163.58
 -21  16  -4   65.99  185.08
   5 -21  -4  -38.60  156.08
 -21  16  -4   54.59  171.08
   5 -21  -4  169.78  197.58
  21 -16   4  161.38  160.88
  21 -16   4  -16.20  163.58
   2 -21  -4   56.09  158.78
 -21  19  -4   63.69  214.78
  19   2  -4  329.67  133.89
 -21  19  -4  712.53  229.88
  21 -19   4  123.89  154.88
  21 -19   4  402.46  203.88
  -1 -21  -4  122.09  183.48
  22  -1  -4  213.18  142.39
 -21  22  -4  322.37  311.97
  21 -22   4  172.68  154.18
  19 -22  -4   49.90  129.19
  19 -22  -4  -89.29  174.68
 -19  22   4  -95.19  286.07
  22  -3   4  310.17  117.79
  16 -22  -4   42.50  130.49
  16 -22  -4   51.39  142.19
 -16  22   4  645.44  284.07
  22  -6   4   17.20  116.69
 -22   9  -4   41.30  140.29
 -22   9  -4  187.58  207.28
  13 -22  -4  403.46  142.69
  13 -22  -4  270.07  139.09
  22  -9   4  132.29  105.29
 -13  22   4  955.30  313.37
  22  -9   4 -124.09  172.48
  10 -22  -4  785.42  163.28
  10 -22  -4  606.44  157.38
 -22  12  -4  715.63  185.98
 -22  12  -4  467.45  204.28
  22 -12   4  619.84  167.08
  22 -12   4  912.21  158.78
   7 -22  -4  365.36  192.58
 -22  15  -4  102.09  178.88
   7 -22  -4  106.69  167.28
 -22  15  -4  161.98  196.08
  22 -15   4  -28.60  165.78
  22 -15   4  253.07  162.58
 -22  18  -4  300.07  211.68
   4 -22  -4   35.70  180.48
 -22  18  -4 -315.67  199.88
  22 -18   4  317.07  186.58
  22 -18   4  167.18  189.28
 -22  21  -4 -275.27  262.77
   1 -22  -4   91.19  178.58
  21   1  -4  292.17  155.78
  22 -21   4   36.60  162.88
  18 -23  -4   55.59  148.29
  18 -23  -4   91.79  167.88
 -23   5  -4  265.97  195.58
 -18  23   4 -157.38  316.97
  23  -5   4   22.80  118.39
 -23   8  -4 -202.38  138.99
  15 -23  -4  -13.60  153.18
  15 -23  -4   39.30  143.19
  23  -8   4  -29.30  122.59
 -15  23   4 -140.59  328.17
  23  -8   4   16.90  355.56
 -23  11  -4  222.48  205.88
  12 -23  -4  140.19  159.58
  12 -23  -4  169.78  152.98
 -23  11  -4  264.37  166.88
  23 -11   4  165.18  136.39
  23 -11   4  204.08  162.88
   9 -23  -4  554.44  193.68
   9 -23  -4  169.48  159.58
 -23  14  -4   86.99  193.18
 -23  14  -4  -19.60  202.58
  23 -14   4  -70.69  163.38
  23 -14   4  260.77  166.38
   6 -23  -4  237.38  174.18
 -23  17  -4  321.17  215.28
 -23  17  -4  143.99  201.68
  23 -17   4  204.48  182.78
  23 -17   4   98.29  192.28
 -23  20  -4   44.20  236.08
   3 -23  -4  118.49  204.08
  23 -20   4  161.98  200.08
 -24   7  -4  -26.30  153.78
  17 -24  -4   11.40  194.48
  17 -24  -4   38.90  158.68
  24  -7   4   48.80  131.59
 -17  24   4   85.19  364.36
 -24  10  -4  120.39  162.88
  14 -24  -4  -17.70  166.38
  14 -24  -4  -54.89  150.98
  24 -10   4   26.50  141.09
  24 -10   4 -261.67  222.68
 -24  13  -4  262.87  211.28
 -24  13  -4  322.17  209.78
  11 -24  -4  264.97  209.08
  11 -24  -4   68.79  164.18
  24 -13   4 -163.08  161.48
  24 -13   4  -56.29  176.18
 -24  16  -4   -3.70  198.78
   8 -24  -4  463.15  172.48
 -24  16  -4  182.68  230.88
  24 -16   4  485.65  198.68
  24 -16   4   76.39  171.68
  13 -25  -4  -20.30  223.88
 -25  12  -4  226.58  193.58
  13 -25  -4  -54.09  162.58
  25 -12   4 -269.47  163.78
  25 -12   4  -84.29  231.88
   0  -1  -5  -47.50   45.10
   1   0  -5   -5.70   33.50
  -1   1  -5  -35.80   38.20
   0  -1  -5  -18.00   37.10
   1   0  -5    9.50   48.30
   0   1   5   14.80   33.60
   0   1   5   -1.80   39.40
   0   2  -5   -8.30   48.00
  -2   0  -5  -40.00   42.40
   2  -2  -5  -61.99   37.50
   2  -2  -5  -10.50   47.90
   2   0   5  -28.60   39.30
  -2   2   5  -46.60   43.00
   2   0   5   29.60   38.40
   3  -1  -5   56.69   43.50
  -1  -2  -5   23.70   44.90
  -2   3  -5  -50.89   38.60
   3  -1  -5   43.40   53.69
   1   2   5   25.30   37.30
   1   2   5   18.60   39.20
  -3   1   5  -74.69   67.09
   4  -3  -5  -59.19   39.80
  -1   4  -5   41.70   47.30
   4  -3  -5   35.10   48.60
  -3  -1  -5   -0.30   44.10
   3   1   5   35.70   44.20
  -4   3   5   76.09   56.19
   3   1   5   66.19   37.30
   2   1  -5   20.70   55.09
  -3   2  -5  -42.10   43.80
   1  -3  -5  -57.59   44.50
   1  -3  -5   25.60   48.40
  -1   3   5   71.69   41.60
   3  -2   5  -22.80   48.00
  -3   5  -5 2374.36  199.68
   5  -2  -5 2651.33  203.48
  -2  -3  -5 2487.85  201.78
  -2  -3  -5 2576.34  202.88
   5  -2  -5 2334.17  199.88
   2   3   5 2490.35  199.48
   2   3   5 2439.46  198.48
  -5   2   5 2668.63  204.98
   6  -4  -5   53.99   49.90
   6  -4  -5  126.69   56.69
  -4  -2  -5   43.70   46.60
  -2   6  -5    7.70   48.90
   4   2   5   68.99   43.00
   4   2   5   69.99   41.50
  -6   4   5   85.99   58.39
   3  -4  -5   27.30   56.99
  -4   1  -5  -16.90   47.40
   3  -4  -5  -85.29   47.00
   1   3  -5   41.60   54.79
   3  -4  -5  -25.80   67.49
  -3   4   5  -53.39   54.19
   4  -1   5   29.90   41.70
   4  -1   5  -13.10   50.69
  -3   4   5   73.39   51.19
  -4   4  -5   11.00   48.30
   4   0  -5   37.80   47.90
   0  -4  -5   30.20   41.10
   0  -4  -5  -21.50   44.60
   4   0  -5  -34.70   36.70
   0  -4  -5   31.90   50.09
  -4   0   5   40.10   52.29
   0   4   5  -57.99   40.70
  -3  -4  -5 5772.92  456.25
  -4   7  -5 5865.81  456.95
   7  -3  -5 6035.30  459.55
   7  -3  -5 5813.02  455.55
  -7   3   5 5788.82  459.05
   3   4   5 5939.21  454.45
   3   4   5 6073.79  456.25
  -5  -3  -5 4392.66  352.76
   8  -5  -5 4534.65  353.96
   8  -5  -5 4850.21  360.46
  -3   8  -5 4428.06  352.96
   5   3   5 4834.02  351.16
   5   3   5 3987.10  351.76
   5  -5  -5  -58.59   48.40
  -5   0  -5  -18.10   47.40
   5  -5  -5  113.39   63.09
   0   5  -5   12.70   49.70
   5   0   5   10.80   57.09
   5   0   5  102.29   39.80
  -5   5   5   70.29   58.99
   3   2  -5 2839.92  213.68
   2  -5  -5 2638.44  211.98
   2  -5  -5 2409.26  207.88
   2  -5  -5 2660.93  212.28
  -5   3  -5 2583.44  210.88
  -2   5   5 2628.84  214.18
   5  -3   5 2512.05  211.68
   5  -3   5 2563.84  209.28
  -2   5   5 2600.44  207.68
   6  -1  -5 1638.94  151.98
   6  -1  -5 1914.41  161.68
  -1  -5  -5 1821.92  158.38
  -1  -5  -5 1998.80  159.38
  -5   6  -5 1875.11  159.38
   1   5   5 1913.91  154.08
  -6   1   5 1956.70  161.38
  -5   9  -5 6378.66  476.25
   9  -4  -5 5827.82  473.55
  -4  -5  -5 6076.99  475.15
   4   5   5 6302.67  475.65
  -9   4   5 6119.09  479.85
   4   5   5 6064.49  472.75
  10  -6  -5 4095.69  337.67
  -4  10  -5 4215.58  328.17
  10  -6  -5 4147.98  325.87
 -10   6   5 4188.28  334.97
   6   4   5 4111.19  326.47
   6   4   5 4113.59  323.67
   7  -6  -5  135.19   90.29
   7  -6  -5   95.79   54.89
   7  -6  -5   70.19   53.09
  -1   7  -5   55.49   49.99
  -6  -1  -5  155.48   57.69
   6   1   5  108.69   43.00
  -7   6   5  132.39   63.49
   6   1   5   41.20   51.79
  -6   2  -5   50.29   49.80
   4  -6  -5   62.39   60.79
   4  -6  -5   61.09   51.49
   4  -6  -5   29.30   60.49
   2   4  -5  100.69   57.49
   6  -2   5   45.70   52.69
   6  -2   5   66.79   59.89
  -4   6   5   -2.50   59.79
   5   1  -5 1942.71  162.18
   1  -6  -5 1724.43  155.18
  -6   5  -5 1940.91  160.28
   1  -6  -5 1977.30  157.58
   6  -5   5 1863.81  159.38
   6  -5   5 1873.31  156.18
  -5  -1   5 1760.02  159.78
  -1   6   5 1863.51  153.68
  -1   6   5 1910.31  164.18
  -2  -6  -5 4734.43  357.26
   8  -2  -5 4571.34  376.16
  -6   8  -5 4485.25  355.86
   8  -2  -5 4322.97  356.16
  -2  -6  -5 4370.76  352.96
   2   6   5 4909.61  351.86
  -8   2   5 4254.57  358.26
  -6  11  -5 2057.09  176.78
  -5  -6  -5 1899.51  181.18
  11  -5  -5 1923.61  166.78
  11  -5  -5 1973.10  215.58
   5   6   5 1898.51  165.18
 -11   5   5 2147.19  187.38
   5   6   5 2041.90  179.78
  -5  12  -5 3063.79  294.17
  12  -7  -5 3475.45  308.57
  12  -7  -5 3847.11  286.87
 -12   7   5 3472.45  302.87
   7   5   5 3790.12  283.57
   7   5   5 3789.82  291.77
   9  -7  -5 1840.82  173.48
  -2   9  -5 1724.73  160.88
   9  -7  -5 1975.30  158.28
   7   2   5 1829.22  157.48
   7   2   5 1977.10  154.58
  -9   7   5 1745.73  170.68
   1   6  -5  101.39   60.89
   6  -7  -5  137.89   82.29
   6  -7  -5  155.08   52.79
   6  -7  -5   86.99   68.79
  -7   1  -5  148.29   58.49
   7  -1   5  166.98   64.49
  -6   7   5  124.19   62.29
   7  -1   5  104.09   47.60
   3  -7  -5 5939.31  485.45
   3  -7  -5 6511.65  486.65
   4   3  -5 6246.38  487.55
  -7   4  -5 6237.78  487.45
   7  -4   5 6272.37  486.65
  -4  -3   5 6204.48  489.35
  -3   7   5 6531.35  490.65
   7  -4   5 6414.36  487.05
  -3   7   5 6237.88  485.05
   7   0  -5  -43.90   51.29
   0  -7  -5  -68.69   53.99
  -7   7  -5  -64.09   56.39
   7   0  -5 -106.79  118.79
  -7   7  -5   19.10   87.29
   0  -7  -5  -37.10   52.29
   0   7   5    2.60   67.19
   7  -7   5  -24.30   66.99
  -7   0   5   12.50   61.89
  10  -3  -5 2371.16  190.08
  -3  -7  -5 2286.87  191.28
  -7  10  -5 2178.68  197.28
   3   7   5 2242.18  186.78
 -10   3   5 2429.16  205.78
  13  -6  -5 1142.99  119.99
  -7  13  -5 1261.07  140.49
  13  -6  -5 1258.57  191.38
   6   7   5 1329.37  116.59
 -13   6   5 1042.20  154.68
  14  -8  -5 1431.96  205.68
  -6  14  -5 1542.75  164.98
  14  -8  -5 1851.91  153.18
 -14   8   5 1483.95  190.38
   8   6   5 1923.91  148.69
   8   6   5 1615.34  177.38
  11  -8  -5 1928.51  163.68
  -3  11  -5 1903.71  169.38
  11  -8  -5 1866.11  177.48
   8   3   5 1952.40  164.28
 -11   8   5 1783.82  182.78
   8   3   5 1806.52  159.58
   0   8  -5   13.00   61.89
   8  -8  -5  -69.29   79.19
   8  -8  -5   -4.20   49.90
   8   0   5   16.60   72.79
   8   0   5   -0.30   51.09
  -8   8   5   84.99   75.69
   3   5  -5 4881.01  405.66
  -8   3  -5 5995.50  419.76
   5  -8  -5 5179.88  405.36
   5  -8  -5 4837.62  403.36
  -5   8   5 5492.95  408.26
   8  -3   5 4812.62  403.56
  -8   6  -5 5213.48  394.26
   2  -8  -5 4929.31  385.56
   6   2  -5 5200.58  390.46
   2  -8  -5 4714.73  384.06
  -2   8   5 5181.68  383.06
   8  -6   5 4511.65  385.16
  -6  -2   5 4845.92  388.46
  -2   8   5 4820.22  388.16
   9  -1  -5  457.45   69.69
  -1  -8  -5  370.66   74.09
  -8   9  -5  547.95  118.39
   1   8   5  485.25   61.19
   8  -9   5  229.48   98.79
   8  -9   5  387.06   75.49
  -4  -8  -5 1407.56  154.98
  -8  12  -5 1784.02  160.58
  12  -4  -5 1587.14  149.69
 -12   4   5 1468.75  179.18
   4   8   5 1894.91  144.69
  15  -7  -5  -57.49   66.49
  -8  15  -5  -82.79   98.89
 -15   7   5  -45.00  122.59
   7   8   5  -21.30   56.09
  -7  16  -5  264.57  122.69
  16  -9  -5  280.07   71.19
  16  -9  -5  114.89  155.38
 -16   9   5  250.97  139.69
   9   7   5  391.76   71.09
  13  -9  -5 1254.27  124.39
  -4  13  -5 1498.35  188.98
  13  -9  -5 1366.26  169.28
   9   4   5 1089.29  122.29
 -13   9   5 1184.38  156.78
   9   4   5 1195.68  135.49
  10  -9  -5  486.85  134.49
  -1  10  -5  676.83   94.09
  10  -9  -5  686.93   79.79
   9   1   5  660.13  108.19
   9   1   5  468.95   81.39
 -10   9   5  680.43  104.69
   2   7  -5 1513.85  160.78
   7  -9  -5 1759.12  154.88
   7  -9  -5 1971.90  162.88
   9  -2   5 1927.11  161.88
  -7   9   5 1787.42  168.68
  -9   5  -5 6776.02  520.45
   4  -9  -5 7109.19  522.35
   5   4  -5 6631.84  521.95
  -9   5  -5 6857.31  527.45
  -4   9   5 6533.55  522.25
   9  -5   5 6344.77  518.05
   9  -5   5 6614.34  519.05
   1  -9  -5  412.76   69.59
   1  -9  -5  356.96   71.79
  -9   8  -5  272.17  109.59
   8   1  -5  385.96   79.89
  -9   8  -5  442.66   79.79
  -8  -1   5  440.16   85.79
  -1   9   5  546.65   62.29
   9  -8   5  323.67   81.09
   9  -8   5  335.17   80.19
  -9  11  -5  140.39  106.59
  -2  -9  -5  279.77   89.29
  11  -2  -5  425.86   76.29
  -9  11  -5  377.46   90.39
 -11   2   5  291.67  101.29
   2   9   5  431.66   61.99
   9 -11   5  332.37  111.09
  -5  -9  -5   91.89   99.79
  -9  14  -5  344.77   99.89
 -14   5   5  316.27  125.29
  17  -8  -5  987.20  128.49
  -8  -9  -5 1097.49  180.38
   8   9   5 1139.19  120.59
 -17   8   5 1236.78  191.78
  18 -10  -5 1315.97  146.99
 -18  10   5 1555.54  232.38
  15 -10  -5  -82.59  114.99
  -5  15  -5 -236.88  108.89
  15 -10  -5  131.79   71.79
 -15  10   5 -102.39  115.59
  10   5   5   33.40   54.49
  12 -10  -5  495.65  107.99
  12 -10  -5  228.28   69.19
  -2  12  -5  319.77  106.39
  10   2   5  177.88   61.69
 -12  10   5   83.79  105.19
  10   2   5  211.68   68.89
   1   9  -5  789.72  114.89
   9 -10  -5  498.15   97.39
   9 -10  -5  684.53   82.49
  10  -1   5  637.94   85.19
  -9  10   5  747.23  110.89
  10  -1   5  772.72  102.79
 -10   4  -5 4535.95  380.56
   6 -10  -5 4228.78  365.96
   6 -10  -5 4700.93  367.86
   4   6  -5 4659.13  371.96
 -10   4  -5 4540.15  369.56
  -6  10   5 5355.06  381.56
  10  -4   5 4666.23  367.86
 -10   7  -5 2554.34  205.38
 -10   7  -5 2134.39  218.38
   3 -10  -5 2422.26  200.28
   7   3  -5 2503.95  208.48
   3 -10  -5 2297.87  197.28
  10  -7   5 2390.26  199.58
  -3  10   5 2261.77  208.98
  10  -7   5 2330.37  200.88
  -3  10   5 2348.07  194.88
   0 -10  -5   30.50   74.99
 -10  10  -5   16.50   75.79
 -10  10  -5  -57.89  107.69
   0 -10  -5  -16.00   62.29
  10   0  -5   12.30   59.59
 -10   0   5  -31.40   94.79
  10 -10   5  -87.29   76.39
  10 -10   5  -53.59   95.19
   0  10   5   13.80   49.40
  13  -3  -5  107.69   73.99
 -10  13  -5  -44.00  116.49
 -10  13  -5  155.88   97.99
  -3 -10  -5   19.10   87.29
 -13   3   5   11.90  122.39
   3  10   5   88.29   56.89
  10 -13   5 -139.69   85.29
 -10  16  -5   20.90  115.39
  -6 -10  -5 -117.19  108.09
  16  -6  -5  102.99   75.99
  10 -16   5  241.98   96.79
   6  10   5   77.59   70.69
 -16   6   5  137.89  151.18
  -9 -10  -5 1163.98  223.28
  19  -9  -5 1508.35  161.08
  10 -19   5 1450.15  200.48
   9  10   5 1674.33  165.38
 -19   9   5 1655.43  251.77
  20 -11  -5 1797.32  180.58
 -11  -9  -5 1897.41  251.77
 -20  11   5 1448.56  263.37
  11   9   5 1842.32  174.48
  17 -11  -5 1195.58  179.68
  17 -11  -5 1021.20  126.69
  11   6   5 1122.99  116.39
 -17  11   5  901.61  185.68
  14 -11  -5  152.68  124.59
  14 -11  -5    3.20   71.09
  -3  14  -5  -21.90  100.19
  11   3   5   37.50   64.09
 -14  11   5   -3.10  113.69
  11   3   5  -20.20   95.99
  11 -11  -5   89.39   95.99
   0  11  -5  166.38   80.09
  11 -11  -5    1.30   58.99
 -11  11   5  -41.90  103.89
  11   0   5  -84.99   63.59
  11   0   5  -73.69   76.79
   3   8  -5 2036.90  184.68
   8 -11  -5 2082.69  174.38
   8 -11  -5 1952.10  172.18
  11  -3   5 1901.71  171.18
  -8  11   5 1851.61  193.38
  11  -3   5 1969.40  175.58
   5 -11  -5 2060.19  188.68
 -11   6  -5 2211.38  217.58
 -11   6  -5 2364.26  195.08
   6   5  -5 2307.47  201.48
   5 -11  -5 2159.08  191.98
  11  -6   5 2171.38  191.38
   9   2  -5  254.17   63.39
   2 -11  -5  419.96   80.69
 -11   9  -5  201.38  113.89
 -11   9  -5  461.15   88.49
   2 -11  -5  350.96   77.69
  -2  11   5  355.66   64.89
  11  -9   5  412.86   85.39
  11  -9   5  339.27   80.49
  -9  -2   5  177.48  105.79
  12  -1  -5  -16.10   66.39
 -11  12  -5   91.59   90.09
 -11  12  -5 -119.49  117.49
  -1 -11  -5  -18.40   77.69
  -1 -11  -5  -23.10   89.09
   1  11   5   56.49   55.69
  11 -12   5  -62.29  112.59
  11 -12   5   24.40   83.09
 -12   1   5  -42.50  120.89
 -11  15  -5   91.09  118.19
  -4 -11  -5   37.30  101.49
 -11  15  -5  -68.59  136.39
  15  -4  -5   37.60   79.39
  11 -15   5   66.09   92.39
 -15   4   5  -18.20  150.78
   4  11   5   83.69   64.49
  18  -7  -5 1303.67  147.79
   7  11   5  924.51  120.79
  11 -18   5  882.81  137.19
 -18   7   5 1020.60  224.48
  21 -10  -5  911.01  151.88
  10  11   5 1181.88  139.29
 -21  10   5  850.91  245.88
  22 -12  -5  504.35  134.49
  10 -22   5  262.27  142.79
 -22  12   5  284.57  238.08
  12  10   5  554.34  120.49
  19 -12  -5 1140.19  148.69
  12   7   5 1448.66  145.09
 -19  12   5 1524.65  235.18
  16 -12  -5  512.45   93.99
  16 -12  -5  456.05  146.59
  12   4   5  498.35   82.99
 -16  12   5  252.37  152.48
  -1  13  -5   79.99  102.19
  13 -12  -5  225.48  112.19
  13 -12  -5  236.98   68.99
  12   1   5  260.27   87.89
 -13  12   5   88.29  124.49
  12   1   5  157.58   70.39
  10 -12  -5  182.58   67.99
  10 -12  -5  241.88   96.89
   2  10  -5  302.17   93.79
  12  -2   5  344.97   95.49
 -10  12   5  175.28  118.99
  12  -2   5  214.68   74.39
 -12   5  -5 3664.43  336.27
   7 -12  -5 3962.70  315.77
   7 -12  -5 3908.11  313.27
   5   7  -5 4007.50  324.77
  12  -5   5 3976.00  313.47
  -7  12   5 3720.43  329.17
  12  -5   5 4098.69  316.17
 -12   8  -5 1680.83  182.48
 -12   8  -5 1609.24  162.58
   4 -12  -5 1673.83  154.28
   4 -12  -5 1601.14  157.18
  12  -8   5 1582.74  159.18
  12  -8   5 1734.33  155.98
  11   1  -5  -25.70   59.59
   1 -12  -5  -16.00   76.29
   1 -12  -5  -30.30   82.99
 -12  11  -5  141.39  118.29
 -12  11  -5   55.19   88.59
  12 -11   5  -30.60   92.79
  12 -11   5  110.29  104.09
  -1  12   5   28.30   58.89
 -11  -1   5    4.40  129.49
 -12  14  -5  216.68  116.29
 -12  14  -5   -4.60  136.09
  -2 -12  -5   91.09  100.29
  14  -2  -5  139.99   76.89
  -2 -12  -5   54.49   94.79
  12 -14   5  254.07  205.88
 -14   2   5   -2.80  157.48
   2  12   5  121.09   64.49
  12 -14   5  137.39   92.49
 -12  17  -5  635.14  161.28
  17  -5  -5  776.92  108.39
  -5 -12  -5  516.15  130.49
  12 -17   5  415.76  111.69
   5  12   5  690.13   94.19
 -17   5   5  513.15  201.58
  20  -8  -5 1035.80  131.89
   8  12   5  838.92  128.89
 -20   8   5  882.21  246.78
  23 -11  -5  129.59  122.09
 -23  11   5  116.99  260.47
  11  12   5  117.29  119.39
  12 -23   5  -65.29  125.19
  24 -13  -5  114.49  138.29
 -24  13   5 -182.98  244.08
  11 -24   5  178.28  150.68
  13  11   5  200.98  128.19
  21 -13  -5  675.63  116.99
 -13  -8  -5  124.99  210.18
 -21  13   5  136.59  224.78
  13   8   5  571.54  104.09
  18 -13  -5 1161.28  166.08
  13   5   5  868.71  126.99
 -18  13   5  492.95  199.48
  15 -13  -5   83.89   75.49
  15 -13  -5  156.88  119.29
  -2  15  -5 -151.38  107.09
  13   2   5   51.99  112.19
 -15  13   5   25.50  143.29
  13   2   5    0.30   71.99
   1  12  -5  263.87   96.39
  12 -13  -5  286.27   70.39
  12 -13  -5  199.48  105.39
  13  -1   5  202.48   93.09
  13  -1   5  136.49   75.19
 -12  13   5 -101.19  127.19
   9 -13  -5 1259.87  133.69
   9 -13  -5 1153.88  132.09
 -13   4  -5 1027.90  180.48
   4   9  -5 1313.07  152.48
  -9  13   5 1402.86  172.28
  13  -4   5 1329.77  127.09
  13  -4   5 1244.38  137.29
 -13   7  -5  999.40  169.78
 -13   7  -5 1193.18  139.19
   6 -13  -5 1293.47  137.39
   6 -13  -5 1199.18  130.39
   7   6  -5 1373.36  155.48
  13  -7   5 1196.58  133.19
  -6  13   5  914.21  172.08
  13  -7   5 1319.87  129.09
   3 -13  -5  -22.50   84.29
 -13  10  -5  -49.40  118.39
   3 -13  -5   52.29   77.49
 -13  10  -5   -6.70   91.79
  13 -10   5   55.59   83.79
  13 -10   5    3.20   86.79
   0 -13  -5   70.39   94.99
   0 -13  -5  -29.40   87.19
 -13  13  -5    5.50  100.49
  13   0  -5   18.70   64.99
 -13  13  -5   16.70  127.59
   0  13   5   47.40   65.09
  13 -13   5   11.80   98.39
  13 -13   5 -194.98  121.99
 -13   0   5  -79.09  161.28
 -13  16  -5   30.70  158.38
  16  -3  -5  210.08   81.69
 -13  16  -5  141.99  134.59
  -3 -13  -5  155.58  119.29
  -3 -13  -5  416.16  118.59
 -16   3   5 -157.48  189.08
   3  13   5  277.47   79.29
  13 -16   5  188.08   99.89
  -6 -13  -5  234.88  136.09
  19  -6  -5  331.37   92.59
   6  13   5  150.08   93.19
  13 -19   5    5.60   98.89
 -19   6   5  650.23  348.17
  -9 -13  -5  275.67  171.78
  22  -9  -5  437.06  111.19
  13 -22   5   63.19  120.29
 -22   9   5  159.28  262.27
   9  13   5  404.46  110.79
 -14  -9  -5   81.29  241.88
  23 -14  -5   23.20  123.89
 -23  14   5  -28.20  232.88
   9 -23   5   26.90  159.88
  14   9   5   34.50  122.49
  20 -14  -5  162.68   99.79
  20 -14  -5  462.75  172.68
 -20  14   5  461.45  223.58
  14   6   5  188.48   86.49
  17 -14  -5  356.56   96.09
  17 -14  -5  215.78  128.89
  14   3   5   78.09  100.69
  14 -14  -5   63.99   73.69
  14 -14  -5   -3.70  112.19
   0  14  -5  -25.30  121.89
 -14  14   5  -19.10  141.59
  14   0   5  103.69  101.69
  14   0   5   15.00   80.59
  11 -14  -5   -0.20   72.99
  11 -14  -5   -3.40   99.09
   3  11  -5   19.00  101.29
 -11  14   5    8.90  138.19
  14  -3   5   50.69  101.29
  14  -3   5  -26.50   74.09
 -14   6  -5 1650.33  206.18
   8 -14  -5 1726.73  171.18
   8 -14  -5 1970.90  169.58
  -8  14   5 1490.85  208.58
  14  -6   5 1836.12  171.58
  14  -6   5 1830.92  166.68
   5 -14  -5  536.45   94.39
   5 -14  -5  647.64  106.99
  14  -9   5  549.35  114.79
  14  -9   5  708.73   98.59
   2 -14  -5  154.08   95.29
  12   2  -5   25.50   67.69
 -14  12  -5  -66.99  125.69
   2 -14  -5   71.39   92.09
 -14  12  -5  250.77  103.49
  14 -12   5   42.70   88.19
  14 -12   5   84.09  105.89
  -1 -14  -5 -158.88   97.79
  -1 -14  -5  137.09  119.19
 -14  15  -5    4.90  125.19
 -14  15  -5  -87.89  148.99
  15  -1  -5  -50.79   68.69
  14 -15   5 -115.59  152.58
  14 -15   5  -17.60  100.59
 -15   1   5 -337.57  195.48
   1  14   5  -59.89   75.89
  18  -4  -5  138.29   84.19
 -14  18  -5  289.27  208.28
  -4 -14  -5   84.09  141.39
  -4 -14  -5  229.28  141.19
 -18   4   5  146.49  227.28
  14 -18   5   79.49  107.99
   4  14   5  122.49  112.49
  -7 -14  -5  156.98  164.78
  21  -7  -5  162.78   94.39
 -21   7   5  446.06  266.37
  14 -21   5  224.98  111.59
   7  14   5  104.29  107.19
  24 -10  -5  -63.09  111.39
 -10 -14  -5  -28.80  197.88
 -24  10   5   65.69  279.67
  14 -24   5   92.99  126.49
  10  14   5  -36.90  146.59
  22 -15  -5  310.27  119.49
 -15  -7  -5  -98.09  219.28
 -22  15   5  211.68  219.78
  15   7   5   49.50  103.09
  19 -15  -5  188.88   90.29
  19 -15  -5  187.38  141.09
  15   4   5  214.38   75.79
 -19  15   5  420.56  212.48
  16 -15  -5   97.39   88.29
  16 -15  -5   33.90  129.09
  15   1   5  -25.40   75.39
  15   1   5 -146.79  168.58
 -16  15   5 -181.88  176.18
  13 -15  -5   90.59  111.99
  13 -15  -5   19.50   73.59
   2  13  -5  380.26  123.09
  15  -2   5   39.40   74.39
  15  -2   5   54.49  106.29
 -13  15   5  146.39  149.19
  10 -15  -5   96.39   75.79
 -15   5  -5  123.79  134.79
  10 -15  -5   84.19   87.69
  15  -5   5  -39.70   88.59
  15  -5   5  108.99   73.39
 -10  15   5   41.50  146.79
 -15   8  -5   65.39   95.09
   7 -15  -5  -28.30   89.59
 -15   8  -5  -60.29  127.39
   7 -15  -5   37.30   85.49
  15  -8   5   45.50   80.49
  15  -8   5  -92.09   94.89
  -7  15   5 -120.89  152.78
 -15  11  -5   84.09  125.19
   4 -15  -5  -78.59   91.79
 -15  11  -5   37.00  105.49
   4 -15  -5  -12.20   85.49
  15 -11   5  147.69  101.09
  15 -11   5  180.98   97.79
  14   1  -5  117.99   78.59
   1 -15  -5   67.89  107.79
 -15  14  -5  126.29  117.59
   1 -15  -5  -72.69  111.49
 -15  14  -5  -81.09  144.49
  15 -14   5    0.40  129.69
  15 -14   5  -56.79  110.09
 -15  17  -5  -46.10  181.88
  -2 -15  -5  149.09  128.79
 -15  17  -5  425.76  165.68
  17  -2  -5   67.79   80.19
  15 -17   5  -28.20  112.49
 -17   2   5 -138.99  230.18
   2  15   5 -191.08   96.19
  -5 -15  -5  -81.09  170.28
  20  -5  -5   43.60   87.69
  -5 -15  -5 -110.29  153.88
   5  15   5   27.80  109.59
  15 -20   5  102.99  105.29
 -20   5   5  290.87  267.27
  23  -8  -5 -229.48  102.39
  -8 -15  -5    7.20  201.68
  -8 -15  -5  -71.19  189.78
 -23   8   5  -91.79  286.37
   8  15   5  -37.60  137.39
  15 -23   5 -116.89  122.79
  24 -16  -5  291.67  142.89
 -16  -8  -5  118.59  241.48
 -24  16   5  250.77  232.48
   8 -24   5    0.10  188.18
  16   8   5   96.19  131.29
  21 -16  -5   62.29   99.39
  21 -16  -5  -61.49  211.98
  16   5   5 -122.39   93.29
 -21  16   5  352.86  231.08
  18 -16  -5  110.29  102.59
  18 -16  -5   88.19  148.49
 -18  16   5   44.60  207.08
  16   2   5   92.79   84.59
  15 -16  -5   59.09   85.49
  15 -16  -5  107.79  126.99
  16  -1   5  -73.49  124.79
 -15  16   5 -128.99  181.58
  16  -1   5  -34.50   86.19
  12 -16  -5  581.74  101.49
  12 -16  -5  515.95  105.19
  16  -4   5  600.24  100.39
  16  -4   5  570.74  127.89
 -12  16   5  414.86  176.48
 -16   7  -5  207.78  132.79
 -16   7  -5  323.87  148.49
   9 -16  -5  454.65   91.19
   9 -16  -5  500.85  105.09
  16  -7   5  254.37   92.09
  -9  16   5  180.58  163.98
  16  -7   5  493.35  107.49
   6 -16  -5  180.78  107.19
   6 -16  -5  199.78   95.69
 -16  10  -5  201.88  133.29
 -16  10  -5   -5.20  113.79
  16 -10   5  234.48  109.19
  16 -10   5  154.68   97.49
 -16  13  -5    0.90  136.79
   3 -16  -5  362.26  117.69
 -16  13  -5  158.68  123.19
  13   3  -5  102.09   75.49
   3 -16  -5  307.77  105.99
  16 -13   5  261.47  124.39
  16 -13   5   93.79  104.09
 -16  16  -5  -96.59  147.49
  16   0  -5   27.80   89.09
 -16  16  -5  -37.80  233.68
   0 -16  -5 -145.89  126.79
  16 -16   5  345.07  155.58
  16 -16   5  -56.59  154.98
 -16   0   5  -61.59  220.18
  19  -3  -5  139.99   98.49
  -3 -16  -5   75.99  154.48
  16 -19   5  191.38  115.79
  -6 -16  -5  -95.49  178.98
  -6 -16  -5  121.69  196.08
  22  -6  -5  -17.40   92.59
  16 -22   5   66.39  118.29
 -22   6   5  447.06  301.67
 -17  -6  -5   -2.90  229.78
  23 -17  -5  -73.49  127.09
 -23  17   5  193.38  226.88
  17   6   5  -54.49  114.89
  20 -17  -5  240.68  104.29
  20 -17  -5   29.80  150.48
  17   3   5    5.40   77.99
 -20  17   5 -340.47  224.88
  17 -17  -5  -45.80  100.59
  17 -17  -5   88.59  154.38
  17   0   5  -82.69   82.99
 -17  17   5  -73.89  219.58
  14 -17  -5  208.88   88.39
  14 -17  -5  466.85  131.59
 -14  17   5  140.49  195.98
  17  -3   5   77.09  119.99
  17  -3   5  201.38   92.99
  11 -17  -5  994.10  140.49
  11 -17  -5  955.20  147.69
 -17   6  -5 1358.86  190.98
  17  -6   5 1027.60  151.18
 -11  17   5 1188.28  216.28
  17  -6   5 1312.77  135.09
   8 -17  -5 1146.69  148.39
 -17   9  -5 1330.77  161.48
 -17   9  -5  943.41  178.68
   8 -17  -5 1388.26  158.58
  17  -9   5  897.71  150.58
  17  -9   5 1007.70  142.99
   5 -17  -5  833.82  144.79
   5 -17  -5  489.65  119.69
 -17  12  -5  565.94  149.09
  17 -12   5  848.72  147.59
  17 -12   5  795.32  132.09
  15   2  -5   29.70   92.99
 -17  15  -5 -161.88  139.19
 -17  15  -5 -328.07  189.98
   2 -17  -5  -93.29  126.19
  17 -15   5  210.08  146.69
  17 -15   5   -5.50  129.79
 -17  18  -5 -189.78  195.48
  -1 -17  -5  161.18  163.28
  -1 -17  -5  -12.30  142.29
 -17  18  -5  174.58  198.58
  18  -1  -5   27.60  101.79
  17 -18   5  -32.20  125.69
 -18   1   5   16.30  265.27
  21  -4  -5  118.69  116.29
  -4 -17  -5  333.77  198.88
  -4 -17  -5 -112.49  169.58
  17 -21   5  162.08  126.79
 -21   4   5  606.84  291.87
  24  -7  -5  263.27  128.69
  -7 -17  -5  380.56  211.28
  -7 -17  -5  268.17  239.78
  17 -24   5  344.07  137.49
 -24   7   5  -76.59  357.86
  22 -18  -5 -204.08  116.59
  22 -18  -5  315.27  228.58
 -18  -4  -5 -311.47  227.18
 -22  18   5 -259.67  228.08
  18   4   5  -89.89   98.19
  19 -18  -5  -91.39  149.39
  19 -18  -5  104.89  112.59
  18   1   5  -21.70   94.19
 -19  18   5   -3.90  236.78
  16 -18  -5   33.50  175.08
  16 -18  -5   95.19  103.89
 -16  18   5   93.89  228.28
  18  -2   5  292.07  146.89
  18  -2   5   73.79   93.29
 -13  18   5  478.15  233.18
  18  -5   5  340.97  132.09
  18  -5   5  376.06  170.18
  10 -18  -5 2014.50  206.98
 -18   8  -5 2234.18  228.28
 -18   8  -5 1852.11  250.57
  10 -18  -5 2000.80  202.88
  18  -8   5 2008.30  196.18
 -10  18   5 1749.72  277.67
  18  -8   5 2020.40  204.98
 -18  11  -5  955.00  174.98
   7 -18  -5 1061.19  154.38
   7 -18  -5 1130.49  163.48
  18 -11   5  913.51  161.58
  18 -11   5  912.81  152.78
 -18  14  -5   15.70  152.78
   4 -18  -5  280.77  129.89
   4 -18  -5  158.58  128.39
 -18  14  -5  321.07  162.08
  18 -14   5  467.65  135.09
  18 -14   5   22.90  141.79
  17   1  -5   26.60  109.99
   1 -18  -5  304.77  165.48
 -18  17  -5 -173.08  178.18
 -18  17  -5  364.96  182.38
   1 -18  -5   41.80  135.09
  18 -17   5 -109.99  185.78
  18 -17   5  -26.60  121.19
  -2 -18  -5 -181.48  182.78
  -2 -18  -5   96.29  166.88
  20  -2  -5   41.90  117.09
 -20   2   5  113.89  306.87
  18 -20   5 -133.09  134.09
  -5 -18  -5  372.86  200.58
  -5 -18  -5  119.09  247.88
  23  -5  -5  208.18  128.19
  18 -23   5  204.88  144.69
 -23   5   5  333.47  371.96
  21 -19  -5 -144.19  164.48
  21 -19  -5   95.19  132.79
  19   2   5   71.09   90.69
 -21  19   5 -419.26  240.78
  18 -19  -5   26.80  109.89
  18 -19  -5  -80.89  165.18
 -18  19   5  -64.09  246.58
  19  -1   5   66.49   93.89
  15 -19  -5  206.78  147.79
  15 -19  -5  368.36  107.79
 -15  19   5  311.07  229.98
  19  -4   5  191.18   91.49
  19  -4   5  -13.30  158.38
  12 -19  -5 1181.18  166.38
 -19   7  -5 1139.99  173.18
 -19   7  -5 1103.79  217.18
  12 -19  -5 1279.17  169.78
 -12  19   5 1443.56  255.27
  19  -7   5 1439.76  171.48
  19  -7   5 1125.09  174.98
 -19  10  -5 1133.69  214.18
   9 -19  -5 1591.34  174.58
   9 -19  -5 1732.13  181.28
 -19  10  -5 1518.35  199.48
  19 -10   5 1140.39  179.08
  19 -10   5 1316.97  180.78
 -19  13  -5   19.50  154.28
   6 -19  -5  125.79  140.49
   6 -19  -5  268.17  139.29
 -19  13  -5  110.09  164.38
  19 -13   5  455.85  135.69
  19 -13   5  358.96  140.59
   3 -19  -5  -44.40  175.18
   3 -19  -5   44.20  134.19
 -19  16  -5  -95.09  159.88
 -19  16  -5 -280.67  173.18
  19 -16   5  224.08  174.38
  19 -16   5   33.50  126.89
  19   0  -5  254.87  124.49
   0 -19  -5  248.98  191.68
 -19  19  -5  -41.00  221.48
   0 -19  -5  225.48  155.38
 -19  19  -5  496.75  237.58
  19 -19   5  -56.39  131.89
  -3 -19  -5   32.40  223.58
  -3 -19  -5  139.59  189.38
  22  -3  -5  258.17  134.59
  19 -22   5 -173.38  142.49
  20 -20  -5 -332.77  163.78
  20 -20  -5 -223.48  126.49
  20   0   5  -19.70  105.89
 -20  20   5 -241.88  253.57
  17 -20  -5  230.08  114.89
  17 -20  -5  248.28  167.28
 -17  20   5   75.99  247.28
  20  -3   5  108.39  112.79
  14 -20  -5  282.37  112.19
  14 -20  -5  483.45  149.69
 -20   6  -5  317.07  164.48
  20  -6   5  373.96  109.29
  20  -6   5 -102.49  166.28
 -14  20   5  121.79  245.28
  11 -20  -5 1779.52  204.78
 -20   9  -5 1341.97  233.18
 -20   9  -5 1662.53  207.98
 -11  20   5 1485.45  287.77
  20  -9   5 2107.99  223.98
  20  -9   5 1788.22  193.68
 -20  12  -5  913.71  182.78
   8 -20  -5  749.42  165.68
   8 -20  -5 1023.40  166.28
 -20  12  -5  423.26  185.88
  20 -12   5  784.82  144.69
 -20  15  -5 -139.39  167.68
 -20  15  -5   19.50  171.08
   5 -20  -5 -322.57  153.68
   5 -20  -5   94.09  260.47
  20 -15   5  -21.80  188.78
  20 -15   5  146.19  148.39
 -20  18  -5  -64.69  198.08
 -20  18  -5    3.90  194.28
   2 -20  -5  241.48  183.08
   2 -20  -5  179.68  154.68
  20 -18   5  237.78  214.98
  20 -18   5  112.79  141.59
  -1 -20  -5 -377.76  222.58
  -1 -20  -5  -45.40  174.78
  21  -1  -5  297.17  141.39
  20 -21   5 -164.18  139.29
  19 -21  -5   -5.00  123.69
 -21   2  -5  144.69  196.98
  19 -21  -5  181.88  179.98
 -19  21   5   28.60  279.97
  21  -2   5   20.80  102.69
  16 -21  -5  -49.30  117.79
 -21   5  -5   83.29  124.19
  16 -21  -5  -66.39  159.68
 -16  21   5  163.48  277.97
  21  -5   5   85.09  109.99
 -21   8  -5  358.26  139.19
  13 -21  -5  436.56  131.19
  13 -21  -5  318.27  137.19
  21  -8   5  -84.59  165.18
 -13  21   5  295.47  283.67
  21  -8   5  447.26  126.49
  10 -21  -5 1399.06  167.58
 -21  11  -5  550.94  197.68
 -21  11  -5  930.41  190.58
  10 -21  -5  874.71  171.38
  21 -11   5  939.31  166.38
  21 -11   5 1144.39  163.08
   7 -21  -5  142.59  163.48
 -21  14  -5  240.38  177.98
   7 -21  -5  106.49  147.69
 -21  14  -5  215.28  178.08
  21 -14   5   88.09  154.08
  21 -14   5   18.70  160.18
   4 -21  -5  259.77  178.68
 -21  17  -5 -164.38  190.68
 -21  17  -5  -10.00  184.08
   4 -21  -5   -3.50  182.68
  21 -17   5  216.98  171.18
  21 -17   5   95.29  182.58
   1 -21  -5  244.78  240.48
   1 -21  -5  -41.40  176.08
  21 -20   5   22.50  148.99
  18 -22  -5  254.17  188.88
 -22   4  -5  -54.29  133.99
  18 -22  -5 -273.37  134.29
 -18  22   5   98.49  288.47
  22  -4   5 -120.39  124.09
 -22   7  -5   84.59  135.99
  15 -22  -5   66.09  130.49
  15 -22  -5  -89.39  175.68
  22  -7   5   71.69  123.19
  22  -7   5  117.69  193.78
 -15  22   5 -114.99  288.27
  12 -22  -5  351.86  163.18
 -22  10  -5  491.35  170.78
  12 -22  -5  569.24  145.59
  22 -10   5  531.65  159.88
  22 -10   5  374.66  128.19
 -22  13  -5 -134.19  186.98
   9 -22  -5  594.94  153.38
   9 -22  -5  278.17  158.08
 -22  13  -5  286.57  189.38
  22 -13   5  290.67  162.18
  22 -13   5  266.07  154.48
 -22  16  -5  107.49  196.58
   6 -22  -5   40.70  187.58
   6 -22  -5  -12.10  168.98
 -22  16  -5   27.30  189.78
  22 -16   5  152.08  169.48
  22 -16   5  313.87  188.68
   3 -22  -5 -164.38  196.78
   3 -22  -5  535.65  250.57
 -22  19  -5  390.26  236.08
 -22  19  -5 -103.69  240.48
  22 -19   5  175.98  192.68
  22 -19   5  271.07  224.28
  17 -23  -5   58.09  146.19
  17 -23  -5 -230.08  189.68
 -23   6  -5  302.37  149.09
  23  -6   5  -79.09  128.99
 -17  23   5  627.64  323.47
  14 -23  -5  130.19  153.58
  14 -23  -5  254.77  145.49
 -23   9  -5 -183.58  161.48
  23  -9   5  -22.10  197.48
  23  -9   5  101.09  139.09
 -14  23   5  439.36  423.16
  11 -23  -5   96.19  163.08
 -23  12  -5  225.78  193.88
  11 -23  -5  186.78  164.38
  23 -12   5  -64.99  160.48
  23 -12   5  -20.00  151.28
 -23  15  -5 -174.38  213.38
 -23  15  -5 -113.49  204.28
   8 -23  -5  -22.90  165.68
   8 -23  -5 -215.38  182.48
  23 -15   5 -343.97  178.28
  23 -15   5  334.37  163.48
 -23  18  -5   85.49  226.28
   5 -23  -5  255.97  207.48
   5 -23  -5  128.89  285.27
 -23  18  -5  425.96  227.08
  23 -18   5  -23.40  179.18
  23 -18   5  633.74  218.58
 -24   8  -5  -50.29  167.18
  16 -24  -5  188.18  163.08
  16 -24  -5  304.07  203.48
 -16  24   5  830.12  382.76
  24  -8   5  404.66  137.79
  13 -24  -5   38.80  174.08
 -24  11  -5  -53.39  192.18
  13 -24  -5   27.00  171.58
  24 -11   5   70.79  159.98
  24 -11   5 -239.08  206.98
  10 -24  -5   96.39  191.38
 -24  14  -5   26.70  218.98
  10 -24  -5 -112.59  186.78
  24 -14   5 -278.17  174.38
  24 -14   5 -202.38  183.18
   7 -24  -5  150.58  225.78
 -24  17  -5  415.76  232.58
  24 -17   5  112.29  173.28
  24 -17   5  256.57  207.58
   0   0  -6   -8.30   34.70
   0   0  -6  -50.19   47.30
   0   0   6  -24.60   36.40
   2  -1  -6  124.39   53.39
  -1  -1  -6   90.99   36.10
  -1   2  -6  195.78   51.39
  -1  -1  -6   85.49   42.30
   2  -1  -6  129.69   41.90
   1   1   6  117.59   40.60
  -2   1   6  142.29   48.50
   1  -2  -6  144.69   43.40
   1   1  -6  403.56   69.19
  -2   1  -6  276.07   44.00
   1  -2  -6  404.46   69.09
  -1   2   6  224.78   49.20
  -2  -2  -6   55.49   49.20
   4  -2  -6  124.79   48.40
  -2   4  -6   84.09   51.29
   4  -2  -6   48.40   53.99
  -4   2   6   23.70   58.09
   2   2   6   45.80   43.20
   2   2   6   59.79   36.40
   3  -3  -6   83.59   60.09
   3  -3  -6  -30.00   40.50
  -3   0  -6   56.69   49.80
   0   3  -6   80.69   53.89
   3   0   6   65.99   45.00
   3   0   6   65.29   41.40
  -3   3   6   85.39   50.39
   3   0  -6   43.50   58.49
  -3   3  -6  -21.80   41.20
   0  -3  -6   72.89   45.80
   0  -3  -6    2.70   56.59
   0   3   6   76.99   47.40
   0   3   6   70.49   43.10
  -3  -3  -6  523.35   72.69
  -3  -3  -6  473.35   79.29
   6  -3  -6  561.54   83.89
   6  -3  -6  554.84   70.19
  -3   6  -6  568.04   75.59
  -6   3   6  475.85   85.89
   3   3   6  469.25   60.19
   3   3   6  420.66   68.09
  -1   5  -6  130.49   50.59
   5  -4  -6  209.38   58.09
  -4  -1  -6  120.99   67.39
  -5   4   6  123.19   57.89
   4   1   6  141.09   47.20
   2  -4  -6   59.49   42.50
  -4   2  -6   32.80   48.90
   2  -4  -6    7.50   68.69
   2  -4  -6  154.98   58.79
   2   2  -6   20.90   61.09
   4  -2   6  -78.39   50.89
  -2   4   6   80.09   42.20
   4  -2   6   35.90   45.70
  -1  -4  -6  -41.40   49.99
  -4   5  -6   33.20   45.10
  -1  -4  -6  104.89   50.09
   5  -1  -6  180.48   43.10
   5  -1  -6   83.89   56.39
  -1  -4  -6   18.60   47.60
   1   4   6   98.49   41.00
   1   4   6   13.40   48.70
  -5   1   6  105.89   62.39
  -4  -4  -6 1281.57  118.39
  -4  -4  -6 1155.38  113.59
  -4   8  -6 1075.79  116.09
   8  -4  -6 1169.58  107.59
   4   4   6 1193.78  105.09
  -8   4   6 1140.09  124.29
   4   4   6 1184.88  110.19
  -5  -2  -6 1452.15  149.29
   7  -5  -6 1900.71  172.78
   7  -5  -6 1891.31  157.08
  -2   7  -6 1641.34  152.58
   5   2   6 1621.04  145.19
   5   2   6 1894.21  145.49
  -7   5   6 1797.42  159.08
   1   4  -6  183.28   60.89
   4  -5  -6  448.96   92.79
  -5   1  -6  126.39   50.79
  -4   5   6  224.48   67.09
   5  -1   6   40.50   59.29
   4   1  -6   76.89   55.79
   1  -5  -6   95.39   48.20
  -5   4  -6   30.70   52.99
   1  -5  -6  152.58   58.69
   1  -5  -6   78.29   55.79
  -4  -1   6   83.29   59.29
  -1   5   6  141.79   44.50
   5  -4   6   87.59   50.69
   5  -4   6  102.79   70.19
   7  -2  -6  502.45   67.09
  -5   7  -6  494.55   72.39
  -2  -5  -6  548.95   78.69
  -2  -5  -6  470.15   77.79
   7  -2  -6  150.08  125.09
   2   5   6  465.35   78.39
  -5  10  -6 1691.93  149.88
  10  -5  -6 1575.14  134.69
  10  -5  -6 1352.06  219.28
  -5  -5  -6 1382.66  140.09
   5   5   6 1495.25  132.49
   5   5   6 1587.34  142.19
 -10   5   6 1488.05  154.48
   9  -6  -6 1909.61  182.78
   9  -6  -6 1988.00  152.88
  -3   9  -6 1396.96  176.68
  -9   6   6 1822.22  164.38
   6   3   6 2046.00  151.08
   6   3   6 1455.55  151.68
   0   6  -6   50.59   58.79
   6  -6  -6  -97.69   78.69
   6  -6  -6   21.00   85.49
  -6   0  -6  -42.10   50.39
   6  -6  -6   24.30   66.99
   6   0   6  -17.60   56.99
   6   0   6  -39.90   42.10
   3  -6  -6  601.44   80.79
   3   3  -6  607.54   86.49
   3  -6  -6  507.95   87.39
  -6   3  -6  521.15   79.89
   3  -6  -6  506.65   69.19
   6  -3   6  446.36   80.89
  -3   6   6  492.45   92.59
  -3   6   6  630.14   73.19
   6  -3   6  548.15   83.89
  -6   6  -6  -30.40   59.79
   0  -6  -6  -70.59   62.79
   0  -6  -6   92.29   61.09
   0  -6  -6   15.50   50.69
   6   0  -6  -58.19   47.00
  -6   0   6    2.20   60.79
   0   6   6   -8.30   49.90
   9  -3  -6 1545.85  150.28
  -3  -6  -6 1567.74  146.19
  -3  -6  -6 1842.12  176.38
  -6   9  -6 1945.51  152.98
   9  -3  -6 1520.55  139.39
   3   6   6 1680.63  137.99
  -9   3   6 1408.96  155.28
   3   6   6 1544.95  150.78
  12  -6  -6 2831.72  223.38
  -6  12  -6 2419.86  230.68
  -6  -6  -6 2607.14  228.88
   6   6   6 2841.42  232.28
   6   6   6 3035.30  222.18
 -12   6   6 2574.54  241.18
  -7  -4  -6  681.43   99.89
  11  -7  -6  627.74   91.49
  -4  11  -6  753.52  107.49
  11  -7  -6 1039.70  153.08
 -11   7   6  824.32  118.49
   7   4   6  669.63   82.99
  -1   8  -6   15.80   72.39
   8  -7  -6  -22.70   63.89
   8  -7  -6   49.20   54.99
  -7  -1  -6  -44.10   53.69
   8  -7  -6   55.39   95.19
   7   1   6   84.29   64.79
   7   1   6   96.19   48.10
  -8   7   6   52.49   70.39
   5  -7  -6 1835.72  160.88
  -7   2  -6 2099.79  161.38
   5  -7  -6 1530.55  162.68
   7  -2   6 1561.74  150.08
  -7   5  -6  860.31  101.39
   2  -7  -6  626.84   86.69
   5   2  -6  751.22   93.59
   7  -5   6  580.14   94.19
  -2   7   6  729.33  100.69
  -5  -2   6  587.44   96.99
  -1  -7  -6   92.99   61.99
   8  -1  -6  219.98   59.49
  -1  -7  -6  244.18   63.99
  -1  -7  -6  132.69   70.29
   8  -1  -6  182.08   72.99
  -7   8  -6  142.89   68.89
  -8   1   6  229.68  107.99
  11  -4  -6 2701.03  206.98
  -4  -7  -6 2485.75  218.08
  -4  -7  -6 2371.86  213.08
  -7  11  -6 2363.26  214.38
 -11   4   6 2381.06  224.88
   4   7   6 2696.83  203.78
  -7  14  -6  114.69   92.39
  -7  -7  -6  174.98   79.69
 -14   7   6  183.28  109.89
  -5  13  -6   36.20   72.59
  13  -8  -6  130.39   59.59
  -8  -5  -6   64.69   87.09
  13  -8  -6  108.49  155.08
   8   5   6   58.39   53.49
   8   5   6  201.28  142.09
 -13   8   6   47.60  102.99
  10  -8  -6  463.15   78.59
  -2  10  -6  334.17   77.49
  -8  -2  -6  273.37   78.79
  10  -8  -6  569.54  116.89
   8   2   6  465.55   73.39
   8   2   6  552.64   75.89
 -10   8   6  276.67   94.49
   7  -8  -6   87.89   54.29
   7  -8  -6  166.28   86.79
   7  -8  -6   47.50   65.59
   1   7  -6  164.78   77.19
  -8   1  -6  101.89   59.29
  -7   8   6  103.59   74.89
   8  -1   6   38.90   69.39
   4  -8  -6 1366.26  127.19
   4  -8  -6 1203.58  118.59
  -8   4  -6 1324.67  126.19
   4   4  -6 1271.37  126.49
   8  -4   6 1348.17  123.79
  -4  -4   6 1370.16  138.09
  -4   8   6 1201.58  134.79
   8  -4   6 1348.97  126.69
   1  -8  -6  115.09   65.59
   7   1  -6  228.18   71.39
  -8   7  -6  191.58   65.89
   1  -8  -6  215.48   61.79
  -7  -1   6  139.59   75.79
   8  -7   6  161.48   61.59
  -1   8   6   84.39   80.79
   8  -7   6  187.48   66.59
  10  -2  -6  744.93   92.19
  -8  10  -6  710.13  105.29
  -2  -8  -6  547.85   98.79
  -2  -8  -6  578.94  104.69
 -10   2   6  708.73  119.99
   2   8   6  789.42   83.99
  -8  13  -6 2349.17  225.98
  13  -5  -6 2720.23  215.98
   5   8   6 2789.42  213.08
 -13   5   6 2393.96  243.98
  16  -8  -6    6.80   71.29
  -8  -8  -6  -85.69   99.39
  -8  16  -6   37.00  104.99
 -16   8   6   -5.60  133.29
   8   8   6   57.79   65.49
  -9  -6  -6  302.67  109.99
  15  -9  -6  220.08   67.29
  -6  15  -6  247.38   98.69
 -15   9   6  225.38  131.99
  -9  -3  -6  438.06   99.69
  -3  12  -6  329.27   88.59
  12  -9  -6  517.65  176.48
 -12   9   6  398.06  105.59
   9   3   6  512.85   87.79
   9  -9  -6   -7.70   57.39
   9  -9  -6  -29.90  103.09
  -9   0  -6  -20.90   66.69
   0   9  -6   86.39   73.79
  -9   9   6  -13.80   88.19
   9   0   6   67.99   55.19
   9   0   6  -90.49   63.49
   6  -9  -6 1977.50  172.78
   3   6  -6 2116.49  180.68
  -9   3  -6 1945.01  177.38
   6  -9  -6 2263.67  183.38
   9  -3   6 1846.42  178.48
  -6   9   6 2038.80  186.58
   9  -3   6 2173.88  177.98
   6   3  -6 1652.73  156.18
   3  -9  -6 1580.04  152.98
  -9   6  -6 1635.94  155.28
   3  -9  -6 1672.43  144.79
  -3   9   6 1366.96  157.98
  -6  -3   6 1396.66  157.88
  -3   9   6 1858.51  142.79
   9  -6   6 1760.42  149.88
   9  -6   6 1663.83  147.29
   9   0  -6   95.89   58.39
   9   0  -6   48.60   77.19
   0  -9  -6   47.40   65.09
  -9   9  -6   36.50   73.59
   0  -9  -6   64.49   60.59
  -9   0   6  143.79   82.19
   9  -9   6  108.59   83.29
   9  -9   6   97.29   73.49
  -3  -9  -6 1214.08  144.39
  -9  12  -6 1264.57  140.59
  -3  -9  -6 1199.78  146.49
  12  -3  -6 1336.97  125.29
   3   9   6 1277.97  120.19
 -12   3   6 1054.39  159.98
  -9  15  -6  -33.50  102.39
  15  -6  -6  -12.10   68.99
  -6  -9  -6  125.69  110.19
 -15   6   6   40.00  134.19
   6   9   6   13.10   66.89
  -9  -9  -6  705.23  157.68
  18  -9  -6  838.92  133.19
  17 -10  -6  801.92  112.99
 -10  -7  -6 1031.00  148.69
 -17  10   6  644.74  165.98
  10   7   6  985.20  113.69
  14 -10  -6   -9.80   63.99
  -4  14  -6   46.00   89.19
  14 -10  -6   98.49  147.89
  10   4   6  -77.09   53.69
  10   4   6  208.48   94.59
 -14  10   6  118.99  113.79
  11 -10  -6  284.37   62.49
  11 -10  -6  330.57  110.59
  -1  11  -6  207.68   83.79
  10   1   6  308.47   72.99
  10   1   6  144.89   64.09
 -11  10   6  208.28   97.89
   8 -10  -6  452.95   66.69
   8 -10  -6  423.36  100.09
   2   8  -6  222.68   79.09
 -10   2  -6  325.97   75.69
  10  -2   6  436.66   83.39
  10  -2   6  238.18   65.39
  -8  10   6  286.37   99.49
   5   5  -6 1699.93  156.88
   5 -10  -6 1404.46  142.79
 -10   5  -6 1532.55  152.68
   5 -10  -6 1553.94  148.59
  -5  10   6 1611.74  162.78
  10  -5   6 1699.03  146.69
  10  -5   6 1575.14  145.89
   2 -10  -6  689.73   98.09
 -10   8  -6  663.53  105.19
   8   2  -6  786.12  117.49
   2 -10  -6  618.74   99.19
  -2  10   6  839.42   85.29
  -2  10   6  554.44  102.09
  10  -8   6  643.14  102.89
  10  -8   6  729.03   96.99
  -1 -10  -6   85.19   76.49
  11  -1  -6   71.09   63.99
  -1 -10  -6  -86.39   78.89
 -10  11  -6  101.59   89.39
 -11   1   6   19.50   99.39
  10 -11   6  -32.40   81.79
  10 -11   6  212.78  108.39
   1  10   6  147.99   54.49
 -10  14  -6   86.09  100.19
  -4 -10  -6  175.68  108.79
  14  -4  -6  191.38   78.39
   4  10   6  130.39   64.39
 -14   4   6  -42.30  123.59
  -7 -10  -6 -227.08  239.38
  17  -7  -6  -14.90   80.79
 -10  17  -6  115.29  141.99
   7  10   6  -57.09   76.89
 -17   7   6  -67.99  166.58
  20 -10  -6 1014.30  138.09
 -20  10   6  627.04  239.48
  10  10   6 1069.89  138.39
 -11  -8  -6 1491.95  192.28
  19 -11  -6  987.60  127.69
 -19  11   6  826.32  210.58
  11   8   6 1168.38  130.59
  16 -11  -6  861.61  112.59
 -11  -5  -6  945.91  151.08
  16 -11  -6  758.42  179.88
  -5  16  -6  681.83  185.28
 -16  11   6  526.85  148.39
  11   5   6  815.92  103.49
  13 -11  -6  -19.40  114.89
  13 -11  -6  -55.49   65.99
  -2  13  -6  -70.49   93.09
  11   2   6   -5.90   77.69
  11   2   6   54.09   67.79
 -13  11   6  -75.19  110.69
  10 -11  -6  400.56   98.89
   1  10  -6  236.98   80.39
  10 -11  -6  402.76   71.19
 -11   1  -6   70.09   90.69
  11  -1   6  213.38   89.39
  11  -1   6  233.88   70.19
 -10  11   6  141.99  104.29
 -11   4  -6  930.51  107.39
   4   7  -6  656.23  119.19
   7 -11  -6  716.23   94.59
   7 -11  -6  921.01  115.99
  -7  11   6  565.44  123.59
  11  -4   6  774.92  105.09
  11  -4   6  758.12  102.39
 -11   7  -6 2395.26  236.18
   7   4  -6 2443.06  225.78
   4 -11  -6 2696.93  216.38
   4 -11  -6 2510.35  211.98
 -11   7  -6 2510.95  220.38
  -4  11   6 2542.05  231.48
  11  -7   6 2568.34  218.28
  11  -7   6 2668.33  217.38
  10   1  -6  162.98   56.69
   1 -11  -6   40.10   73.49
 -11  10  -6  -44.30  112.39
 -11  10  -6   71.59   83.49
   1 -11  -6  -76.99   75.19
  11 -10   6  -16.70   91.09
 -10  -1   6   80.89  106.19
  -1  11   6   81.49   58.79
  11 -10   6    4.50   78.99
  -2 -11  -6  126.29   89.19
  -2 -11  -6  159.48   96.69
  13  -2  -6   80.59   71.89
 -11  13  -6   23.30  103.49
  11 -13   6  213.08   89.99
   2  11   6  268.57   61.49
 -13   2   6   33.10  129.59
 -11  16  -6  118.39  131.29
  16  -5  -6   87.29   86.19
  -5 -11  -6   38.90  125.39
   5  11   6  -64.09   68.79
  11 -16   6  -43.10   98.49
 -16   5   6  -93.39  154.28
  -8 -11  -6  295.77  158.68
   8  11   6  658.03  106.39
  11 -19   6   98.19  111.49
 -19   8   6  458.75  217.98
  22 -11  -6  371.16  140.79
 -11 -11  -6   -3.30  180.98
  11 -22   6  -24.30  121.29
 -22  11   6  -91.29  251.57
  21 -12  -6  491.15  115.99
 -12  -9  -6  525.25  219.08
  12   9   6  294.87  107.89
 -21  12   6  383.36  235.08
  18 -12  -6 1588.04  161.08
 -12  -6  -6 1287.27  207.88
  12   6   6 1723.63  156.28
  -3  15  -6    3.40  108.49
  15 -12  -6  120.29   73.39
 -15  12   6  100.39  128.49
  12   3   6  132.39   73.69
   0  12  -6  -52.99   87.79
  12 -12  -6   18.20   61.89
  12 -12  -6   15.20  104.89
  12   0   6  119.89   71.09
  12   0   6  -44.40   79.09
 -12  12   6   20.30  111.09
 -12   3  -6  419.66   97.99
   9 -12  -6  633.54  112.79
   3   9  -6  740.33  120.79
  12  -3   6  729.43  100.19
  -9  12   6  530.85  121.49
  12  -3   6  690.63  106.79
   6 -12  -6 2909.21  238.18
 -12   6  -6 2967.00  245.48
   6   6  -6 2736.03  251.77
   6 -12  -6 3036.20  242.38
  -6  12   6 2431.46  258.27
  12  -6   6 3018.50  239.18
  12  -6   6 2883.31  238.98
 -12   9  -6 1395.36  148.29
 -12   9  -6 1204.38  166.98
   3 -12  -6 1189.18  139.09
   3 -12  -6 1477.35  136.99
  12  -9   6 1093.89  138.49
  12  -9   6 1322.87  173.58
  -3  12   6 1629.74  214.58
 -12  12  -6   32.60  125.19
 -12  12  -6  136.19   97.59
   0 -12  -6   89.29   81.59
  12   0  -6   41.10   63.59
   0 -12  -6  108.49   90.59
 -12   0   6 -134.49  125.19
  12 -12   6  -33.90   97.89
   0  12   6  100.59   60.09
  12 -12   6   43.00  121.49
  -3 -12  -6  136.09  107.89
  -3 -12  -6  329.37  115.49
  15  -3  -6  221.68   81.99
 -12  15  -6  228.18  122.19
  12 -15   6  121.29   97.19
 -15   3   6   42.90  159.88
   3  12   6   97.49   67.59
  18  -6  -6   16.90  104.89
  -6 -12  -6  -48.50  181.38
 -12  18  -6   85.49  230.78
 -18   6   6  196.08  205.08
  12 -18   6   77.59  138.69
  21  -9  -6  270.37  108.49
  -9 -12  -6  101.79  162.98
   9  12   6  110.89   98.89
  12 -21   6   77.69  119.49
 -21   9   6  139.29  253.27
 -12 -12  -6 -148.89  224.98
  24 -12  -6  208.18  132.19
 -24  12   6 -159.48  272.67
  12 -24   6   31.60  148.89
  12  12   6    4.10  135.69
  23 -13  -6  263.27  134.49
 -23  13   6  298.57  254.37
  13  10   6  263.27  124.49
 -13  -7  -6  777.42  185.58
  20 -13  -6  856.01  128.99
 -20  13   6  568.74  226.78
  13   7   6  964.80  128.59
  17 -13  -6  264.07  130.69
  13   4   6  166.88  100.09
  14 -13  -6  166.08  117.89
  -1  14  -6 -113.79  111.09
  14 -13  -6   13.30   73.99
  13   1   6  -87.49   90.09
  13   1   6  119.99   73.09
 -14  13   6   92.19  142.79
  11 -13  -6   58.29   98.09
  11 -13  -6  -36.10   68.79
   2  11  -6   -2.20   94.99
  13  -2   6  -27.60   69.69
 -11  13   6  -99.99  124.59
  13  -2   6   15.90   94.39
 -13   5  -6   34.00   83.59
   8 -13  -6   19.80   82.99
   8 -13  -6   82.49   71.89
   5   8  -6  121.99   98.29
  -8  13   6  133.79  118.39
  13  -5   6   82.69   73.49
  13  -5   6  186.08   83.89
 -13   8  -6 2171.48  242.18
   5 -13  -6 2805.22  215.38
 -13   8  -6 2590.04  227.38
   8   5  -6 2307.67  233.58
   5 -13  -6 2629.84  222.08
  13  -8   6 2794.02  219.38
  -5  13   6 2085.99  246.48
  13  -8   6 2615.44  220.78
   2 -13  -6  211.48   94.49
 -13  11  -6  -91.59  118.39
 -13  11  -6  157.88   98.59
   2 -13  -6  163.08   85.39
  13 -11   6  -67.19  106.79
  13 -11   6  129.69   88.69
 -11  -2   6  -58.99  147.69
 -13  14  -6 -107.89  119.29
  14  -1  -6  103.59   68.99
  -1 -13  -6   44.50   92.59
  -1 -13  -6  226.78  106.39
 -13  14  -6  120.89  139.59
   1  13   6  167.08   71.09
  13 -14   6  177.18  107.09
 -14   1   6  187.18  161.08
  -4 -13  -6   91.59  130.39
  17  -4  -6  130.29   89.29
 -13  17  -6  338.97  163.88
  -4 -13  -6  405.76  140.09
   4  13   6  325.37   84.09
 -17   4   6  208.08  206.58
  13 -17   6  267.27  154.18
  20  -7  -6  -43.10   93.49
  -7 -13  -6   17.80  160.08
 -20   7   6  112.79  244.98
  13 -20   6  179.58  112.49
   7  13   6    0.20   88.59
  23 -10  -6  -93.99  109.69
 -10 -13  -6  325.07  194.88
 -23  10   6 -198.18  289.87
  10  13   6 -128.29  116.19
  13 -23   6   -9.20  124.29
  22 -14  -6  253.07  107.09
 -14  -8  -6  124.19  207.78
  14   8   6  136.89  103.29
 -22  14   6 -118.09  239.18
 -14  -5  -6  414.86  172.68
  19 -14  -6  310.97   98.89
  19 -14  -6 -161.28  245.28
 -19  14   6  206.48  199.98
  14   5   6  420.96   83.59
  -2  16  -6  -73.39  166.08
  16 -14  -6  210.98  154.48
  16 -14  -6   90.69   86.29
  14   2   6  294.67   82.39
 -16  14   6   18.10  162.78
  14   2   6   41.40  147.89
  13 -14  -6  131.69  112.49
   1  13  -6  169.08  105.69
  13 -14  -6    4.50   67.59
  14  -1   6  173.28   80.09
 -13  14   6   23.80  143.09
  14  -1   6 -208.88   95.19
  10 -14  -6   26.40   69.29
   4  10  -6  161.48  109.79
 -14   4  -6 -170.58   82.59
  10 -14  -6   63.59  105.19
  14  -4   6   65.49   79.99
  14  -4   6 -169.98   93.59
 -10  14   6  190.68  134.79
   7 -14  -6  287.97   84.19
 -14   7  -6  304.37  129.09
   7 -14  -6  509.05   99.59
   7   7  -6  173.18  110.09
 -14   7  -6  391.76  104.59
  14  -7   6  354.26   88.39
  -7  14   6  103.49  138.89
  14  -7   6  376.76   88.69
   4 -14  -6  284.17   79.59
 -14  10  -6   62.89  123.79
   4 -14  -6  153.08   95.99
 -14  10  -6  258.97  105.79
  14 -10   6  220.28  106.19
  14 -10   6  141.29   94.49
 -14  13  -6  104.39  136.19
  13   1  -6  183.68   77.69
 -14  13  -6   22.50  105.79
   1 -14  -6  135.89   98.09
   1 -14  -6  220.18  103.59
 -13  -1   6    1.60  179.48
  14 -13   6   77.19   95.99
  14 -13   6  -71.39  126.59
  -2 -14  -6   35.90  124.89
  16  -2  -6  149.29   80.19
 -14  16  -6  240.38  151.68
  -2 -14  -6  -74.79  112.79
   2  14   6  186.18   86.99
 -16   2   6  -67.39  205.38
  14 -16   6  -15.90  109.09
  -5 -14  -6  148.29  155.98
  19  -5  -6  -44.00   86.79
  -5 -14  -6  187.78  174.48
 -19   5   6 -178.58  248.98
   5  14   6  105.29   88.89
  14 -19   6  262.27  106.59
  -8 -14  -6 -132.99  184.98
  22  -8  -6 -194.58   97.79
  14 -22   6    5.50  128.69
   8  14   6  188.58  118.19
 -22   8   6  119.89  294.07
  24 -15  -6  -28.70  145.39
 -24  15   6  211.98  258.07
  15   9   6 -128.09  133.69
  21 -15  -6  240.78  106.69
 -15  -6  -6  205.98  181.88
  15   6   6  388.06  100.29
 -21  15   6  400.66  247.88
 -15  -3  -6 -208.98  164.88
  18 -15  -6   36.60   95.79
  18 -15  -6  149.79  151.98
 -18  15   6  104.69  183.38
  15   3   6   22.00   71.29
   0  15  -6 -239.88  136.19
  15 -15  -6  154.78  132.19
  15 -15  -6   44.90   84.99
  15   0   6 -204.38  117.59
  15   0   6  -58.49   81.09
 -15  15   6  172.18  155.88
 -15   3  -6  126.39  118.79
  12 -15  -6  215.58  110.49
  12 -15  -6  191.68   84.79
   3  12  -6  181.68  111.99
 -12  15   6   35.20  158.98
  15  -3   6   69.59   84.39
  15  -3   6  125.29  111.59
   6   9  -6  310.07  126.79
 -15   6  -6  511.25  109.09
   9 -15  -6  249.88   98.19
   9 -15  -6  421.46   87.29
  15  -6   6  425.76   88.19
  -9  15   6  435.36  150.78
  15  -6   6  402.76  100.29
   6 -15  -6  137.89  102.59
 -15   9  -6  -61.19  124.79
   6 -15  -6  113.19   86.69
 -15   9  -6  220.48  111.99
  15  -9   6   55.89   95.79
  15  -9   6   48.80   87.29
  -6  15   6  170.28  152.58
   3 -15  -6   61.39  102.99
 -15  12  -6  -69.79  134.79
 -15  12  -6  243.98  113.79
   3 -15  -6   58.79   93.79
  15 -12   6  102.69  111.79
  15 -12   6   67.59  100.29
 -15  15  -6  213.98  168.18
   0 -15  -6  158.78  118.39
   0 -15  -6   79.59  124.69
 -15  15  -6    8.90  134.99
  15   0  -6  137.29   88.89
  15 -15   6  -31.00  112.69
 -15   0   6  291.17  219.28
  -3 -15  -6  193.28  156.18
  18  -3  -6  163.18   86.89
 -15  18  -6  118.39  194.88
  -3 -15  -6  268.27  149.19
   3  15   6  104.39   97.89
  15 -18   6  155.48  112.49
 -18   3   6 -111.79  246.08
  -6 -15  -6   60.29  176.28
  -6 -15  -6   13.90  178.38
  21  -6  -6  -94.69   97.49
   6  15   6  246.28  122.39
  15 -21   6   45.50  115.59
 -21   6   6  327.37  296.07
  -9 -15  -6  161.78  217.18
  -9 -15  -6  239.48  206.58
  24  -9  -6   -4.50  113.29
 -24   9   6   88.69  311.57
  15 -24   6    9.00  129.49
   9  15   6  -33.80  153.58
  23 -16  -6  143.39  125.49
 -16  -7  -6  -39.10  227.68
  16   7   6  108.19  118.59
 -23  16   6  156.18  251.47
 -16  -4  -6  179.78  166.98
  20 -16  -6 -568.94  347.47
  20 -16  -6   63.59  106.49
  16   4   6  -16.60   84.19
 -20  16   6 -134.39  229.78
  17 -16  -6   24.10   95.79
  17 -16  -6  258.87  164.88
 -17  16   6  -88.29  188.38
  16   1   6  -65.59   86.29
   2  14  -6 -247.78  138.09
  14 -16  -6   75.19   81.49
  14 -16  -6   -5.30  124.59
  16  -2   6  271.67   92.19
 -14  16   6  189.88  177.48
  16  -2   6 -191.88  114.99
  11 -16  -6 1108.79  121.49
 -16   5  -6  972.20  137.39
  11 -16  -6  811.82  138.29
 -11  16   6  532.25  176.78
  16  -5   6  814.22  137.39
  16  -5   6  809.52  124.79
 -16   8  -6  -48.90  109.79
   8 -16  -6   16.90   97.19
   8 -16  -6   84.49   82.39
 -16   8  -6  -20.00  142.39
  16  -8   6  -91.49   93.79
  -8  16   6 -200.78  167.18
  16  -8   6   67.59   94.79
   5 -16  -6  -31.40  117.99
 -16  11  -6   53.89  138.69
 -16  11  -6  148.69  120.79
   5 -16  -6   33.70   94.19
  16 -11   6    4.70  113.29
  16 -11   6   78.69  111.79
   2 -16  -6  -20.90  114.69
 -16  14  -6 -158.78  123.99
   2 -16  -6  112.99  126.89
 -16  14  -6   -2.40  147.89
  16 -14   6  140.09  113.49
  16 -14   6  140.49  145.69
  -1 -16  -6   18.10  142.59
  -1 -16  -6  243.68  146.19
 -16  17  -6  -82.39  175.38
  16 -17   6   51.89  119.49
 -17   1   6 -348.87  258.27
  20  -4  -6   -0.10   96.49
  -4 -16  -6  120.09  172.98
  -4 -16  -6   82.09  169.68
   4  16   6   19.10  120.59
 -20   4   6  155.28  282.27
  16 -20   6  320.57  129.49
  -7 -16  -6  222.98  209.88
  23  -7  -6  139.99  107.09
  -7 -16  -6 -122.99  201.38
 -23   7   6  216.68  321.87
   7  16   6  109.39  147.19
  16 -23   6  -38.60  139.29
 -17  -5  -6 -179.38  196.88
  22 -17  -6 -108.89  119.79
 -22  17   6   11.00  230.68
  17   5   6   60.79  106.69
  19 -17  -6  164.08  110.79
 -17  -2  -6  170.48  152.48
  19 -17  -6  478.05  163.88
  17   2   6  189.38   96.89
 -19  17   6  285.77  239.68
 -17   1  -6 -279.47  149.09
  16 -17  -6  247.08  154.48
  16 -17  -6   72.29   98.29
  17  -1   6 -234.18  136.89
 -16  17   6 -140.59  204.68
  17  -1   6  120.69   92.49
 -17   4  -6  840.72  172.68
  13 -17  -6  798.82  141.49
  13 -17  -6  835.62  125.69
 -13  17   6  423.96  193.28
  17  -4   6  470.85  109.29
  17  -4   6  468.35  132.49
  10 -17  -6  966.50  142.99
  10 -17  -6 1120.69  147.19
 -17   7  -6 1100.79  159.68
  17  -7   6  982.90  135.49
  17  -7   6 1007.30  143.29
   7 -17  -6  104.69  102.19
 -17  10  -6  100.29  147.29
   7 -17  -6   50.09  119.99
 -17  10  -6   32.90  130.19
  17 -10   6   68.29  107.79
  17 -10   6  -27.20  113.39
   4 -17  -6  126.19  110.79
   4 -17  -6  165.38  133.99
 -17  13  -6   84.29  138.49
  17 -13   6  210.18  132.69
  17 -13   6  274.27  212.08
 -17  16  -6  100.39  157.58
 -17  16  -6  116.79  179.88
   1 -17  -6  -59.19  141.59
  16   1  -6  -20.50  103.09
   1 -17  -6   63.49  138.99
  17 -16   6   84.69  112.39
  17 -16   6  166.08  206.98
  -2 -17  -6  195.08  164.48
 -17  19  -6 -326.07  263.77
  -2 -17  -6 -204.28  164.78
  19  -2  -6  -20.20  109.99
 -19   2   6   14.40  299.47
  17 -19   6  -73.49  127.49
  22  -5  -6    8.10  129.89
  -5 -17  -6  -88.89  209.98
  -5 -17  -6   35.50  189.28
  17 -22   6    3.60  135.69
 -22   5   6   58.39  332.97
  21 -18  -6   86.99  249.08
 -18  -3  -6  189.48  179.18
  21 -18  -6  -35.00  118.79
  18   3   6  150.98  106.29
 -21  18   6   55.39  240.88
 -18   0  -6   40.70  132.89
  18 -18  -6  119.79  106.59
  18 -18  -6   96.99  176.38
 -18  18   6  -97.79  241.18
  18   0   6  121.19   95.39
  15 -18  -6  -35.70  269.57
  15 -18  -6  215.18   99.99
 -18   3  -6   88.29  111.89
  18  -3   6 -122.29   98.69
  18  -3   6 -230.28  143.89
 -15  18   6  146.89  213.88
  12 -18  -6 1469.85  175.78
 -18   6  -6 1568.44  184.58
  12 -18  -6 1524.75  173.98
  18  -6   6 1388.56  183.38
 -18   9  -6  718.43  278.57
 -18   9  -6 1093.59  202.28
   9 -18  -6  620.54  137.19
   9 -18  -6  839.22  142.09
  18  -9   6  794.42  139.29
  -9  18   6  205.38  221.48
  18  -9   6  727.23  129.29
   6 -18  -6   55.49  118.79
 -18  12  -6  -17.90  155.78
 -18  12  -6  332.37  267.47
  18 -12   6  173.78  129.29
  18 -12   6  262.57  148.29
 -18  15  -6  -59.99  164.28
   3 -18  -6   57.79  135.39
   3 -18  -6  163.38  132.29
 -18  15  -6  307.67  253.37
  18 -15   6  160.58  162.88
  18 -15   6  240.58  129.69
  18   0  -6 -101.39  111.79
   0 -18  -6   33.20  163.88
   0 -18  -6 -182.88  151.18
 -18  18  -6  118.79  207.18
  18 -18   6  -26.80  125.79
  21  -3  -6  -13.80  128.79
  -3 -18  -6  107.69  192.38
  -3 -18  -6   73.19  186.98
  18 -21   6  172.38  138.79
 -21   3   6 -423.06  327.97
  20 -19  -6  492.95  171.08
 -19  -1  -6  150.58  163.18
  20 -19  -6   26.50  122.79
  19   1   6   34.10  104.79
 -20  19   6 -169.38  244.68
  17 -19  -6  103.29  105.89
  17 -19  -6  -68.69  163.28
 -19   2  -6  239.38  131.49
 -17  19   6  287.87  250.47
  19  -2   6  217.58  103.79
  14 -19  -6  488.05  106.39
 -19   5  -6  393.46  126.99
  14 -19  -6  257.67  150.58
  19  -5   6  193.28  158.08
  19  -5   6  357.16  110.39
 -14  19   6  -93.79  238.68
 -19   8  -6 1454.95  202.08
  11 -19  -6 1464.15  189.48
  19  -8   6 1870.31  221.78
 -19  11  -6  317.47  173.28
 -19  11  -6  468.65  157.68
   8 -19  -6  417.86  129.19
   8 -19  -6  625.44  139.59
  19 -11   6  534.55  141.39
  19 -11   6  399.16  123.89
 -19  14  -6 -150.88  159.08
   5 -19  -6  -68.79  150.08
 -19  14  -6  105.29  173.28
  19 -14   6  166.28  162.18
  19 -14   6  124.99  138.39
   2 -19  -6  333.07  151.88
   2 -19  -6 -160.38  159.68
 -19  17  -6  -23.10  174.68
  19 -17   6   12.70  130.89
  19 -17   6  131.59  218.78
  -1 -19  -6   97.79  174.68
  -1 -19  -6  310.17  196.58
  20  -1  -6 -152.58  132.79
  19 -20   6  151.58  135.09
  22 -20  -6   78.19  139.69
 -20  -2  -6  263.07  203.88
 -22  20   6   15.80  272.07
  20   2   6  148.79  118.99
  19 -20  -6 -106.59  115.79
  19 -20  -6  115.09  180.88
 -20   1  -6   15.40  153.98
  20  -1   6   -1.70  106.29
 -19  20   6 -141.99  263.67
  16 -20  -6   -1.30  109.39
  16 -20  -6  126.59  161.58
 -20   4  -6  113.99  132.59
  20  -4   6   52.79  110.59
  20  -4   6  -80.89  241.28
 -16  20   6  374.26  257.27
 -20   7  -6  981.30  180.68
  13 -20  -6  961.80  175.68
  13 -20  -6 1049.70  174.78
 -13  20   6  976.20  263.77
  20  -7   6 1000.00  147.09
  10 -20  -6  693.23  160.48
  10 -20  -6  994.20  144.89
 -20  10  -6 1138.69  185.88
  20 -10   6  657.13  142.59
  20 -10   6  601.64  149.59
 -20  13  -6  222.98  171.78
   7 -20  -6   96.89  154.68
 -20  13  -6   74.69  177.88
   7 -20  -6  -68.99  133.59
  20 -13   6  -64.89  130.29
  20 -13   6  207.78  166.78
   4 -20  -6   52.29  168.28
   4 -20  -6  -92.39  156.78
 -20  16  -6  223.18  169.78
  20 -16   6  -68.69  157.38
  20 -16   6 -395.46  189.48
 -20  19  -6  355.86  240.08
   1 -20  -6  235.18  175.28
   1 -20  -6 -132.09  193.08
  20 -19   6  -14.50  143.39
  -2 -20  -6  270.97  213.48
  -2 -20  -6  159.18  231.48
  22  -2  -6   55.79  151.88
  20 -22   6  121.49  143.89
  21 -21  -6  296.07  191.68
  21 -21  -6  231.98  137.29
 -21   0  -6   80.89  178.98
  21   0   6   62.79  119.69
 -21  21   6  192.68  289.27
  18 -21  -6  -40.10  119.79
  18 -21  -6 -282.77  185.58
 -21   3  -6  303.57  142.29
 -18  21   6   77.99  292.27
  21  -3   6  260.17  111.09
  15 -21  -6  304.57  176.18
 -21   6  -6  218.68  141.49
  15 -21  -6  224.78  120.19
 -15  21   6  736.83  270.57
  21  -6   6  288.97  124.39
  21  -6   6   55.49  166.58
  12 -21  -6  464.25  133.99
 -21   9  -6  520.75  159.48
  12 -21  -6  308.37  152.88
  21  -9   6  240.28  145.59
  21  -9   6  254.47  137.99
 -12  21   6  -15.20  281.17
   9 -21  -6   25.30  153.48
 -21  12  -6  -70.69  177.98
   9 -21  -6  188.78  135.19
  21 -12   6    3.50  146.59
  21 -12   6  265.87  148.49
 -21  15  -6  459.35  190.88
   6 -21  -6  228.98  168.18
   6 -21  -6  177.58  164.08
  21 -15   6   -4.60  151.98
  21 -15   6   67.19  181.78
   3 -21  -6  116.29  198.38
   3 -21  -6 -320.77  187.88
 -21  18  -6  -38.60  203.38
  21 -18   6 -218.48  263.87
  21 -18   6   85.79  173.88
   0 -21  -6  160.08  202.28
   0 -21  -6  514.65  232.48
  21 -21   6  277.37  151.78
  20 -22  -6 -373.86  213.68
  20 -22  -6  245.78  153.48
 -22   2  -6  107.59  168.38
  22  -2   6    4.80  118.79
 -20  22   6   97.99  302.57
  17 -22  -6  -15.60  192.88
  17 -22  -6  104.09  137.19
 -22   5  -6  331.37  153.28
  22  -5   6  -10.50  132.99
 -17  22   6   21.00  305.47
 -22   8  -6   47.20  171.28
  14 -22  -6  -26.20  129.19
  14 -22  -6  262.57  177.78
 -14  22   6   -7.50  310.07
  22  -8   6  326.37  178.48
  22  -8   6 -133.19  135.69
  11 -22  -6  519.95  147.79
 -22  11  -6  303.17  183.68
  11 -22  -6   67.09  161.48
  22 -11   6  252.97  150.98
  22 -11   6   14.00  153.28
   8 -22  -6  156.88  156.08
 -22  14  -6   94.09  210.98
   8 -22  -6  133.89  171.78
  22 -14   6  185.98  173.58
  22 -14   6   26.00  152.48
 -22  17  -6  -23.10  202.68
   5 -22  -6  262.47  198.98
   5 -22  -6  212.28  202.58
  22 -17   6  -87.09  170.08
  22 -17   6  131.89  211.38
   2 -22  -6  137.99  223.48
   2 -22  -6  494.25  240.08
  22 -20   6  350.56  186.68
 -23   7  -6   75.49  177.58
  16 -23  -6   -9.70  142.09
  16 -23  -6 -267.37  192.38
  23  -7   6   17.30  135.79
 -16  23   6   41.20  331.97
  23  -7   6 -221.98  317.77
 -23  10  -6   47.40  186.98
  13 -23  -6 -100.09  166.98
  13 -23  -6  -92.09  148.59
  23 -10   6 -330.27  187.08
  23 -10   6  101.39  151.48
 -23  13  -6 -113.99  217.18
  10 -23  -6  108.69  158.28
  10 -23  -6 -278.07  184.68
  23 -13   6  -47.40  167.38
  23 -13   6   71.29  166.68
 -23  16  -6  394.86  210.88
   7 -23  -6  169.38  183.48
   7 -23  -6  119.89  190.28
  23 -16   6 -150.88  191.38
  23 -16   6   90.39  160.78
  15 -24  -6 -169.28  214.88
  15 -24  -6   50.09  164.58
 -24   9  -6  169.18  192.08
  24  -9   6  -34.60  221.98
  24  -9   6   41.50  152.78
  12 -24  -6 -122.09  171.68
 -24  12  -6 -220.58  205.48
  12 -24  -6    5.30  191.48
  24 -12   6   44.40  197.58
  24 -12   6    6.70  172.58
   9 -24  -6   36.90  206.58
 -24  15  -6  130.69  220.88
   9 -24  -6  -56.49  193.28
  24 -15   6  -46.60  189.98
  -1   0  -7 1785.92  138.19
   1  -1  -7 1832.32  139.19
   1   0   7 1513.25  142.69
  -1   1   7 1593.14  143.79
  -2  -1  -7  621.04   71.79
  -2  -1  -7  584.94   63.19
   3  -2  -7  487.65   64.19
   2   1   7  378.76   63.99
   2   0  -7 4480.85  325.07
  -2   2  -7 4041.70  324.07
   0  -2  -7 4152.08  323.97
   0  -2  -7 3701.53  320.37
   0   2   7 4257.37  321.87
  -2   5  -7  187.58   58.59
  -3  -2  -7    4.00   57.29
   5  -3  -7   46.30   57.99
  -3  -2  -7   56.09   55.29
   3   2   7  -34.70   43.40
  -5   3   7  138.59   81.39
   3   2   7   42.50   38.40
   2  -3  -7  813.02   95.29
   2  -3  -7  718.73   83.79
  -3   1  -7  696.43   88.29
   1   2  -7  963.20   93.69
   3  -1   7  827.32   87.19
   4  -1  -7   92.19   63.59
  -4   1   7   89.49   61.29
  -3   7  -7   26.80   61.19
   7  -4  -7  -43.30   48.10
   7  -4  -7   54.59   88.79
  -4  -3  -7  104.19   58.99
  -4  -3  -7   50.09   56.39
  -7   4   7   69.19   71.09
   4   3   7  -42.80   47.10
   4   3   7  -30.70   76.59
   4  -4  -7   78.39   47.40
   0   4  -7  231.28   58.89
  -4   0  -7  114.09   54.59
   4  -4  -7   98.79   63.39
   4   0   7  159.48   50.39
   4   0   7   96.19   48.50
  -4   4   7  178.18   63.59
   1  -4  -7  217.08   71.19
   3   1  -7   72.99   67.49
   1  -4  -7  259.87   65.39
  -4   6  -7  236.38   92.99
  -2  -4  -7   37.80   60.69
   6  -2  -7  126.29   42.90
  -2  -4  -7   28.90   52.89
   2   4   7   48.90   54.19
   2   4   7  106.29   45.20
  -6   2   7  120.99   87.09
  -5  -4  -7  184.58  110.29
   9  -5  -7   23.90   47.60
  -4   9  -7   52.09   64.69
  -5  -4  -7  -69.49   75.99
   9  -5  -7  -70.09   77.19
   5   4   7  161.68   56.69
   5   4   7   34.20   45.30
  -9   5   7  -53.89   72.99
  -5  -1  -7   38.60   64.89
  -1   6  -7   86.49   74.99
   6  -5  -7   81.39   47.00
  -5  -1  -7  -44.70   63.89
   6  -5  -7  -43.30   64.69
   5   1   7   71.39   48.00
   5   1   7   26.30   50.59
  -6   5   7   94.69   69.59
   3  -5  -7  139.59   64.49
  -5   2  -7  112.09   61.19
   3  -5  -7  109.39  102.49
   3  -5  -7  227.18   81.39
   2   3  -7  245.88   75.59
  -3   5   7   97.09   53.99
   5  -2   7  151.78   64.69
  -3   5   7   46.80   66.59
   0  -5  -7  -22.70   59.29
  -5   5  -7  -35.60   66.59
   5   0  -7    8.40   68.69
   0  -5  -7  -27.80   55.89
   0  -5  -7   89.99   59.19
   0   5   7   26.10   45.50
  -5   0   7    0.10   70.29
  -3  -5  -7   53.79   65.19
  -3  -5  -7  -26.60   61.69
   8  -3  -7  151.48   48.20
  -8   3   7  214.38   73.39
   3   5   7   92.09   63.59
  -5  11  -7  100.09   71.19
  -6  -5  -7  120.69   87.19
  11  -6  -7  172.88   56.89
  -6  -5  -7   59.79   68.99
   6   5   7  288.87   75.59
 -11   6   7   61.29   92.59
   8  -6  -7  -18.60  122.99
  -6  -2  -7  -21.80   57.79
   8  -6  -7  102.79   51.79
  -2   8  -7    5.10   63.39
   8  -6  -7  -92.19   88.29
  -6  -2  -7   33.60   81.49
   6   2   7  -54.79   49.70
   6   2   7  -16.30   53.99
  -8   6   7  -15.80   70.49
   5  -6  -7   37.60   95.79
   5  -6  -7   35.40   49.20
   1   5  -7   76.79   69.29
  -6   1  -7  100.29   55.79
   5  -6  -7   92.79   68.99
   6  -1   7  251.67   64.19
   6  -1   7  -27.60   46.90
  -5   6   7  158.98   72.39
  -6   4  -7  151.58   58.89
   4   2  -7  195.68   68.89
   2  -6  -7  140.69   50.19
   2  -6  -7  175.18   67.09
   2  -6  -7  111.79   71.29
  -4  -2   7  218.08   79.09
   6  -4   7  205.88   66.59
   6  -4   7    0.00   69.29
  -2   6   7  145.99   76.59
  -2   6   7   89.29   57.99
  -1  -6  -7   12.00   65.89
  -1  -6  -7   13.20   55.79
  -1  -6  -7   24.30   55.49
  -6   7  -7   63.89   60.39
   7  -1  -7   36.10   67.29
   1   6   7   44.00   45.90
  -7   1   7  -41.20   66.29
  -4  -6  -7  729.63  112.39
  10  -4  -7 1131.59  116.19
  10  -4  -7  817.12   95.59
  -6  10  -7  988.80  112.99
  -4  -6  -7  929.31  118.39
 -10   4   7 1053.99  120.89
   4   6   7  797.02   92.29
   4   6   7  598.54  137.89
  -6  13  -7  175.18   91.29
  -7  -6  -7  218.48   83.49
 -13   7   7  241.48  109.29
   7   6   7  273.37   96.39
  -7  -3  -7   54.39   64.09
  -3  10  -7   65.99   71.19
  10  -7  -7    6.30   52.49
  10  -7  -7  269.87  153.48
 -10   7   7   15.20   85.29
   7   3   7   73.69   60.99
   7   3   7  -26.20   49.20
   0   7  -7  127.29   67.39
  -7   0  -7  -56.19   56.09
   7  -7  -7   95.69   97.69
   7  -7  -7   82.19   78.19
   7  -7  -7  108.19   48.70
  -7   0  -7   80.09   91.99
   7   0   7   64.69   53.29
  -7   7   7  152.88   76.89
   7   0   7  102.39   60.59
   4  -7  -7   51.69   71.39
  -7   3  -7  -56.59   57.69
   4  -7  -7  -47.10   92.99
   4  -7  -7   29.10   53.99
   3   4  -7  115.89   65.49
  -4   7   7   56.09   79.59
  -4   7   7   29.10   60.69
   7  -3   7   87.49   55.49
   7  -3   7   52.89   60.39
   1  -7  -7    1.90   62.99
  -7   6  -7  -63.59   63.49
   1  -7  -7 -104.69   72.19
   6   1  -7   58.99   60.69
   1  -7  -7  -17.90   55.19
   7  -6   7   88.39   72.29
  -1   7   7   17.00   81.99
   7  -6   7   -5.00   60.59
  -1   7   7   78.29   43.90
  -6  -1   7  -10.40   66.49
  -7   9  -7  243.28   67.89
   9  -2  -7  197.88   85.89
  -2  -7  -7   34.60   65.79
  -2  -7  -7  188.18   82.49
  -9   2   7  123.19   76.89
   2   7   7  167.28   52.99
  -7  12  -7 1673.03  155.58
  12  -5  -7 1558.74  138.59
  -5  -7  -7 1386.56  163.08
 -12   5   7 1339.77  169.28
   5   7   7 1467.85  135.39
  15  -8  -7  175.78   68.49
  -8  -7  -7  115.19  104.29
  -7  15  -7   93.79   95.29
   8   7   7  158.68   69.09
 -15   8   7 -103.09  119.89
  -8  -4  -7   42.50   71.29
  -4  12  -7  -36.20   74.19
  12  -8  -7  247.68  167.28
  12  -8  -7  -17.30   60.39
   8   4   7    0.20   56.09
   8   4   7  108.39   75.59
 -12   8   7  166.28  100.29
  -1   9  -7  131.69   73.99
  -8  -1  -7   14.10   62.29
   9  -8  -7   43.20   57.79
   9  -8  -7 -118.69  114.49
  -9   8   7    9.50   82.49
   8   1   7  112.29   58.29
   8   1   7   56.59   56.79
   6  -8  -7   41.00   54.09
   6  -8  -7  -75.09   81.99
  -8   2  -7  -32.10   61.99
   2   6  -7   27.80   66.69
   6  -8  -7   37.40   94.09
  -6   8   7  -60.59   76.79
   8  -2   7  -31.70   58.19
   3  -8  -7   90.19   75.79
  -8   5  -7  111.29   63.59
   3  -8  -7  125.19   53.19
   8  -5   7   54.19   72.19
  -5  -3   7  209.88   76.89
  -3   8   7  135.89  102.29
  -3   8   7  228.68   54.29
   0  -8  -7   19.20   64.29
  -8   8  -7    0.80   71.79
   8   0  -7   41.50   59.19
   8   0  -7  -67.99   76.39
   0  -8  -7  -14.30   59.29
   0   8   7   63.29   83.49
   8  -8   7  -19.80   82.39
  -8   0   7  -21.00   74.89
   0   8   7   23.20   50.69
   8  -8   7  -56.99   63.99
  -8  11  -7 1426.86  145.09
  11  -3  -7 1414.86  130.79
 -11   3   7 1307.57  162.98
   3   8   7 1320.67  127.89
  -8  14  -7  451.15  106.89
  14  -6  -7  687.53   89.29
  -6  -8  -7  156.28  108.29
 -14   6   7  417.06  126.09
  -9  -8  -7  176.48  132.79
  17  -9  -7  114.59   82.39
  -8  17  -7  166.28  140.09
   9   8   7   52.79   81.79
 -17   9   7  182.68  153.88
  -9  -5  -7  -44.50   84.29
  -5  14  -7  -20.10   92.29
  14  -9  -7  -82.49   69.59
   9   5   7   62.49  105.29
   9   5   7  -63.19   57.49
 -14   9   7  210.18  113.59
  -2  11  -7   39.00   79.29
  -9  -2  -7  137.19   67.89
  11  -9  -7  117.89  127.09
  11  -9  -7   20.20   60.19
   9   2   7   21.00   60.59
 -11   9   7   18.40   98.99
   9   2   7   17.80   63.19
   8  -9  -7  -38.20   97.29
   1   8  -7  117.29   74.79
  -9   1  -7    2.80   65.69
   8  -9  -7   32.00   52.49
   9  -1   7   55.79   57.19
  -8   9   7    3.70   86.19
   9  -1   7   70.19   75.39
   5  -9  -7   43.40  100.29
   5  -9  -7   73.79   57.59
  -9   4  -7  -29.30   67.19
   4   5  -7  -29.70   62.79
   9  -4   7   -0.90   67.89
   9  -4   7   71.59   72.89
  -5   9   7  -46.40   77.89
  -4  -5   7   77.09   90.89
   2  -9  -7  117.29   70.49
   2  -9  -7  251.67   65.19
   7   2  -7  276.97   78.99
  -9   7  -7   98.29   67.79
  -2   9   7   65.39  126.49
   9  -7   7  -37.10   80.99
   9  -7   7  253.87   74.99
  -2   9   7  189.98   54.99
  -1  -9  -7   45.40   71.59
  10  -1  -7  114.89   66.39
  -1  -9  -7   84.59   71.29
  10  -1  -7   36.30   84.89
  -9  10  -7   23.50   86.29
   1   9   7   54.29   56.49
 -10   1   7  -50.49   88.09
  -4  -9  -7 1026.80  138.49
  -9  13  -7  960.40  144.09
  13  -4  -7 1071.09  114.99
   4   9   7 1053.19  112.49
  -7  -9  -7 -105.79  134.09
  -7  -9  -7  -27.90  125.89
  16  -7  -7  -13.00   77.79
  -9  16  -7  -23.30  124.59
   7   9   7  -17.10   76.79
 -16   7   7   61.19  153.48
 -10  -9  -7  399.96  183.28
  19 -10  -7  280.77   90.39
 -10  -9  -7   76.29  200.58
  10   9   7  300.07   94.69
 -19  10   7  -68.29  192.68
 -10  -6  -7  281.37  108.39
  -6  16  -7  389.96  126.69
  16 -10  -7   97.89   69.59
 -16  10   7   12.20  145.09
  10   6   7  194.78   72.59
  13 -10  -7  518.15  176.58
  -3  13  -7  298.77   93.29
  13 -10  -7  537.55   83.59
 -13  10   7  277.47  115.09
  10   3   7  371.36   93.29
  10 -10  -7   73.09   67.89
 -10   0  -7  -12.00   65.69
  10 -10  -7  -83.39  125.59
   0  10  -7   93.39   82.69
 -10  10   7  187.38  106.39
  10   0   7  109.39   64.19
  10   0   7  124.09   73.59
   3   7  -7  -48.40   74.49
   7 -10  -7   10.20   61.19
 -10   3  -7   66.49   70.49
   7 -10  -7   -6.60  102.19
  10  -3   7  165.78   76.99
  -7  10   7  144.99   93.29
  10  -3   7    0.60   62.79
   4 -10  -7  685.03  117.19
   4 -10  -7 1093.39  104.59
 -10   6  -7  841.12  119.09
   6   4  -7 1212.18  126.69
  10  -6   7 1002.40  113.79
  -4  10   7  809.72  131.69
   9   1  -7   34.90   91.89
   1 -10  -7    0.10   75.19
   1 -10  -7  131.19   69.49
 -10   9  -7  157.98   83.79
  -1  10   7   -8.80   52.49
  -9  -1   7  -73.19   90.59
  10  -9   7  175.78   75.09
  10  -9   7  -58.69   88.69
 -10  12  -7   95.99   98.59
  -2 -10  -7   40.30   84.89
  -2 -10  -7   51.29   86.19
  12  -2  -7  100.09   72.59
   2  10   7   -4.30   61.09
  10 -12   7  115.19   90.79
 -12   2   7  115.09  111.09
  -5 -10  -7  246.18  114.59
  15  -5  -7  210.58   77.99
 -10  15  -7  187.58  114.79
 -15   5   7  136.79  135.69
 -10  18  -7 -121.29  195.28
  -8 -10  -7   20.30  149.99
  18  -8  -7   47.30   87.69
 -18   8   7 -183.58  185.48
   8  10   7   10.00   86.39
 -11 -10  -7  287.27  176.58
  21 -11  -7  215.28  105.69
  11  10   7  245.98  107.89
 -21  11   7 -267.57  251.47
  18 -11  -7  210.58   75.69
 -11  -7  -7  294.67  140.99
 -18  11   7  418.56  168.18
  15 -11  -7  749.42  102.29
  -4  15  -7  464.55  122.49
  15 -11  -7  280.27  185.18
 -15  11   7  508.15  139.59
  11   4   7  606.04  126.29
  -1  12  -7  118.29   90.59
  12 -11  -7  243.58  127.19
 -11  -1  -7  -83.89   79.79
  12 -11  -7   17.20   64.89
 -12  11   7    1.80  113.19
  11   1   7  118.19   68.59
  11   1   7   42.60   74.69
   2   9  -7  -19.30   76.29
 -11   2  -7  -25.90   74.89
   9 -11  -7  122.19  100.29
   9 -11  -7  193.88   61.69
  11  -2   7  102.79   86.39
  11  -2   7  -21.90   67.79
  -9  11   7   61.49  107.19
   6 -11  -7  161.48   69.09
   6 -11  -7  330.87  105.19
 -11   5  -7  114.49   79.69
   5   6  -7  119.79   90.29
  -6  11   7  200.18  102.19
  11  -5   7  296.97   81.19
  11  -5   7  198.68   78.39
   8   3  -7 1482.35  162.78
   3 -11  -7 1252.47  141.39
 -11   8  -7 1485.45  151.48
   3 -11  -7 1419.56  138.29
  11  -8   7 1478.05  144.39
  -3  11   7 1484.15  132.99
  11  -8   7 1027.00  153.48
   0 -11  -7  194.18   81.49
 -11  11  -7  167.98   96.29
   0 -11  -7  185.08   85.39
  11   0  -7  242.08   66.49
 -11   0   7   16.40  115.99
   0  11   7  161.08   63.69
  11 -11   7  -22.60  114.59
  11 -11   7  246.48   90.69
  -3 -11  -7   56.19  106.49
 -11  14  -7  145.69  113.89
  -3 -11  -7  108.19   99.99
  14  -3  -7   84.69   76.79
  11 -14   7   62.29   95.39
 -14   3   7    3.70  129.89
   3  11   7  222.38   68.89
  17  -6  -7  108.29   90.29
 -11  17  -7   52.99  151.98
  -6 -11  -7  124.39  138.09
 -17   6   7  -27.20  170.48
   6  11   7    8.50   89.29
  -9 -11  -7  -90.89  162.98
  20  -9  -7   42.30   97.39
 -20   9   7 -158.78  236.28
   9  11   7    3.50   89.69
  23 -12  -7  115.69  132.79
 -12 -11  -7 -148.49  230.68
 -23  12   7 -195.18  268.67
  12  11   7   64.69  116.09
  20 -12  -7  350.06   96.09
 -12  -8  -7   76.99  209.38
  12   8   7  241.08   90.09
 -20  12   7  342.07  218.48
 -12  -5  -7  474.75  129.39
  -5  17  -7  381.76  191.78
 -17  12   7  308.37  159.48
  -2  14  -7  367.36  110.09
  14 -12  -7  359.46  141.49
  12   2   7  286.77  101.39
  12   2   7  455.45   81.29
 -14  12   7  368.06  132.69
   1  11  -7  120.09   86.89
  11 -12  -7    2.60   73.69
 -12   1  -7  102.89   83.79
  11 -12  -7   96.79  114.59
  12  -1   7   21.80   75.69
 -11  12   7  157.08  111.69
  12  -1   7  -41.10   84.29
   8 -12  -7    3.20  102.09
   8 -12  -7   94.79   66.49
   4   8  -7  153.08   92.59
 -12   4  -7    0.90   77.89
  -8  12   7   16.10  115.89
  12  -4   7  121.59   78.49
  12  -4   7  -85.09   82.29
 -12   7  -7 1156.78  157.38
   7   5  -7 1567.14  165.88
   5 -12  -7 1493.15  153.38
   5 -12  -7 1635.74  143.39
  12  -7   7 1421.06  146.99
  12  -7   7 1327.27  151.58
  -5  12   7 1612.44  175.38
   2 -12  -7   34.30   89.79
   2 -12  -7  -48.90   76.69
 -12  10  -7   79.69   89.29
  -2  12   7  116.59   66.99
 -10  -2   7   -5.10  123.49
  12 -10   7  -12.10   85.59
  -1 -12  -7  769.12  124.99
  13  -1  -7  874.31  106.09
 -12  13  -7  646.24  133.89
  -1 -12  -7  720.83  128.59
  12 -13   7  989.50  129.89
 -13   1   7  450.55  154.38
   1  12   7  816.32   98.49
  16  -4  -7  798.92  121.29
  -4 -12  -7  795.72  150.48
  -4 -12  -7  809.92  142.79
 -12  16  -7 1126.69  178.38
  12 -16   7  840.12  133.69
 -16   4   7  411.16  188.08
   4  12   7  847.32  111.79
  19  -7  -7  150.78   99.79
  -7 -12  -7  -54.59  157.58
   7  12   7  -76.79   88.19
 -19   7   7  129.19  216.48
  22 -10  -7  157.18  115.39
 -10 -12  -7  127.49  187.48
 -22  10   7 -350.16  283.67
  10  12   7  -79.89  110.49
  22 -13  -7  115.79  113.39
 -13  -9  -7  156.28  225.38
  13   9   7  307.67  117.69
 -22  13   7   35.30  271.37
 -13  -6  -7  683.83  167.38
  19 -13  -7  215.48   86.79
  13   6   7  307.37   89.19
 -19  13   7  330.77  191.68
  -3  16  -7  170.68  138.19
  16 -13  -7  335.17   89.49
 -13  -3  -7  257.77  119.79
  16 -13  -7  564.74  179.08
 -16  13   7  465.95  204.78
  13   3   7  715.43  153.08
  13 -13  -7  142.59   75.49
 -13   0  -7   76.39   92.69
   0  13  -7  325.47  112.19
  13 -13  -7   39.20  124.49
  13   0   7   15.50   90.29
 -13  13   7  -10.30  129.39
  13   0   7  137.79   78.29
  10 -13  -7  459.05  111.79
  10 -13  -7  678.03   85.99
   3  10  -7  216.68  101.19
  13  -3   7  484.75  106.29
  13  -3   7  215.88   81.69
 -10  13   7  300.37  123.79
   6   7  -7  322.57  112.09
 -13   6  -7  238.48   95.09
  -7  13   7  261.77  127.89
  13  -6   7  248.38   87.99
   4 -13  -7  994.00  120.49
 -13   9  -7 1070.59  138.99
   4 -13  -7  994.40  132.69
  13  -9   7  826.22  140.09
  13  -9   7  828.32  126.99
   1 -13  -7  429.96  106.49
 -13  12  -7  348.17  109.99
 -12  -1   7  208.88  151.08
  -2 -13  -7 1738.93  183.78
 -13  15  -7 1439.16  202.68
  -2 -13  -7 1433.56  189.38
  15  -2  -7 1613.24  161.48
   2  13   7 1731.43  157.08
  13 -15   7 2105.49  183.68
 -15   2   7 1624.04  252.97
  -5 -13  -7  380.76  163.78
  18  -5  -7  183.38   92.19
 -13  18  -7  -71.59  183.18
  -5 -13  -7  290.07  239.58
 -18   5   7  235.08  376.36
   5  13   7  262.67   86.79
  13 -18   7  300.07  113.49
  -8 -13  -7  170.98  182.78
  21  -8  -7    9.70  102.19
  13 -21   7 -149.09  128.19
   8  13   7   62.99  100.69
 -21   8   7  212.28  276.67
 -11 -13  -7 -388.36  243.68
  24 -11  -7   75.39  119.89
  11  13   7  -17.50  132.29
  13 -24   7 -151.78  158.38
 -24  11   7  -94.99  311.87
  21 -14  -7   73.29   90.49
 -14  -7  -7 -164.78  193.68
  14   7   7  261.77  100.99
 -21  14   7  145.99  243.58
 -14  -4  -7  482.45  142.09
  18 -14  -7  385.76   97.29
  14   4   7  350.06   84.09
 -18  14   7  -56.19  170.38
 -14  -1  -7  222.08  110.69
  15 -14  -7  444.36  148.89
  -1  15  -7  443.66  132.29
 -14   2  -7  300.17  100.59
  12 -14  -7  408.26  126.89
   2  12  -7  300.27  105.39
  12 -14  -7  312.77   79.69
 -12  14   7  539.55  146.49
  14  -2   7  235.48  101.09
   5   9  -7   10.00  104.79
 -14   5  -7 -174.38   95.19
   9 -14  -7   29.80  112.19
   9 -14  -7   -4.10   79.69
  14  -5   7    7.60   86.49
  14  -5   7   28.40   92.49
  -9  14   7   67.09  134.29
   8   6  -7  465.95  119.79
 -14   8  -7  370.66  107.79
   6 -14  -7  271.17  100.89
  -6  14   7  430.06  148.29
  14  -8   7  344.27   96.29
 -14  11  -7  269.97  107.89
   3 -14  -7  258.57  106.39
   3 -14  -7  248.28   90.39
  14 -11   7   75.19  103.39
  14 -11   7  145.79  115.19
   0 -14  -7 1639.94  207.38
   0 -14  -7 2026.00  203.38
 -14  14  -7 1766.12  223.78
  14   0  -7 2092.09  187.58
 -14   0   7 2212.18  275.47
   0  14   7 2074.79  182.88
  14 -14   7 2286.67  197.48
  -3 -14  -7 1206.38  188.08
 -14  17  -7 1269.27  228.48
   3  14   7 1241.08  140.89
  14 -17   7 1335.97  170.58
 -17   3   7 1465.35  252.77
  -6 -14  -7  262.27  165.98
  -6 -14  -7  189.28  171.18
  20  -6  -7   -4.60   94.39
 -20   6   7  103.99  272.17
  14 -20   7  243.88  122.99
   6  14   7  213.88  103.79
  -9 -14  -7  448.36  226.68
  -9 -14  -7  -97.69  202.88
  23  -9  -7   -1.00  109.39
   9  14   7  187.48  135.29
  14 -23   7    5.80  132.39
 -23   9   7 -101.19  310.57
 -15  -8  -7   65.39  270.37
 -15  -8  -7  246.98  274.07
  23 -15  -7  170.78  124.99
 -23  15   7 -169.08  250.67
  15   8   7  173.08  121.59
  20 -15  -7 1505.25  171.78
 -15  -2  -7  305.17  134.39
  17 -15  -7  606.74  193.38
 -17  15   7  448.56  183.78
  14 -15  -7 1327.57  145.59
   1  14  -7 1030.50  181.68
 -14  15   7 1232.48  213.98
  15  -1   7 1402.86  145.69
   4  11  -7  576.14  131.59
 -15   4  -7  343.77  109.89
  11 -15  -7  509.45  127.69
  11 -15  -7  835.12  110.69
  15  -4   7  591.94  119.79
 -11  15   7  487.15  159.18
  15  -4   7  691.03  111.49
 -15   7  -7    9.10  109.29
   8 -15  -7  123.29   86.49
   8 -15  -7  249.88  121.69
   7   8  -7  181.88  116.29
  15  -7   7  149.49   91.99
  15  -7   7  188.38   95.99
  -8  15   7  190.98  153.68
   5 -15  -7  190.48   88.79
   5 -15  -7  335.07  116.19
 -15  10  -7  385.56  121.89
  15 -10   7  178.08  104.09
  15 -10   7  335.77  116.59
   2 -15  -7 1626.84  181.28
 -15  13  -7 1406.06  192.18
   2 -15  -7 1374.06  185.78
  15 -13   7 1847.72  175.48
  -1 -15  -7 1845.22  212.18
 -15  16  -7 1712.73  232.18
  -1 -15  -7 1694.23  296.97
  16  -1  -7 1886.31  183.68
 -16   1   7 1603.94  305.37
  15 -16   7 1792.42  191.88
  -4 -15  -7  607.04  165.98
 -15  19  -7  661.73  224.88
  -4 -15  -7  821.72  176.08
  15 -19   7  690.93  142.09
   4  15   7  783.32  121.79
 -19   4   7  546.25  279.47
  -7 -15  -7  -56.99  190.68
  -7 -15  -7 -206.28  183.28
  22  -7  -7 -154.88  102.79
 -22   7   7  104.09  330.27
  15 -22   7   33.50  138.69
   7  15   7   50.49  130.79
 -16  -6  -7 -228.68  218.08
  22 -16  -7 -121.69  110.49
  16   6   7 -101.09  111.49
 -22  16   7  274.87  274.07
 -16  -3  -7  180.38  147.09
  19 -16  -7  203.28  104.19
 -19  16   7  517.65  222.68
  16   3   7   62.39   76.89
 -16   0  -7 1042.50  157.88
  16 -16  -7  660.73  173.68
   0  16  -7  584.44  167.38
  13 -16  -7  422.66  142.09
 -16   3  -7  155.78  129.79
   3  13  -7  291.77  129.89
 -13  16   7  831.62  185.58
  16  -3   7  291.67  116.19
   6  10  -7  437.46  138.29
  10 -16  -7  146.59   86.49
  10 -16  -7  305.57  130.49
 -16   6  -7  355.76  111.29
  16  -6   7   88.29  111.39
  16  -6   7  242.18  101.29
 -10  16   7  193.08  163.48
   7 -16  -7  164.88   93.39
 -16   9  -7   86.99  123.79
   7 -16  -7   77.39  113.79
  16  -9   7  -90.09   94.19
  -7  16   7  160.88  166.28
  16  -9   7   30.10  104.19
   4 -16  -7  529.45  116.69
 -16  12  -7  536.05  140.89
   4 -16  -7  694.13  146.89
  16 -12   7  468.05  141.89
  16 -12   7  886.61  141.49
   1 -16  -7 1770.92  199.48
 -16  15  -7 1315.57  216.48
  16 -15   7 1642.24  182.38
  18  -2  -7  656.03  127.59
 -16  18  -7  528.35  218.78
  -2 -16  -7  427.36  166.68
  -2 -16  -7  892.21  172.88
  16 -18   7  880.41  145.19
  21  -5  -7  100.29  101.99
  -5 -16  -7  460.15  190.18
  -5 -16  -7   98.49  189.38
 -21   5   7   54.49  315.07
   5  16   7  500.75  133.99
  16 -21   7  -64.49  134.99
  21 -17  -7  -13.90  111.79
 -17  -4  -7   16.20  188.08
  17   4   7  156.58  104.49
 -21  17   7 -122.99  255.07
  18 -17  -7  440.46  330.27
  18 -17  -7  267.57  107.69
 -18  17   7  666.83  222.38
  17   1   7  446.96  102.49
  15 -17  -7  485.35  166.08
 -15  17   7  696.03  208.88
  12 -17  -7  404.56  141.39
  12 -17  -7  476.95  103.69
  17  -5   7  348.17  129.69
 -12  17   7  353.36  189.58
 -17   8  -7  141.69  168.28
   9 -17  -7  117.29   94.69
   9 -17  -7   32.70  118.79
  17  -8   7  409.46  111.09
  -9  17   7  273.67  199.58
  17  -8   7  118.99  108.09
   6 -17  -7  105.79  107.59
 -17  11  -7 -112.79  146.09
   6 -17  -7   84.69  127.59
  17 -11   7  323.37  163.08
  17 -11   7   11.90  129.69
   3 -17  -7  692.53  211.88
 -17  14  -7 1239.48  224.38
   3 -17  -7 1237.58  174.58
  17 -14   7  899.51  189.78
  17 -14   7 1245.68  169.38
   0 -17  -7  820.72  168.78
   0 -17  -7  456.35  167.08
 -17  17  -7  582.24  217.38
 -17   0   7  518.05  302.47
  -3 -17  -7   77.19  180.98
  20  -3  -7   16.10  125.79
  -3 -17  -7   67.79  180.38
  17 -20   7   47.50  126.39
 -20   3   7  259.57  324.67
  23  -6  -7   46.40  140.99
  -6 -17  -7  254.77  226.28
  -6 -17  -7  -61.29  235.18
 -23   6   7  355.76  376.76
  17 -23   7  -71.49  139.39
 -18  -2  -7  114.89  173.98
  20 -18  -7  138.99  113.89
 -20  18   7  443.36  262.07
  18   2   7   32.90   86.39
 -18   1  -7   87.29  134.39
  17 -18  -7  185.08   97.99
  17 -18  -7   78.89  180.38
  18  -1   7 -292.67  173.58
 -17  18   7  385.56  220.78
  18  -1   7  265.77  100.59
  14 -18  -7  441.26  308.37
  14 -18  -7  250.27   94.79
 -18   4  -7  453.65  131.39
  18  -4   7  220.68  109.19
 -14  18   7   77.29  213.48
  18  -4   7  165.18  125.69
  11 -18  -7  100.99  152.28
  18  -7   7    0.80  145.99
 -11  18   7  121.59  201.28
  18  -7   7   88.09  137.79
   8 -18  -7   83.19  231.38
 -18  10  -7   80.79  145.39
   8 -18  -7  -17.60  106.79
  -8  18   7  150.58  212.58
  18 -10   7    3.80  129.39
  18 -10   7  -16.10  124.89
   5 -18  -7  426.16  155.18
 -18  13  -7  266.57  156.28
   5 -18  -7  513.65  170.88
  18 -13   7  338.27  130.69
  18 -13   7  -17.40  165.18
 -18  16  -7  421.36  171.58
   2 -18  -7  658.03  158.78
   2 -18  -7  741.23  169.98
  18 -16   7  779.32  150.88
  -1 -18  -7  313.47  183.68
 -18  19  -7  -79.49  223.78
  19  -1  -7  200.08  124.09
  -1 -18  -7  -10.00  182.18
 -19   1   7  488.65  545.95
  18 -19   7   84.89  132.19
  22  -4  -7  -80.79  141.39
  -4 -18  -7 -257.77  222.38
  -4 -18  -7  138.69  203.08
 -22   4   7  520.15  384.96
  18 -22   7   15.80  133.79
 -19  -3  -7  149.88  223.68
  22 -19  -7  145.99  123.09
  19   3   7   36.80  114.89
 -22  19   7 -232.48  266.87
  19 -19  -7 -182.88  182.88
 -19   0  -7  -70.89  164.58
  19 -19  -7    3.60  117.29
  19   0   7  123.09  105.89
 -19  19   7  166.88  272.17
  16 -19  -7  435.06  174.88
 -19   3  -7   40.10  134.89
  16 -19  -7  -86.99   98.39
  19  -3   7  134.09  109.29
  19  -3   7  259.57  210.18
 -16  19   7   47.50  242.88
  13 -19  -7  615.44  155.38
  13 -19  -7  286.77  116.79
 -19   6  -7  396.96  150.18
  19  -6   7   56.69  117.39
  19  -6   7  343.27  155.78
 -13  19   7 -131.99  224.08
 -19   9  -7  528.35  157.98
  10 -19  -7  352.76  118.89
  10 -19  -7  522.95  164.18
  19  -9   7  596.84  180.58
 -10  19   7  114.89  233.88
  19  -9   7  199.78  127.49
 -19  12  -7  134.39  164.48
   7 -19  -7 -266.87  144.09
   7 -19  -7 -114.39  126.89
  19 -12   7  -46.90  112.89
  19 -12   7  -95.49  154.48
   4 -19  -7  826.72  178.38
 -19  15  -7  106.59  159.18
   4 -19  -7  490.35  148.09
  19 -15   7  505.35  197.18
  19 -15   7  481.95  149.79
   1 -19  -7   94.69  180.28
   1 -19  -7  138.19  170.78
 -19  18  -7  440.66  211.18
  19 -18   7  -55.69  154.78
  21  -2  -7   39.10  147.19
  -2 -19  -7   75.49  210.08
  -2 -19  -7  430.36  210.08
  19 -21   7 -110.49  135.89
  21 -20  -7  -20.20  126.49
 -20  -1  -7   96.59  190.28
  20   1   7  101.19   99.39
 -21  20   7  -28.50  278.27
  18 -20  -7   -5.40  121.79
  18 -20  -7  296.37  207.38
 -20   2  -7   50.99  163.28
  20  -2   7 -140.19  107.69
 -18  20   7   81.99  274.27
  15 -20  -7  216.08  107.59
  15 -20  -7  -43.50  171.08
 -20   5  -7   80.89  153.08
  20  -5   7  143.39  116.99
 -15  20   7  -42.10  259.67
  20  -5   7 -188.08  146.89
 -20   8  -7  606.64  165.88
  12 -20  -7  276.27  165.58
  12 -20  -7  459.65  123.09
  20  -8   7   81.09  149.29
  20  -8   7  554.44  134.09
 -12  20   7  425.96  254.57
 -20  11  -7   32.40  172.88
   9 -20  -7  132.49  122.89
   9 -20  -7 -238.58  149.39
  20 -11   7  119.69  139.29
  20 -11   7  -46.20  139.19
   6 -20  -7   32.70  149.39
 -20  14  -7  132.99  177.88
   6 -20  -7  309.27  170.58
  20 -14   7  131.39  136.39
  20 -14   7  100.79  174.78
 -20  17  -7  107.99  189.98
   3 -20  -7  179.68  166.58
   3 -20  -7  -89.49  186.58
  20 -17   7  -47.30  158.38
   0 -20  -7 -405.36  198.28
 -20  20  -7   99.39  427.16
   0 -20  -7   28.80  206.18
  20 -20   7  333.77  154.28
 -21   1  -7    4.30  177.08
  20 -21  -7   -2.10  146.79
 -20  21   7  245.78  307.57
  21  -1   7  113.99  121.39
 -21   4  -7   -8.90  156.28
  17 -21  -7 -100.89  125.09
  17 -21  -7  475.65  204.48
 -17  21   7  157.58  285.77
  21  -4   7  -52.79  122.09
 -21   7  -7  268.27  167.48
  14 -21  -7   64.99  119.29
  14 -21  -7  178.38  178.58
  21  -7   7   54.39  163.28
  21  -7   7  380.66  138.59
 -14  21   7  621.74  267.97
  11 -21  -7  204.68  126.09
  11 -21  -7  -10.70  180.38
 -21  10  -7  228.88  179.58
 -11  21   7  590.94  322.47
  21 -10   7   61.09  148.99
  21 -10   7   -1.20  143.39
   8 -21  -7   40.90  137.89
   8 -21  -7  178.68  163.58
 -21  13  -7 -267.87  192.08
  21 -13   7   -1.00  145.29
  21 -13   7  -75.09  160.58
 -21  16  -7  -77.19  186.88
   5 -21  -7 -166.68  179.08
   5 -21  -7    8.80  176.98
  21 -16   7  146.49  202.58
  21 -16   7  -96.99  153.38
 -21  19  -7 -533.45  250.67
   2 -21  -7  115.39  221.38
   2 -21  -7   61.69  199.18
  21 -19   7  -31.90  172.88
  19 -22  -7   36.80  139.39
  19 -22  -7  393.06  244.78
 -22   3  -7  198.38  187.18
 -19  22   7  155.48  327.57
  22  -3   7  -79.09  123.09
  16 -22  -7   73.59  133.09
  16 -22  -7  108.39  197.18
 -22   6  -7   13.40  175.78
  22  -6   7  297.27  187.08
  22  -6   7   75.39  144.69
 -16  22   7   87.39  299.87
 -22   9  -7  180.48  176.78
  13 -22  -7  220.28  143.99
  13 -22  -7  128.89  189.48
  22  -9   7  382.86  156.98
  22  -9   7  137.79  175.88
 -13  22   7   14.40  307.57
  10 -22  -7  171.58  199.38
  10 -22  -7   87.99  145.09
 -22  12  -7  271.47  199.78
  22 -12   7  102.99  152.98
 -22  15  -7  -98.49  199.48
   7 -22  -7  -52.89  176.58
   7 -22  -7 -304.77  209.38
  22 -15   7 -152.18  179.78
  22 -15   7   -5.60  150.58
   4 -22  -7  498.95  215.28
   4 -22  -7 -158.18  206.58
 -22  18  -7   32.70  232.98
  22 -18   7 -138.29  167.68
 -23   8  -7   98.79  179.38
  15 -23  -7    6.30  145.09
  15 -23  -7  435.26  213.08
  23  -8   7   42.40  154.58
  23  -8   7 -139.89  186.18
 -15  23   7   99.19  353.46
  12 -23  -7  113.39  157.98
  12 -23  -7   28.60  208.38
 -23  11  -7   54.89  214.78
  23 -11   7   93.09  189.38
  23 -11   7  -96.69  165.58
 -23  14  -7  340.47  223.08
   9 -23  -7  193.48  166.18
   9 -23  -7  -57.59  201.38
  23 -14   7   41.20  174.38
  23 -14   7  144.29  181.08
   6 -23  -7 -260.87  190.38
 -23  17  -7  172.68  229.68
   6 -23  -7  -77.19  212.58
  23 -17   7  340.47  216.18
  23 -17   7  354.66  160.28
 -24  13  -7  227.58  231.28
  11 -24  -7   92.89  187.28
  11 -24  -7  -94.39  232.58
  24 -13   7  176.68  195.78
  24 -13   7  246.48  186.58
   1   0  -8 4085.39  301.57
   0  -1  -8 3377.06  294.47
   1   0  -8 3562.04  294.47
  -1   1  -8 4167.88  301.27
   0  -1  -8 3985.10  299.97
   1  -1   8 3937.41  294.67
  -1   0   8 3954.70  295.57
   0   1   8 3238.88  296.17
   2  -2  -8 2474.65  204.98
  -2   0  -8 3052.29  210.88
  -2   0  -8 2504.75  203.78
  -2   2   8 2535.35  207.18
   2   0   8 2314.07  206.18
   3  -1  -8 2775.12  220.98
  -1  -2  -8 2849.51  227.38
   1   2   8 2607.34  220.48
  -3   1   8 2816.02  226.48
  -3  -1  -8 1181.18  114.19
   4  -3  -8 1086.99  118.59
  -1   4  -8 1135.09  111.49
  -4   3   8 1143.49  119.69
   3   1   8  917.61  100.89
   1  -3  -8 2891.41  219.68
  -1   3   8 2712.03  213.28
   3  -2   8 2374.36  214.18
   5  -2  -8  370.66   82.09
  -2  -3  -8  509.05   67.69
  -3   5  -8  469.45   80.79
  -2  -3  -8  462.65   80.89
   2   3   8  408.76   70.09
   2   3   8  429.36   63.79
  -5   2   8  573.34   88.89
  -4  -2  -8   -1.90   72.49
  -2   6  -8  146.29   60.89
   6  -4  -8  -24.10   53.99
  -4  -2  -8  -79.59   66.29
   6  -4  -8  131.89   99.59
   4   2   8    8.20   47.90
  -6   4   8   99.59   70.89
   3  -4  -8 1154.48  109.59
  -4   1  -8  852.11  108.09
   1   3  -8 1032.70  105.29
  -3   4   8  989.90  119.49
   4  -1   8 1003.90   98.19
   4  -1   8  784.62   97.69
  -3   4   8  857.11   98.69
  -4   4  -8  957.40  100.69
   0  -4  -8  892.51   96.79
   0  -4  -8 1016.20  106.19
   0  -4  -8  949.11  124.89
   4   0  -8 1063.19  108.69
  -4   0   8  873.11  122.29
   0   4   8  866.21   94.09
   0   4   8  944.01  101.69
   7  -3  -8  204.58   77.99
  -4   7  -8  198.48   67.29
  -3  -4  -8   97.19   72.69
   7  -3  -8  151.18   49.50
  -3  -4  -8   11.90   62.79
   3   4   8   53.89   57.59
   3   4   8  117.99   49.90
  -7   3   8  188.38   76.59
  -3   8  -8  251.97   68.99
   8  -5  -8  163.28   77.99
  -5  -3  -8    0.50   65.49
  -5  -3  -8   17.70   64.99
   8  -5  -8   25.60   52.89
  -8   5   8  147.99   81.99
   5   3   8   83.29   49.20
   5   3   8   17.20   54.39
   0   5  -8   88.29   62.09
  -5   0  -8  110.49   61.19
   5  -5  -8  -78.79   68.19
   5  -5  -8   54.89   47.80
  -5   5   8   12.70   75.29
   5   0   8  -47.20   50.79
   5   0   8  -52.49   52.99
   2  -5  -8  269.67  123.99
   2  -5  -8  429.06   78.79
   2  -5  -8  427.46   70.09
  -5   3  -8  630.04   78.39
   3   2  -8  611.04   91.59
   5  -3   8  473.85   78.09
  -2   5   8  541.05   70.59
   6  -1  -8  259.57   72.89
  -5   6  -8  536.55   74.19
  -1  -5  -8  425.16   80.79
  -1  -5  -8  420.36   68.39
  -6   1   8  394.06   84.59
   1   5   8  244.68   56.39
   9  -4  -8  373.36   61.29
  -4  -5  -8  204.78   82.89
   9  -4  -8  395.46   95.79
  -4  -5  -8  228.28   72.49
   4   5   8  114.89   65.69
  -9   4   8  378.46   86.19
   4   5   8  215.58   58.69
  10  -6  -8  870.81  120.79
  10  -6  -8 1049.70   98.09
  -4  10  -8  877.71  117.89
  -6  -4  -8  790.62  119.79
  -6  -4  -8  706.83  115.49
   6   4   8  971.10   96.99
 -10   6   8  856.81  128.09
   6   4   8  870.91  102.99
   7  -6  -8  549.05  150.48
   7  -6  -8  217.48  126.19
  -6  -1  -8   67.09   75.09
  -1   7  -8  186.68   63.69
  -6  -1  -8  118.59   63.89
   7  -6  -8  135.79   56.79
   6   1   8  103.09   52.79
  -7   6   8  172.58   83.19
   6   1   8  103.69   58.59
   4  -6  -8   70.09   74.29
   4  -6  -8  245.48  113.09
   4  -6  -8   83.69   51.59
   2   4  -8  136.49   72.59
  -6   2  -8   58.09   60.29
  -4   6   8  115.79   80.99
   6  -2   8  -10.20   55.79
   6  -2   8   54.19   66.49
  -4   6   8  142.49   66.39
   5   1  -8  336.67   69.79
   1  -6  -8  243.88   60.39
   1  -6  -8  302.47   78.69
   1  -6  -8  406.46   84.59
   6  -5   8  440.26   76.19
  -5  -1   8  402.86   82.09
   6  -5   8  152.58   66.99
  -1   6   8  214.68   50.79
  -2  -6  -8  492.65   76.49
  -6   8  -8  480.75   80.39
   8  -2  -8  246.98   61.79
  -2  -6  -8  359.66   83.39
   8  -2  -8  411.26   84.69
   2   6   8  395.46   65.99
  -8   2   8  370.56   88.59
  11  -5  -8 1725.03  158.78
  -5  -6  -8 1826.62  172.58
  -6  11  -8 1780.62  172.08
  -5  -6  -8 1878.01  176.18
   5   6   8 1710.43  156.18
 -11   5   8 1877.31  184.38
  12  -7  -8 1298.07  123.49
  -7  -5  -8 1210.28  158.18
  -7  -5  -8 1339.97  143.89
  -5  12  -8 1277.27  140.39
   7   5   8 1110.09  120.59
 -12   7   8 1412.36  162.88
   7   5   8 1001.10  134.29
  -7  -2  -8  132.99   70.69
   9  -7  -8  -69.19   92.59
  -7  -2  -8  105.79   85.09
   9  -7  -8  175.18   56.49
  -2   9  -8   19.50   64.89
   9  -7  -8  212.08  154.78
  -9   7   8   31.00   88.39
   7   2   8   90.49   53.89
   7   2   8   32.00   55.59
   1   6  -8  207.98   79.99
   6  -7  -8  496.95   97.29
   6  -7  -8  417.16  112.09
   6  -7  -8  348.07   63.89
  -6   7   8  374.16   88.29
  -7   4  -8  189.68   66.29
   3  -7  -8  129.19   77.99
   4   3  -8  148.09   72.59
   3  -7  -8  131.79   54.09
   3  -7  -8  206.68  109.59
  -3   7   8   96.69   85.99
   7  -4   8  199.58   66.29
   7  -4   8    9.80   58.99
  -3   7   8  128.99   56.39
   0  -7  -8   98.89   71.89
   0  -7  -8   58.79   61.49
   0  -7  -8  101.69   79.39
  -7   7  -8  -42.60   68.09
   7   0  -8  -80.09   73.79
   0   7   8   68.09   50.69
  -7   0   8  -42.30   74.89
   7  -7   8  -81.39   99.59
  -7  10  -8  690.43  110.79
  10  -3  -8  658.43   89.89
  -3  -7  -8  608.14  110.79
  -3  -7  -8  628.84  104.39
  -3  -7  -8  593.34  102.09
  10  -3  -8  733.83  109.59
 -10   3   8  695.43  121.29
   3   7   8  698.83   90.29
  -7  13  -8 1856.01  195.18
  13  -6  -8 2117.09  177.78
  -6  -7  -8 2173.08  200.58
  -6  -7  -8 1864.61  198.38
   6   7   8 2045.50  175.28
 -13   6   8 2045.80  208.08
  -8  -6  -8  135.79  103.39
  -8  -6  -8  259.37  126.19
  14  -8  -8  227.38   72.09
  -6  14  -8  153.28   93.29
 -14   8   8  146.99  120.09
   8   6   8  103.69  117.39
   8   6   8  225.28   71.09
  -3  11  -8  323.57   83.39
  11  -8  -8  266.57   66.29
 -11   8   8  186.38  108.39
   8   3   8  267.07   61.19
   8   3   8  124.69   71.09
   0   8  -8  138.29   77.39
   8  -8  -8  103.99   58.29
   8  -8  -8   66.89  102.09
   8  -8  -8  109.89  127.59
  -8   0  -8   97.99   71.79
  -8   0  -8  -10.20   99.69
  -8   8   8   14.10   86.09
   8   0   8  112.29   60.89
   8   0   8  -72.99   63.19
   5  -8  -8  241.48   60.79
   5  -8  -8   58.29   90.09
   3   5  -8  130.89   76.69
   5  -8  -8  115.69  108.89
  -8   3  -8   71.59   68.49
   8  -3   8  164.88   71.79
  -5   8   8   53.99   84.69
   8  -3   8   31.60   62.29
   2  -8  -8  184.28   87.09
   2  -8  -8  426.66   68.59
   2  -8  -8  296.07   91.19
   6   2  -8  409.76   80.89
  -8   6  -8  348.17   81.09
   8  -6   8  513.35   80.89
  -2   8   8  259.07   61.89
  -6  -2   8  378.36   82.19
   8  -6   8   81.29   92.19
  -2   8   8  369.16   97.49
   9  -1  -8   79.09   61.59
  -1  -8  -8   51.69   71.99
  -1  -8  -8   92.39   90.39
  -1  -8  -8  122.09   66.99
   9  -1  -8  -19.80   91.39
  -8   9  -8   96.99   82.29
  -9   1   8   25.20   86.99
   1   8   8   52.99   57.59
   1   8   8   22.60  100.09
  -4  -8  -8 2219.88  203.28
  -4  -8  -8 1850.51  214.08
  -8  12  -8 2303.87  203.68
  12  -4  -8 2249.77  189.48
 -12   4   8 2081.69  221.78
   4   8   8 2383.26  189.78
  -7  -8  -8  886.81  138.99
  15  -7  -8  788.12  101.99
  -8  15  -8  739.63  137.69
  -7  -8  -8  461.95  138.19
   7   8   8  620.84  103.59
 -15   7   8  558.14  145.09
  -9  -7  -8  307.87  129.89
  -9  -7  -8  244.08  142.39
  -7  16  -8  364.06  127.99
  16  -9  -8  162.78   73.19
 -16   9   8  -11.20  141.59
   9   7   8  247.58   80.69
  13  -9  -8   34.70   66.59
  -9  -4  -8   58.99  119.69
  -4  13  -8  -46.30   88.99
  -9  -4  -8 -113.19   85.29
   9   4   8   26.00   61.59
   9   4   8   16.40   89.89
 -13   9   8   30.80  106.69
  -9  -1  -8  153.98   74.49
  -9  -1  -8   43.00  106.79
  -1  10  -8  222.78   84.59
  10  -9  -8  129.89   60.89
  10  -9  -8  161.98  145.59
   9   1   8  124.99   65.09
   9   1   8  108.19   67.09
 -10   9   8  213.08  102.79
   7  -9  -8  -68.39  110.09
   7  -9  -8  124.69   61.09
  -9   2  -8  -15.60   74.29
   7  -9  -8  108.99  108.09
   2   7  -8   90.39   83.69
   9  -2   8   50.89   77.39
  -7   9   8   41.20   94.69
   9  -2   8   31.10   63.69
  -9   5  -8  347.47   80.19
   5   4  -8  451.05   80.69
   4  -9  -8   99.19  110.39
   4  -9  -8  342.77   71.89
   9  -5   8  269.97   84.49
   9  -5   8  375.56   78.79
  -4   9   8  216.98   91.79
   8   1  -8  -13.40   88.09
   1  -9  -8   13.90   79.89
  -9   8  -8  111.39   81.39
   1  -9  -8   -6.70   72.19
  -1   9   8  -57.89   96.59
   9  -8   8   97.39   97.99
  -8  -1   8  -45.70   91.09
  -1   9   8    6.20   54.49
   9  -8   8   86.69   78.69
  -2  -9  -8 -186.08  120.39
  -9  11  -8  -13.90   86.69
  11  -2  -8  -31.50   98.49
  -2  -9  -8   74.79   81.39
  11  -2  -8  126.39   67.09
  -2  -9  -8   32.70   80.79
   2   9   8   32.70   59.99
 -11   2   8  167.88  105.69
  14  -5  -8  730.83  107.89
  -9  14  -8  907.41  132.29
  -5  -9  -8  834.42  128.99
 -14   5   8  609.44  147.79
   5   9   8  755.42   99.59
  -8  -9  -8  266.37  170.98
  -9  17  -8  -65.39  137.79
  -8  -9  -8    4.90  145.59
  17  -8  -8   43.80   98.99
   8   9   8  250.87   96.49
  -8  18  -8  135.69  181.08
  18 -10  -8  -25.00   79.89
 -10  -8  -8  353.86  175.68
 -10  -8  -8   34.30  165.68
  10   8   8  -78.69   76.99
 -18  10   8   70.99  164.18
 -10  -5  -8  -98.59  105.69
  15 -10  -8  -77.69   73.89
 -10  -5  -8  -72.89  139.79
  -5  15  -8  204.68  116.39
 -15  10   8  -65.19  127.39
  10   5   8 -222.08  124.39
  10   5   8  -51.79   69.99
  -2  12  -8  -92.59   85.89
 -10  -2  -8   49.20   84.09
  12 -10  -8   20.40   63.49
  12 -10  -8  333.37  221.48
  10   2   8   61.09   74.99
 -12  10   8   32.80  104.29
  10   2   8  -29.90   69.09
 -10   1  -8   87.19   77.89
   9 -10  -8  318.07  175.78
   9 -10  -8  298.57   67.19
   1   9  -8  334.07   89.59
  10  -1   8  158.98   77.19
  -9  10   8  171.08  104.29
  10  -1   8  124.79   71.09
   6 -10  -8  674.43  130.39
 -10   4  -8  876.31  118.29
   6 -10  -8 1121.79  103.39
   4   6  -8  939.31  120.19
  10  -4   8  767.42  113.89
  10  -4   8  822.82  109.59
  -6  10   8  853.71  136.69
 -10   7  -8  676.33  109.09
   3 -10  -8  769.32  112.39
   7   3  -8  717.93  109.49
   3 -10  -8  730.43   90.69
  10  -7   8  739.23  114.29
  -3  10   8  574.34   93.79
  10  -7   8  706.73  107.69
  -7  -3   8  759.32  118.69
   0 -10  -8  147.79   87.49
  10   0  -8   91.09  100.29
   0 -10  -8   87.49   76.99
 -10  10  -8  296.47  100.69
 -10   0   8    2.30  102.79
   0  10   8  128.79   59.39
   0  10   8  207.38  111.69
  10 -10   8  342.27   83.19
  -3 -10  -8  153.18   97.89
  13  -3  -8  192.78   80.49
  -3 -10  -8  152.78   99.09
 -10  13  -8   43.10  105.29
   3  10   8  125.09   67.79
 -13   3   8  -13.00  118.79
 -10  16  -8  -38.00  138.49
  -6 -10  -8   93.49  131.19
  16  -6  -8  192.38   85.29
   6  10   8   99.09   79.99
 -16   6   8   -8.20  151.18
  -9 -10  -8   79.69  163.18
  19  -9  -8  253.07   95.39
   9  10   8  404.56  100.99
 -19   9   8   27.50  196.78
  20 -11  -8  272.47   99.19
 -11  -9  -8  466.45  209.38
 -20  11   8  435.16  217.98
  11   9   8  467.05  111.99
 -11  -6  -8  203.28  165.28
  17 -11  -8  -22.10   81.99
  -6  17  -8  -49.10  150.58
 -11  -6  -8  180.68  139.09
 -17  11   8 -107.09  159.68
  11   6   8  -33.70   77.29
  14 -11  -8  604.44   98.69
  -3  14  -8  835.62  123.69
 -11  -3  -8  567.04  119.29
  11   3   8  485.45  118.99
 -14  11   8  639.54  141.89
  11   3   8  746.63   97.59
 -11   0  -8  -83.29   82.49
   0  11  -8   11.90   85.89
  11 -11  -8   12.70  132.09
  11 -11  -8  -65.49   63.29
  11   0   8  -74.89   70.99
  11   0   8   -2.40   73.29
 -11  11   8  134.29  115.29
   8 -11  -8  231.98   72.59
   8 -11  -8  183.88  113.79
   3   8  -8  368.36   87.89
 -11   3  -8   13.10   83.89
  -8  11   8  164.38  106.49
  11  -3   8  115.79   76.09
  11  -3   8  175.58   88.99
 -11   6  -8 1766.92  179.58
   5 -11  -8 2017.20  188.58
   5 -11  -8 2004.70  169.08
   6   5  -8 1857.91  188.08
  11  -6   8 1708.13  171.48
  11  -6   8 1753.42  182.48
  -5  11   8 1908.71  189.08
 -11   9  -8  -13.40   87.89
   2 -11  -8  -51.89   75.39
   2 -11  -8    0.80   88.59
   9   2  -8  -11.60  102.89
  -9  -2   8 -148.09  104.99
  -2  11   8   -4.60   65.19
  11  -9   8   57.99  111.09
  -2  11   8  -15.00   99.69
  11  -9   8   66.59   90.49
  -1 -11  -8  710.73  124.49
  12  -1  -8  695.03  104.29
  -1 -11  -8  793.22  123.79
 -11  12  -8  828.82  143.49
 -12   1   8  835.32  146.29
  11 -12   8  817.82  117.59
   1  11   8  742.13   95.99
  -4 -11  -8  217.58  121.19
 -11  15  -8  274.67  131.59
  15  -4  -8  168.28   89.79
  -4 -11  -8  206.28  117.29
 -15   4   8  -35.50  146.79
   4  11   8  126.69   77.39
 -11  18  -8  -36.10  185.58
  -7 -11  -8   63.19  241.58
  18  -7  -8   96.99   92.69
   7  11   8    9.10   82.49
 -18   7   8  -50.79  184.48
 -10 -11  -8  542.45  222.38
  21 -10  -8  207.58  118.39
 -21  10   8   81.09  273.27
  10  11   8  255.17  106.49
  22 -12  -8  306.57  128.09
 -22  12   8 -180.18  274.87
  12  10   8  125.49  120.79
 -12  -7  -8   48.40  222.48
 -12  -7  -8  312.67  372.66
  19 -12  -8   10.50   76.59
  12   7   8  267.27   91.39
 -19  12   8  152.08  185.28
 -12  -4  -8  928.71  162.38
  -4  16  -8  492.55  146.49
  12   4   8  850.31  158.28
 -16  12   8  755.62  247.98
 -12  -1  -8 1112.59  147.89
  13 -12  -8 1154.78  119.49
  13 -12  -8  894.51  169.98
  -1  13  -8  933.11  149.09
  12   1   8 1096.99  124.89
  12   1   8  870.91  126.89
 -13  12   8  932.51  167.88
  10 -12  -8   59.49   67.19
 -12   2  -8   52.59   91.49
   2  10  -8  -54.19   84.59
  10 -12  -8   48.70  115.99
 -10  12   8   86.89  125.29
  12  -2   8  -34.10   85.09
  12  -2   8   44.10   78.69
   7 -12  -8 1209.48  128.59
   5   7  -8 1338.37  154.38
   7 -12  -8 1122.69  152.38
 -12   5  -8 1315.87  155.18
  12  -5   8 1367.46  136.59
  12  -5   8 1245.88  141.69
  -7  12   8 1335.77  167.78
   4 -12  -8 2360.66  201.08
   8   4  -8 2314.07  222.28
 -12   8  -8 2381.46  213.48
   4 -12  -8 2399.86  213.48
  -4  12   8 2102.59  221.68
  12  -8   8 2354.06  206.48
  12  -8   8 2204.88  222.68
   1 -12  -8  680.03  125.39
 -12  11  -8  995.00  142.89
   1 -12  -8 1102.69  122.79
 -11  -1   8  949.90  157.08
  12 -11   8  869.21  123.89
  12 -11   8 1258.77  196.58
  -1  12   8  710.83  107.99
  -2 -12  -8 1588.54  173.78
 -12  14  -8 1605.74  186.88
  14  -2  -8 1646.24  156.88
  -2 -12  -8 1412.46  183.68
   2  12   8 1497.85  150.38
 -14   2   8 1610.04  230.88
  12 -14   8 1702.73  174.28
 -12  17  -8  729.43  175.08
  17  -5  -8  703.23  155.38
  -5 -12  -8  310.97  224.18
  -5 -12  -8  321.87  154.18
   5  12   8  610.84   99.19
 -17   5   8  644.34  276.27
  20  -8  -8  260.17  111.09
  -8 -12  -8 -107.39  197.08
 -20   8   8 -155.08  236.28
   8  12   8  179.18  101.79
  23 -11  -8   27.10  121.09
 -11 -12  -8   -3.40  255.27
  11  12   8  -17.20  129.99
 -23  11   8 -128.99  315.87
  21 -13  -8    7.50  101.99
 -13  -8  -8  109.39  228.58
 -13  -8  -8  143.79  244.78
  13   8   8   67.49  104.09
 -21  13   8 -124.89  237.48
 -13  -5  -8   16.90  163.68
  18 -13  -8  -26.20   81.59
 -18  13   8  143.89  160.68
  13   5   8  232.48   84.99
 -13  -2  -8 2416.56  244.28
  15 -13  -8 2710.23  221.18
  15 -13  -8 2425.96  274.77
  -2  15  -8 2139.39  243.08
  13   2   8 2758.52  222.88
 -15  13   8 2695.53  285.27
  12 -13  -8 1117.69  125.99
  12 -13  -8 1057.69  155.98
   1  12  -8 1194.28  153.88
 -13   1  -8 1040.20  151.08
  13  -1   8 1124.09  134.19
  13  -1   8 1097.19  134.49
 -12  13   8 1367.46  179.68
   9 -13  -8   60.29  118.19
 -13   4  -8  -75.39   92.79
   4   9  -8   26.30  101.99
   9 -13  -8  -17.20   71.49
  -9  13   8  -52.09  128.39
  13  -4   8   40.20   97.09
  13  -4   8 -104.79   80.09
 -13   7  -8 2197.08  203.68
   6 -13  -8 1831.42  204.98
   6 -13  -8 2124.69  191.18
   7   6  -8 2171.38  210.58
  13  -7   8 2197.38  192.48
  -6  13   8 1995.30  218.68
  13  -7   8 2083.19  201.98
   3 -13  -8  224.28   89.29
  10   3  -8  114.69  110.29
 -13  10  -8  160.98   98.69
   3 -13  -8   63.89  111.69
 -10  -3   8  -10.60  150.88
  13 -10   8  103.09   98.29
  13 -10   8  356.66  129.49
   0 -13  -8 2493.15  220.58
 -13  13  -8 2308.87  237.68
   0 -13  -8 2336.07  226.48
 -13   0   8 2385.36  278.07
   0  13   8 2053.09  204.68
  13 -13   8 2627.04  218.68
  -3 -13  -8 2071.09  220.58
  16  -3  -8 2369.46  197.48
  -3 -13  -8 2441.76  234.08
 -13  16  -8 2039.20  246.48
   3  13   8 1942.11  203.28
  13 -16   8 1583.84  297.97
 -16   3   8 1858.91  291.27
 -13  19  -8  313.17  239.48
  -6 -13  -8  184.78  155.28
  -6 -13  -8  -96.89  161.08
  19  -6  -8  166.48   97.99
   6  13   8  315.67   93.09
 -19   6   8  102.09  231.58
  13 -19   8   -4.30  130.29
  -9 -13  -8  415.66  194.08
  -9 -13  -8  -98.99  227.08
  22  -9  -8  174.08  114.39
   9  13   8    7.70  114.69
 -22   9   8  665.43  312.17
  23 -14  -8  186.58  124.59
 -14  -9  -8  186.68  289.77
  14   9   8   30.10  124.79
 -23  14   8  173.08  299.47
  20 -14  -8  -10.40   85.09
 -14  -6  -8  175.28  185.78
 -14  -6  -8   82.59  247.58
 -20  14   8 -255.57  211.48
  14   6   8 -108.59   96.09
  -3  17  -8 1109.59  194.48
  17 -14  -8 1129.49  140.39
  14   3   8 1205.38  127.99
  14   3   8  856.71  236.98
 -17  14   8 1181.28  198.88
 -14   0  -8 1837.12  193.98
  14 -14  -8 1416.96  201.38
  14 -14  -8 1820.92  168.78
   0  14  -8 1615.24  200.88
  14   0   8 1760.42  171.68
 -14  14   8 1805.62  224.48
  11 -14  -8  504.35  137.49
   3  11  -8  724.53  119.89
 -14   3  -8  825.52  140.79
  11 -14  -8  609.34  100.09
  14  -3   8  733.43  117.69
  14  -3   8  711.83  120.49
 -11  14   8  674.63  154.78
 -14   6  -8  362.06  108.79
   6   8  -8  121.09  111.09
   8 -14  -8   80.59  127.09
   8 -14  -8  269.77   83.59
  14  -6   8  365.36   95.39
  14  -6   8  258.67  100.59
  -8  14   8  150.58  147.69
   5 -14  -8  746.83  124.39
   5 -14  -8  884.51  130.69
 -14   9  -8  989.70  145.69
   9   5  -8  901.61  147.49
  -5  14   8  939.61  165.58
  14  -9   8  820.02  119.09
  14  -9   8  950.90  152.88
   2 -14  -8 1831.62  180.58
   2 -14  -8 1695.93  184.48
 -14  12  -8 1542.55  196.98
 -12  -2   8 1797.42  261.07
  14 -12   8 1715.63  182.08
  14 -12   8 1425.36  210.78
 -14  15  -8 2713.93  285.47
  -1 -14  -8 2687.23  275.97
  -1 -14  -8 3152.08  268.17
  15  -1  -8 2927.41  249.78
 -15   1   8 2951.60  344.07
  -4 -14  -8 1159.08  216.18
  18  -4  -8 1553.44  158.18
 -14  18  -8 1615.84  244.08
  -4 -14  -8 1569.14  203.28
   4  14   8 1252.57  150.18
 -18   4   8 1588.04  289.77
  14 -18   8 1250.47  179.58
  21  -7  -8   50.99  103.89
  -7 -14  -8 -267.97  213.08
  -7 -14  -8   58.69  180.48
  14 -21   8 -262.17  131.79
   7  14   8   93.09  113.59
 -21   7   8 -285.27  295.77
 -15  -7  -8  212.48  309.67
  22 -15  -8  125.09  111.09
 -15  -7  -8 -216.88  244.78
  15   7   8 -127.39  109.69
 -22  15   8 -186.48  264.87
 -15  -4  -8   31.60  171.38
  19 -15  -8  213.38   93.09
 -19  15   8   18.30  206.28
  15   4   8  125.89   92.69
 -15  -1  -8 2379.46  245.68
  16 -15  -8 1772.42  271.57
  -1  16  -8 1928.71  250.27
  16 -15  -8 2479.75  212.68
 -16  15   8 2447.26  264.37
  15   1   8 2727.23  214.48
   2  13  -8 2280.27  240.38
  13 -15  -8 2604.14  215.78
 -15   2  -8 2648.03  241.68
  13 -15  -8 1884.71  235.68
  15  -2   8 2814.32  222.78
 -13  15   8 2231.18  268.97
 -15   5  -8  -44.20  111.39
   5  10  -8    6.80  120.79
  10 -15  -8   -2.50  129.59
  10 -15  -8   31.30   79.69
 -10  15   8  159.08  154.68
  15  -5   8  -51.19   95.59
   7 -15  -8  715.63  148.79
 -15   8  -8  524.75  135.69
   7 -15  -8  822.62  111.49
   8   7  -8  854.01  148.69
  -7  15   8  630.54  171.28
  15  -8   8  690.03  126.89
  15  -8   8  829.12  120.09
 -15  11  -8  293.87  117.69
   4 -15  -8  138.09  129.29
   4 -15  -8  201.38   97.39
  15 -11   8  325.47  110.89
  15 -11   8  263.07  134.59
 -15  14  -8 2944.21  285.87
   1 -15  -8 3078.69  272.47
   1 -15  -8 2982.50  278.27
 -14  -1   8 2617.84  349.67
  -2 -15  -8 1936.01  258.57
  17  -2  -8 2185.38  212.78
  -2 -15  -8 2383.76  246.88
 -15  17  -8 2494.65  285.57
 -17   2   8 1934.61  370.36
   2  15   8 2424.96  207.98
  15 -17   8 2122.29  218.58
  -5 -15  -8  -50.99  206.78
  20  -5  -8  225.18  101.39
  -5 -15  -8  287.67  176.28
 -20   5   8  -39.60  293.17
   5  15   8  219.68  121.79
  15 -20   8  125.49  133.99
  23  -8  -8  233.38  117.29
  -8 -15  -8  539.05  210.68
  -8 -15  -8  488.15  253.77
 -23   8   8  555.84  355.76
  15 -23   8  105.59  157.38
   8  15   8  283.07  155.08
  21 -16  -8  164.78  110.09
 -16  -5  -8  327.17  206.58
  16   5   8  479.75  113.99
 -21  16   8  379.36  265.37
 -16  -2  -8  568.14  168.58
  18 -16  -8  590.24  114.09
 -18  16   8  476.35  204.58
  16   2   8  652.03   98.89
   1  15  -8 2089.09  260.77
 -16   1  -8 2331.47  246.58
  15 -16  -8 2721.93  223.38
  16  -1   8 2518.65  222.38
 -15  16   8 2396.76  277.37
  12 -16  -8  570.24  157.28
   4  12  -8  866.41  157.38
  12 -16  -8  809.72  137.09
 -12  16   8  975.40  189.08
  16  -4   8  781.22  136.99
  16  -4   8  943.21  141.19
   9 -16  -8  162.48  140.99
   9 -16  -8  207.18   99.49
 -16   7  -8  379.66  131.19
  -9  16   8  271.47  171.78
  16  -7   8  118.99  107.19
  16  -7   8  264.17  113.79
 -16  10  -8  263.27  136.19
   6 -16  -8  104.49  103.59
   6 -16  -8  206.18  150.48
  16 -10   8  134.59   97.69
  -6  16   8  125.89  183.58
  16 -10   8  361.16  125.49
   3 -16  -8 2517.35  231.38
   3 -16  -8 2470.95  250.27
 -16  13  -8 2190.58  251.27
  16 -13   8 2387.66  233.98
  16 -13   8 2115.59  273.07
   0 -16  -8 2402.96  280.27
   0 -16  -8 2623.14  269.47
  16 -16   8 2780.82  250.87
 -16   0   8 2831.12  380.56
  -3 -16  -8  651.33  191.58
  19  -3  -8 1106.49  146.19
  -3 -16  -8  658.83  176.98
 -16  19  -8  657.63  230.68
  16 -19   8  431.56  134.19
   3  16   8  832.72  135.89
 -19   3   8   74.89  301.17
  -6 -16  -8   29.30  238.38
  22  -6  -8  200.98  113.49
  -6 -16  -8 -218.28  201.68
  16 -22   8  112.89  147.69
   6  16   8  380.16  144.99
 -22   6   8  471.85  357.16
  20 -17  -8   73.09  103.39
 -17  -3  -8  109.29  184.68
 -20  17   8  286.07  258.07
  17   3   8   -1.20   94.49
 -17   0  -8  739.23  169.88
  17 -17  -8  555.04  251.97
 -17  17   8 1321.37  225.38
  17   0   8  660.03  193.28
 -17   3  -8 1173.18  183.98
   3  14  -8 1441.26  189.38
  14 -17  -8 1030.00  194.38
  14 -17  -8 1300.27  150.18
  17  -3   8 1061.09  158.28
 -14  17   8 1334.17  238.78
 -17   6  -8 -135.09  126.59
  11 -17  -8  162.98  150.18
 -11  17   8   -6.00  182.78
  17  -6   8   33.20  113.59
  17  -6   8  -78.79  121.89
 -17   9  -8  275.97  144.89
   8 -17  -8  289.37  156.18
   8 -17  -8   68.29  109.89
  17  -9   8  126.79  126.49
  17  -9   8   63.99  197.48
  -8  17   8   92.39  190.18
   5 -17  -8  820.82  168.08
 -17  12  -8  601.04  163.18
   5 -17  -8  979.90  156.68
  17 -12   8  637.74  137.19
  17 -12   8  534.05  166.88
 -17  15  -8 2111.49  259.87
   2 -17  -8 1955.10  250.87
   2 -17  -8 2448.26  241.18
  17 -15   8 2250.17  233.78
  -1 -17  -8  782.92  168.48
  -1 -17  -8  578.54  185.98
 -17  18  -8  177.68  202.58
  17 -18   8  371.06  135.99
 -18   1   8  925.51  323.57
  21  -4  -8 -212.78  138.59
  -4 -17  -8 -178.08  184.18
  -4 -17  -8 -150.38  229.48
 -21   4   8  198.58  344.17
  17 -21   8  -62.29  134.09
  22 -18  -8   91.79  115.39
 -18  -4  -8  172.28  233.78
  18   4   8  116.19  118.99
 -22  18   8 -129.39  301.17
  19 -18  -8  456.15  114.69
 -18  -1  -8  121.39  180.68
 -19  18   8  487.25  257.07
  18   1   8  270.37   92.79
  16 -18  -8  664.33  213.38
 -18   2  -8  588.84  167.38
  16 -18  -8  737.03  119.79
 -16  18   8  556.54  230.98
  18  -2   8  830.62  126.79
  13 -18  -8   32.90   99.49
  13 -18  -8  491.35  323.77
 -18   5  -8  126.09  137.29
 -13  18   8  167.18  208.38
  18  -5   8   25.20  130.19
  18  -5   8   89.39  116.69
  10 -18  -8  151.78  277.27
  10 -18  -8  196.58  104.99
 -18   8  -8  -12.50  143.19
 -10  18   8   -8.90  217.68
  18  -8   8  172.78  126.59
  18  -8   8  286.27  151.08
   7 -18  -8   40.60  119.79
   7 -18  -8  354.56  180.88
 -18  11  -8  185.98  152.78
  18 -11   8  101.09  139.99
  18 -11   8   90.89  109.69
 -18  14  -8 1243.08  214.28
   4 -18  -8 1673.43  194.98
   4 -18  -8 1601.04  218.08
  18 -14   8 1141.49  226.78
  18 -14   8 1315.27  187.08
   1 -18  -8  520.65  163.78
   1 -18  -8  419.46  187.68
 -18  17  -8  529.55  202.38
  18 -17   8  485.35  161.48
 -18  20  -8 -410.26  329.87
  -2 -18  -8 -300.57  189.68
  -2 -18  -8  189.88  207.18
  18 -20   8   58.99  132.89
 -20   2   8 -158.58  393.76
 -19  -2  -8  297.47  209.28
  21 -19  -8   23.80  121.09
 -21  19   8  482.75  306.67
  19   2   8   -5.60  108.89
  18 -19  -8  283.07  246.98
 -19   1  -8  385.96  179.18
  18 -19  -8  357.86  127.19
  19  -1   8  360.26  115.09
 -18  19   8  650.33  271.27
  15 -19  -8  136.89  112.39
  15 -19  -8 -309.97  175.28
 -19   4  -8  215.88  157.48
  19  -4   8 -188.28  137.69
 -15  19   8 -106.89  231.78
  19  -4   8  -26.60  118.59
  12 -19  -8   75.09  163.18
 -19   7  -8  104.89  141.69
  12 -19  -8  224.18  111.29
  19  -7   8  165.78  131.59
 -12  19   8   59.69  226.38
  19  -7   8 -178.78  124.59
   9 -19  -8  295.47  175.48
   9 -19  -8  168.88  120.19
 -19  10  -8  175.88  160.68
  19 -10   8  166.98  118.69
  -9  19   8  -63.29  240.38
  19 -10   8   81.99  167.08
   6 -19  -8   31.90  181.08
   6 -19  -8  278.97  139.89
 -19  13  -8   13.70  158.38
  19 -13   8  105.99  238.28
  19 -13   8  302.37  120.89
   3 -19  -8  754.22  161.88
 -19  16  -8  360.86  190.88
   3 -19  -8  492.95  215.38
  19 -16   8  511.05  156.48
 -19  19  -8  333.37  237.18
   0 -19  -8  269.37  206.58
   0 -19  -8  138.09  183.58
  19 -19   8  130.49  150.18
  20 -20  -8  159.58  135.19
 -20   0  -8   77.39  193.08
 -20  20   8   38.50  313.07
  20   0   8   -7.00  100.99
 -20   3  -8  111.79  174.58
  17 -20  -8 -144.09  123.29
  17 -20  -8   19.60  212.58
  20  -3   8  131.69  116.39
  20  -3   8  198.48  169.88
 -17  20   8  -69.29  284.77
  14 -20  -8 -140.09  185.48
  14 -20  -8  102.59  106.79
 -20   6  -8  -28.00  162.38
  20  -6   8   26.80  130.79
  20  -6   8  -16.50  143.19
  11 -20  -8   17.50  182.08
  11 -20  -8  253.37  117.29
 -20   9  -8  235.88  179.68
  20  -9   8  550.94  147.39
  20  -9   8  257.47  147.59
 -11  20   8  427.56  258.47
   8 -20  -8  102.19  129.39
   8 -20  -8  -30.90  186.28
 -20  12  -8  162.98  179.28
  20 -12   8   -3.70  138.29
  20 -12   8   -2.80  156.78
   5 -20  -8  -27.30  208.78
   5 -20  -8  377.16  163.58
 -20  15  -8  292.57  181.48
  20 -15   8 -201.48  206.48
  20 -15   8  116.49  139.99
   2 -20  -8   56.19  233.88
   2 -20  -8  -23.40  176.78
 -20  18  -8  164.28  228.58
  20 -18   8 -155.98  152.78
  19 -21  -8 -136.09  132.59
  19 -21  -8 -210.88  290.57
 -21   2  -8 -295.97  184.88
 -19  21   8 -192.48  314.47
  21  -2   8  -97.49  118.49
  16 -21  -8  217.08  124.29
 -21   5  -8  156.18  173.78
  16 -21  -8  315.37  213.38
  21  -5   8  392.06  136.89
 -16  21   8 -612.04  290.47
  21  -5   8   75.59  168.28
 -21   8  -8 -243.48  175.18
  13 -21  -8  177.58  190.28
  13 -21  -8   48.70  134.69
  21  -8   8  -85.79  147.39
 -13  21   8  565.94  284.27
  21  -8   8  174.48  162.58
  10 -21  -8  417.06  204.18
 -21  11  -8   65.19  191.68
  10 -21  -8  380.46  133.99
  21 -11   8 -213.48  150.88
  21 -11   8  171.08  158.38
 -21  14  -8   37.20  180.18
   7 -21  -8  -34.50  153.98
   7 -21  -8  192.28  212.38
  21 -14   8  223.98  176.18
  21 -14   8  219.88  150.08
 -21  17  -8   -4.40  220.38
   4 -21  -8 -306.67  228.48
   4 -21  -8  101.69  182.28
  21 -17   8  -81.39  158.38
  18 -22  -8 -128.79  252.77
 -22   4  -8 -193.78  175.18
  18 -22  -8  -17.70  134.49
 -18  22   8  136.19  318.37
  22  -4   8   98.29  131.89
 -22   7  -8  -91.29  178.88
  15 -22  -8  -93.89  216.58
  15 -22  -8   60.49  133.09
  22  -7   8  -35.50  156.68
  22  -7   8   34.20  168.88
 -15  22   8   77.99  303.47
  12 -22  -8  148.29  148.49
 -22  10  -8  172.98  195.38
  12 -22  -8  373.46  207.48
  22 -10   8  310.47  163.88
  22 -10   8  303.67  171.78
   9 -22  -8  138.19  221.38
 -22  13  -8   98.29  204.68
   9 -22  -8  -44.30  154.68
  22 -13   8  479.55  179.38
  22 -13   8  -99.79  151.58
   6 -22  -8   51.99  171.78
   6 -22  -8  231.88  237.68
 -22  16  -8 -282.37  215.18
  22 -16   8  -67.49  145.59
  22 -16   8  115.09  216.58
  14 -23  -8    1.30  148.39
  14 -23  -8   73.69  225.28
 -23   9  -8  233.98  203.68
 -14  23   8 -299.37  421.56
  23  -9   8  161.38  171.88
  23  -9   8   49.40  186.78
  11 -23  -8   26.50  164.68
 -23  12  -8  289.67  218.38
  11 -23  -8 -243.08  231.08
  23 -12   8  365.16  179.98
  23 -12   8  -49.00  175.28
   8 -23  -8  598.24  182.98
 -23  15  -8  175.48  210.38
   8 -23  -8  373.06  247.18
  23 -15   8 -140.69  176.88
  23 -15   8  107.19  202.18
   0   0  -9 9999.00  705.13
   0   0  -9 8893.41  699.73
   0   0   9 8199.78  701.13
   0   0   9 9435.86  700.43
   2  -1  -9 6362.36  483.95
   2  -1  -9 6448.45  488.85
  -1  -1  -9 6329.77  484.35
  -1   2  -9 6569.54  489.65
  -2   1   9 6250.37  486.85
   1   1   9 6402.16  484.35
   1  -2   9 5681.33  486.65
   1   1   9 6160.28  486.05
  -2   1  -9 6321.67  496.95
   1   1  -9 6503.45  503.75
   1  -2  -9 7123.99  499.85
  -2   1  -9 6631.04  502.65
  -1   2   9 6340.57  498.75
   2  -1   9 6075.59  499.85
  -1   2   9 6596.54  499.35
  -1  -1   9 5818.42  499.75
   2  -1   9 6716.53  498.05
  -2   4  -9  546.25   89.29
  -2  -2  -9  626.54   90.49
   4  -2  -9  597.54   81.49
   4  -2  -9  583.94   95.49
  -2  -2  -9  416.76   71.89
   2   2   9  534.15   75.19
   2   2   9  502.85   73.59
   3  -3  -9  767.42   90.19
   0   3  -9  987.80  107.99
  -3   0  -9  936.21   85.99
  -3   0  -9 1071.79   99.79
   3  -3  -9  802.52  121.89
  -3   3   9  698.23   99.69
   3   0   9  934.11   88.89
   3   0   9  691.33   94.49
   0  -3  -9 1123.79  132.89
  -3   3  -9  845.12  110.59
   3   0  -9  919.41  114.69
   0  -3  -9  848.82   93.89
   0   3   9 1027.70   97.59
   0   3   9 1020.40   97.09
   3  -3   9  864.61  102.39
  -3  -3  -9  -39.50   90.29
  -3   6  -9   60.49   67.39
   6  -3  -9   83.99   58.49
   6  -3  -9  139.89   73.39
  -3  -3  -9   69.89   70.09
  -3  -3  -9   34.80   56.89
   3   3   9   94.79   51.69
  -6   3   9  180.78   86.29
   3   3   9   74.79   53.49
   5  -4  -9  137.59   53.39
  -4  -1  -9  178.28   56.59
  -4  -1  -9  177.98   69.99
  -1   5  -9  230.08   71.89
   5  -4  -9  330.57   78.29
   4   1   9  196.18   61.09
   4   1   9  147.59   51.99
  -5   4   9  261.97   87.29
   2  -4  -9  609.84   76.69
   2   2  -9  576.44   92.99
  -4   2  -9  568.64   82.19
  -4   2  -9  564.24   71.19
   4  -2   9  597.84   82.39
  -2   4   9  505.45   75.69
   4  -2   9  473.25   82.49
  -1  -4  -9  134.99   77.19
   5  -1  -9   68.19   73.49
  -1  -4  -9  192.08   54.89
  -1  -4  -9  155.58  105.79
  -4   5  -9  171.78   74.39
   1   4   9  100.79   50.49
  -5   1   9   75.49   78.39
   1   4   9   91.49   58.59
   8  -4  -9  829.62  122.89
  -4  -4  -9  850.71  118.79
  -4  -4  -9  645.64  113.19
  -4   8  -9  786.42  113.69
   8  -4  -9  929.11   94.99
  -8   4   9  856.41  126.69
   4   4   9  894.11   95.89
   4   4   9  798.72  101.29
  -5  -2  -9  644.24  107.29
   7  -5  -9  922.61   92.69
  -5  -2  -9  694.03  168.48
   7  -5  -9  967.50  113.79
  -2   7  -9  821.52  104.09
  -7   5   9  917.91  117.49
   5   2   9  642.34   85.99
   1   4  -9  200.08   75.49
   4  -5  -9  317.87   58.59
   4  -5  -9  287.27   91.39
  -5   1  -9  221.68   71.59
   5  -1   9  294.37   66.49
   5  -1   9  225.38   64.59
  -4   5   9  203.68   81.79
   1  -5  -9 -123.09  140.49
   1  -5  -9   71.59   51.99
   4   1  -9  100.29   74.49
  -5   4  -9   63.19   62.29
   1  -5  -9   86.69   80.69
   5  -4   9  175.28   70.79
  -1   5   9   90.29   48.00
   5  -4   9  124.49   62.79
  -4  -1   9   80.09   89.39
  -2  -5  -9    1.10   58.69
  -5   7  -9  125.29   77.29
   7  -2  -9   14.50   78.39
  -2  -5  -9  168.98  132.49
   7  -2  -9  139.39   53.19
  -2  -5  -9  189.58   80.89
  -7   2   9  -12.60   83.49
   2   5   9   75.59   69.99
   2   5   9    2.10   58.39
  -5  10  -9 1935.81  178.68
  -5  -5  -9 1889.81  183.08
  -5  -5  -9 2167.68  197.08
  10  -5  -9 1839.02  163.98
  10  -5  -9 1691.03  186.88
   5   5   9 1831.32  162.88
 -10   5   9 1719.33  189.18
   5   5   9 1854.31  167.58
   9  -6  -9 2473.65  219.98
  -6  -3  -9 2503.85  209.88
   9  -6  -9 2268.67  198.88
  -6  -3  -9 2033.30  211.98
  -3   9  -9 2445.36  209.58
  -9   6   9 2551.24  220.48
   6   3   9 2403.16  200.88
   6   3   9 2421.46  199.18
   0   6  -9  208.38   78.19
  -6   0  -9  257.87   72.69
   6  -6  -9  256.27   93.09
   6  -6  -9  263.47   56.29
   6   0   9  284.77   66.29
  -6   6   9   35.40   92.49
   6   0   9  182.98   59.49
   3  -6  -9 -126.99  133.89
   3  -6  -9   36.40   77.19
   3  -6  -9   60.59   56.69
   3   3  -9   69.89   72.79
  -6   3  -9   76.69   70.59
  -3   6   9   56.29   58.69
   6  -3   9   66.79   66.29
   6  -3   9   48.00   69.69
  -3   6   9   93.89   81.19
   6   0  -9  356.26   79.89
   0  -6  -9  327.07   71.79
   0  -6  -9  357.56   88.49
  -6   6  -9  396.86   77.79
   0  -6  -9  326.37   97.99
   6  -6   9  295.17   88.19
   0   6   9  355.36   62.89
  -6   0   9  289.27   90.69
  -3  -6  -9  995.80  145.99
   9  -3  -9 1241.08  119.49
  -3  -6  -9 1344.07  127.49
  -3  -6  -9 1129.79  135.29
   9  -3  -9 1354.66  145.49
  -6   9  -9 1067.99  132.39
  -9   3   9 1303.17  150.48
   3   6   9 1133.79  119.99
  -6  12  -9 1196.88  138.49
  -6  -6  -9  941.21  138.09
  12  -6  -9  984.60  115.39
  -6  -6  -9 1132.29  149.09
   6   6   9 1176.58  117.49
   6   6   9  962.20  135.49
 -12   6   9 1098.89  159.68
  -7  -4  -9  878.01  126.19
  11  -7  -9  794.72   98.69
  -4  11  -9  937.11  122.09
 -11   7   9  811.72  135.39
   7   4   9  898.21  104.79
   7   4   9  881.21  109.99
   8  -7  -9  574.14   92.39
  -1   8  -9  546.95  102.29
  -7  -1  -9  711.03  102.59
   8  -7  -9  896.51  114.89
   7   1   9  407.26   76.89
   7   1   9  724.13   82.39
   2   5  -9  855.61  118.99
   5  -7  -9  959.10  123.19
   7  -2   9 1158.28  135.39
  -5   7   9  935.61  127.19
   7  -2   9 1012.90  112.19
   2  -7  -9   43.50   79.69
   2  -7  -9   44.30   57.09
   5   2  -9   83.99   71.39
  -7   5  -9  122.49   77.69
   2  -7  -9   20.30   74.09
  -5  -2   9   74.99   89.19
   7  -5   9   65.39   74.29
  -2   7   9   14.00   54.89
   7  -5   9   13.60   71.19
  -2   7   9 -104.69   83.29
  -7   8  -9  490.15   92.29
  -1  -7  -9  247.98   94.09
  -1  -7  -9  349.37   99.99
  -1  -7  -9  600.14   83.79
   8  -1  -9  529.65   99.69
  -8   1   9  435.76  100.59
   1   7   9  417.96   70.29
  11  -4  -9 1409.66  162.68
  -4  -7  -9 1485.95  151.78
  -4  -7  -9 1267.07  151.88
  11  -4  -9 1400.26  136.69
  -7  11  -9 1477.95  156.08
  -4  -7  -9 1384.86  170.08
   4   7   9 1602.84  138.39
 -11   4   9 1224.58  168.38
  14  -7  -9 1327.17  133.09
  -7  -7  -9 1118.29  171.18
  -7  -7  -9  968.00  175.68
  -7  14  -9 1224.38  164.68
   7   7   9 1470.55  133.29
 -14   7   9 1366.56  176.98
  -5  13  -9  675.03  111.99
  -8  -5  -9  549.95  129.09
  13  -8  -9  805.32   92.59
  -8  -5  -9  591.44  117.09
   8   5   9  669.03   93.59
   8   5   9  456.35  114.29
 -13   8   9  481.65  137.39
  -2  10  -9 2671.93  221.58
  -8  -2  -9 2036.20  229.28
  -8  -2  -9 2632.34  221.28
  10  -8  -9 2562.64  211.68
  10  -8  -9 2668.43  231.58
 -10   8   9 2624.44  232.78
   8   2   9 2447.26  210.38
   8   2   9 2497.75  212.08
  -8   1  -9  848.82  102.89
   7  -8  -9  872.71  161.58
   1   7  -9  670.63  115.29
   7  -8  -9  544.45   89.69
   7  -8  -9  776.72  179.68
  -7   8   9  925.11  121.39
   8  -1   9  779.42   96.69
   8  -1   9  768.82   95.49
   4  -8  -9 1033.80  105.29
   4  -8  -9  851.61  142.99
   4  -8  -9  791.42  131.69
  -8   4  -9  903.21  115.19
   4   4  -9  868.61  115.79
   8  -4   9  999.10  118.09
  -4   8   9 1082.09  111.29
  -4  -4   9  877.21  135.89
  -4   8   9  905.91  133.29
   8  -4   9  818.42  111.89
   1  -8  -9  432.16  120.89
   1  -8  -9  496.15   82.39
  -8   7  -9  519.45   97.39
   7   1  -9  470.55   99.39
   1  -8  -9  359.86  104.39
   8  -7   9  650.43   93.29
   8  -7   9  623.24  112.09
  -1   8   9  567.94   72.19
  -7  -1   9  391.56  101.79
  -1   8   9  475.95  104.39
  10  -2  -9  794.32  130.89
  -2  -8  -9  846.72  106.89
  -8  10  -9  675.03  117.09
  10  -2  -9  731.13  100.09
  -2  -8  -9  606.24  104.59
   2   8   9  724.33   95.79
  -5  -8  -9  584.94  146.99
  -8  13  -9  592.64  126.29
  13  -5  -9  887.01   98.19
  -5  -8  -9  661.13  124.39
 -13   5   9  594.94  146.89
   5   8   9  890.41  103.09
  -8  -8  -9  613.84  171.48
  -8  16  -9  666.23  142.59
  -8  -8  -9  519.05  154.38
  -9  -6  -9   58.69  142.29
  15  -9  -9  126.69   73.69
  -9  -6  -9   93.99  127.79
  -6  15  -9  160.98  119.29
   9   6   9  216.68   79.99
   9   6   9  -59.09  139.69
 -15   9   9  172.88  134.39
  -9  -3  -9  142.49   92.19
  -9  -3  -9  -80.39  122.09
  -3  12  -9  100.79   92.29
  12  -9  -9  174.08   68.09
   9   3   9  -19.60   79.59
 -12   9   9  147.89  121.29
   9   3   9  102.39   66.69
   9  -9  -9  940.11  129.89
  -9   0  -9  788.02  121.59
   0   9  -9  684.03  120.19
   9  -9  -9  848.62  170.78
   9  -9  -9  820.92  106.89
   9   0   9  935.01  108.39
   9   0   9  844.02  104.69
  -9   9   9  888.01  138.69
   3   6  -9 2579.14  216.98
   6  -9  -9 2424.06  235.58
  -9   3  -9 2478.15  216.38
   6  -9  -9 2334.17  207.58
   6  -9  -9 2074.09  222.38
  -6   9   9 2684.63  225.78
   9  -3   9 2439.56  210.18
   9  -3   9 2606.14  213.28
   6   3  -9 1334.37  141.89
   3  -9  -9 1112.99  124.29
  -9   6  -9 1223.28  143.79
   3  -9  -9 1297.17  205.18
   3  -9  -9 1102.89  160.28
  -3   9   9 1116.89  154.18
  -3   9   9 1374.86  124.99
   9  -6   9 1318.47  132.79
  -6  -3   9 1188.98  148.59
   9  -6   9 1242.58  148.59
   0  -9  -9  443.46  131.79
   0  -9  -9  511.35  103.99
   9   0  -9  676.53  112.89
   0  -9  -9  601.84   92.59
  -9   9  -9  425.66  106.89
   0   9   9  573.34   79.39
   9  -9   9  802.22  104.19
  -9   0   9  610.14  117.89
   0   9   9  546.15  115.29
  -3  -9  -9  127.89   99.59
  -3  -9  -9  -90.79   88.19
  -9  12  -9   43.20  105.79
  12  -3  -9   -0.90   72.49
  -3  -9  -9   13.90  153.78
 -12   3   9  101.99  118.39
   3   9   9  -64.79   63.89
  -6  -9  -9  660.53  140.29
  -6  -9  -9  359.56  184.38
  -9  15  -9  669.73  143.59
 -15   6   9  648.34  162.48
  18  -9  -9  488.75   95.69
  -9  -9  -9  415.06  206.88
  -9  -9  -9  349.47  384.36
  -9  18  -9  210.28  187.28
   9   9   9  296.27  103.19
 -18   9   9  485.75  172.68
 -10  -7  -9   83.29  164.78
  17 -10  -9  127.29   80.19
  -7  17  -9   87.59  160.08
 -10  -7  -9  151.98  162.98
  10   7   9  158.28   84.09
 -17  10   9  194.08  153.08
  14 -10  -9  430.16   79.99
 -10  -4  -9  177.18  113.99
 -10  -4  -9   59.09  145.99
  -4  14  -9  262.87  114.19
  10   4   9  259.07   81.69
 -14  10   9  209.28  132.79
  10   4   9  162.18  113.59
 -10  -1  -9   27.60   90.19
  11 -10  -9   63.79   61.39
  10   1   9 -150.08   74.59
  10   1   9  -32.20   69.89
 -11  10   9   86.09  116.89
 -10   2  -9 2713.03  227.18
   8 -10  -9 2646.84  243.68
   8 -10  -9 2388.06  213.48
   2   8  -9 2548.65  227.18
  -8  10   9 2450.35  238.78
  10  -2   9 2726.03  221.78
  10  -2   9 2596.64  221.58
 -10   5  -9 2118.59  181.38
   5 -10  -9 1909.41  169.98
   5   5  -9 1997.30  181.58
   5 -10  -9 1707.13  192.08
  10  -5   9 1863.01  171.58
  -5  -5   9 1753.02  191.68
  -5  10   9 2037.90  191.28
  10  -5   9 1569.34  179.48
 -10   8  -9  784.12  129.19
   2 -10  -9  587.74  108.79
   2 -10  -9  773.92  137.19
  -2  10   9  749.33  101.09
  10  -8   9 1111.99  145.39
  -8  -2   9 1058.59  136.09
  10  -8   9  708.63  116.19
  11  -1  -9  222.48   69.99
  11  -1  -9  219.28  111.09
 -10  11  -9  165.88  100.19
  -1 -10  -9  184.78  103.49
  -1 -10  -9  116.49   83.19
   1  10   9  130.59  119.19
   1  10   9  205.98   66.29
 -11   1   9  193.08  116.89
  10 -11   9  190.38   89.49
 -10  14  -9  -43.70  124.49
  -4 -10  -9   95.99  107.99
  14  -4  -9  -96.89   80.79
  -4 -10  -9  111.09  116.19
 -14   4   9   69.59  142.89
   4  10   9  -12.90   71.49
 -10  17  -9 -121.59  166.98
  17  -7  -9  296.17   93.29
  -7 -10  -9   72.89  156.08
 -17   7   9  194.68  171.48
   7  10   9  209.08   88.99
 -10 -10  -9  136.69  231.38
  20 -10  -9  403.66  109.09
 -20  10   9 -150.68  215.78
  10  10   9  239.28  106.49
 -11  -8  -9  287.17  251.87
  19 -11  -9  202.58   87.79
 -11  -8  -9  202.48  321.77
  11   8   9  371.46  100.79
 -19  11   9  530.95  185.58
  -5  16  -9 -134.69  136.19
 -11  -5  -9  284.37  140.79
 -11  -5  -9  153.38  161.08
  16 -11  -9   99.49   80.29
 -16  11   9  -80.99  145.99
  11   5   9  -18.00   82.79
  -2  13  -9  996.10  132.59
  13 -11  -9  657.93  110.79
 -11  -2  -9  704.93  127.59
  11   2   9  680.03  119.19
 -13  11   9  936.61  154.28
  11   2   9  900.61  102.79
  10 -11  -9  -26.30  148.09
  10 -11  -9  -92.19   67.89
   1  10  -9  -43.30   88.19
 -11   1  -9   77.69   92.29
  11  -1   9 -101.39   77.69
  11  -1   9  -10.40   77.79
 -10  11   9  -16.20  116.59
   7 -11  -9  867.91  142.69
   7 -11  -9  844.12  113.69
   4   7  -9 1147.69  136.09
 -11   4  -9  972.10  132.39
  11  -4   9  941.51  124.29
  -7  11   9 1014.00  150.88
  11  -4   9 1150.68  127.09
   4 -11  -9 1561.64  172.68
   7   4  -9 1434.66  166.28
 -11   7  -9 1592.84  158.68
   4 -11  -9 1563.74  149.69
  -4  11   9 1539.35  172.78
  -7  -4   9 1344.67  186.58
  11  -7   9 1514.75  149.59
  11  -7   9 1326.77  172.68
  10   1  -9  255.97  115.09
   1 -11  -9   57.79   81.49
   1 -11  -9  229.08  102.99
 -11  10  -9  124.09  107.09
  11 -10   9  286.67  100.09
  -1  11   9  164.68   69.79
 -10  -1   9   82.69  117.09
  -1  11   9  213.28  110.89
  -2 -11  -9 1197.28  162.28
  13  -2  -9 1173.98  138.89
 -11  13  -9 1218.38  168.68
  -2 -11  -9 1335.47  157.18
   2  11   9 1369.16  131.79
 -13   2   9 1099.69  200.38
  16  -5  -9  153.68  105.09
  -5 -11  -9   32.80  143.49
 -11  16  -9   48.40  152.68
  -5 -11  -9  244.08  216.68
 -16   5   9  153.98  176.68
   5  11   9  -65.99   83.09
 -11  19  -9  453.35  230.48
  19  -8  -9  134.89  105.69
  -8 -11  -9   62.39  201.68
  -8 -11  -9   99.99  161.58
   8  11   9   69.79   93.79
 -19   8   9  109.69  217.78
 -11 -11  -9  329.27  279.17
  22 -11  -9  648.84  149.69
 -22  11   9 -169.68  303.17
  11  11   9  685.13  133.69
 -12  -9  -9  205.68  275.17
  21 -12  -9  163.38  107.49
 -21  12   9   14.70  240.78
  12   9   9   87.89  115.39
  18 -12  -9  -62.59   82.59
 -12  -6  -9 -219.68  227.48
 -12  -6  -9  149.88  186.48
  -6  18  -9 -348.97  186.08
  12   6   9 -152.08   87.09
 -18  12   9    7.50  158.08
 -12  -3  -9  994.10  172.28
 -15  12   9 1658.43  267.07
  12   3   9  981.70  161.58
  12   3   9 1040.00  169.88
 -12   0  -9  787.02  132.29
  12 -12  -9  602.34  186.38
   0  12  -9 1024.30  133.89
  12 -12  -9  861.51  106.49
 -12  12   9  974.80  155.48
  12   0   9  953.20  115.79
   9 -12  -9  230.98  128.19
   3   9  -9  216.08   92.69
 -12   3  -9   70.39   97.79
   9 -12  -9   -1.80   65.39
  12  -3   9  183.28   86.99
  -9  12   9  172.48  129.19
  12  -3   9   74.89   92.29
   6 -12  -9 1203.58  128.19
 -12   6  -9 1210.68  146.89
   6 -12  -9 1017.90  154.88
   6   6  -9 1321.17  156.28
  12  -6   9  983.60  143.29
  12  -6   9 1103.19  129.59
  -6  12   9 1081.09  160.78
   9   3  -9    1.20  110.99
   3 -12  -9   29.80   76.39
 -12   9  -9  -42.00   94.69
   3 -12  -9 -118.19  110.99
  -3  12   9  -81.29  119.59
  12  -9   9  178.48   93.79
  12  -9   9   43.00  125.89
  -9  -3   9 -121.49  126.79
 -12  12  -9 1945.21  208.68
   0 -12  -9 2199.88  205.18
   0 -12  -9 1931.81  190.28
  12 -12   9 1948.51  190.58
   0  12   9 1643.24  172.78
 -12   0   9 2055.19  238.28
  -3 -12  -9 1102.99  186.58
 -12  15  -9 1174.08  192.88
  -3 -12  -9 1244.68  167.48
  15  -3  -9  907.91  140.49
 -15   3   9 1396.36  211.48
  -6 -12  -9   64.99  197.58
  -6 -12  -9  -76.39  145.19
  18  -6  -9  230.08   98.69
 -12  18  -9 -125.39  198.48
   6  12   9   33.90   90.59
 -18   6   9  108.79  208.08
  -9 -12  -9  867.91  199.48
  21  -9  -9 1026.90  163.98
  -9 -12  -9  810.52  251.47
 -21   9   9  757.42  290.97
   9  12   9 1037.30  144.39
 -13  -7  -9   69.49  212.58
 -13  -7  -9  533.55  278.37
  20 -13  -9  144.39  101.09
  13   7   9  147.89  100.89
 -20  13   9  221.78  221.48
  -4  17  -9  271.37  166.38
 -13  -4  -9  250.97  165.28
  17 -13  -9  489.05  100.59
 -17  13   9  515.35  180.28
  13   4   9  373.16   95.09
 -13  -1  -9 2306.47  236.08
  14 -13  -9 1781.22  239.18
  -1  14  -9 2329.27  235.08
  13   1   9 2867.81  215.88
  13   1   9 2341.17  222.58
 -14  13   9 2385.86  273.07
   2  11  -9 1044.00  134.49
 -13   2  -9  851.31  139.79
  11 -13  -9  986.70  162.58
  11 -13  -9 1110.99  120.79
  13  -2   9  959.60  122.79
  13  -2   9  648.24  127.09
 -11  13   9  880.01  161.28
 -13   5  -9  588.14  120.39
   8 -13  -9  864.81  144.69
   5   8  -9  701.93  122.49
   8 -13  -9  787.02  100.49
  13  -5   9  610.14  110.39
  13  -5   9  519.95  114.39
  -8  13   9  321.07  144.89
 -13   8  -9  599.74  121.09
   5 -13  -9  958.30  155.58
   5 -13  -9  689.33  113.09
   8   5  -9  657.43  133.49
  13  -8   9  950.00  136.89
  -5  13   9  637.44  143.29
  13  -8   9  643.44  111.19
 -13  11  -9 1432.86  177.68
   2 -13  -9 1481.25  165.88
   2 -13  -9 1314.07  185.68
  11   2  -9 1302.17  176.38
 -11  -2   9 1847.32  215.08
  13 -11   9 1471.45  168.18
  -1 -13  -9 2319.57  259.47
 -13  14  -9 2481.25  254.17
  -1 -13  -9 2645.84  240.48
 -14   1   9 2627.34  303.57
  13 -14   9 2906.81  240.68
   1  13   9 2226.88  242.18
  -4 -13  -9 1135.09  284.67
  -4 -13  -9 1279.17  183.88
  17  -4  -9 1096.89  145.09
 -13  17  -9 1130.89  211.28
 -17   4   9  597.14  232.08
   4  13   9 1073.99  134.59
  13 -17   9 1037.50  163.08
  20  -7  -9  341.27  107.99
  -7 -13  -9  140.09  225.38
  -7 -13  -9  160.58  166.98
 -20   7   9 -172.38  255.17
   7  13   9  249.97  105.19
  22 -14  -9  154.58  118.39
  14   8   9   92.59  125.99
 -22  14   9  -79.19  275.67
 -14  -5  -9  138.79  187.88
  19 -14  -9   19.50   99.39
  14   5   9  171.68   97.79
 -19  14   9  -86.79  192.58
  -2  16  -9 1725.63  246.88
  16 -14  -9 2296.97  202.48
 -14  -2  -9 2096.29  236.88
  14   2   9 2283.27  193.18
 -16  14   9 1981.60  253.47
  13 -14  -9 2012.70  253.67
   1  13  -9 2548.05  246.18
  13 -14  -9 2373.36  232.98
 -14   1  -9 2619.04  247.18
 -13  14   9 2406.36  262.97
  14  -1   9 2221.68  221.78
  14  -1   9 2852.81  222.18
   4  10  -9  303.67  113.49
  10 -14  -9  207.78  138.09
 -14   4  -9  185.48  119.99
  10 -14  -9  309.27   77.69
  14  -4   9  351.66  105.39
  14  -4   9  273.27  108.99
 -10  14   9  338.27  148.39
 -14   7  -9 1164.98  164.98
   7 -14  -9 1227.98  168.48
   7   7  -9 1115.39  174.38
   7 -14  -9 1394.56  138.99
  -7  14   9 1082.99  194.88
  14  -7   9 1306.67  168.28
  14  -7   9 1199.18  141.09
   4 -14  -9   92.79   91.29
   4 -14  -9   91.09  148.39
  10   4  -9   36.50  123.99
 -14  10  -9 -100.49  110.19
  14 -10   9   45.00   92.99
  -4  14   9  -10.90  147.09
  14 -10   9  -56.29  133.19
   1 -14  -9 2813.72  260.77
 -14  13  -9 2534.45  264.97
   1 -14  -9 2801.22  251.07
  -1  14   9 2204.58  267.27
  14 -13   9 2676.13  292.87
 -13  -1   9 2903.61  319.47
  16  -2  -9 2078.89  200.88
  -2 -14  -9 2355.26  227.78
 -14  16  -9 1804.52  269.17
 -16   2   9 1984.50  296.27
   2  14   9 2188.18  197.38
  14 -16   9 1899.01  208.68
 -14  19  -9 -231.28  233.68
  -5 -14  -9  409.26  215.38
  19  -5  -9  379.86  103.09
  -5 -14  -9  286.27  162.08
  14 -19   9  313.17  139.69
   5  14   9  471.55  105.29
 -19   5   9  107.99  267.97
  -8 -14  -9  -18.70  270.97
  -8 -14  -9  677.93  199.38
  22  -8  -9  698.63  128.69
   8  14   9  669.13  136.69
 -22   8   9  321.37  336.77
  21 -15  -9  -41.20  106.09
 -15  -6  -9  106.79  224.38
 -21  15   9   22.60  244.18
  15   6   9  -14.40  112.59
  18 -15  -9 1015.10  132.79
 -18  15   9  543.55  198.88
  15   3   9 1018.70  123.49
 -15   0  -9 3424.56  316.47
  15 -15  -9 3692.83  293.87
  15   0   9 3792.62  294.27
 -15  15   9 3539.15  337.67
  15   0   9 2830.12  309.27
  12 -15  -9 1305.17  204.58
 -15   3  -9  651.43  232.38
  12 -15  -9 1368.06  176.88
   3  12  -9 1307.17  161.08
  15  -3   9  865.71  146.09
 -12  15   9 1171.28  209.38
  15  -3   9  991.30  147.19
   9 -15  -9   87.49   91.89
   9 -15  -9  132.29  147.99
 -15   6  -9  114.49  119.99
   6   9  -9  137.19  135.59
  15  -6   9   68.49  109.89
  15  -6   9   -7.10  106.19
  -9  15   9 -282.67  154.38
 -15   9  -9  791.72  146.59
   9   6  -9  673.83  152.28
   6 -15  -9  847.72  124.59
   6 -15  -9  768.92  166.38
  -6  15   9  820.92  184.08
  15  -9   9  787.72  146.99
  15  -9   9  836.82  126.89
 -15  12  -9 1231.48  178.08
   3 -15  -9 1006.50  156.98
   3 -15  -9 1258.57  199.88
  15 -12   9  806.82  270.77
  15 -12   9 1430.16  223.08
 -15  15  -9 2349.86  330.07
   0 -15  -9 2034.40  215.08
 -15   0   9 1780.02  294.77
   0  15   9 1761.42  188.38
  15 -15   9 1694.93  201.28
 -15  18  -9 1616.04  262.07
  18  -3  -9 1655.93  184.28
  -3 -15  -9 1482.95  251.87
  -3 -15  -9 2043.40  225.68
  15 -18   9 1248.08  192.38
   3  15   9 1634.64  175.38
 -18   3   9 1558.54  307.57
  -6 -15  -9   51.49  248.08
  -6 -15  -9  316.57  194.28
  21  -6  -9  123.89  115.49
  15 -21   9  126.49  146.69
   6  15   9  159.28  134.49
 -21   6   9  228.98  330.17
 -16  -4  -9   54.79  208.28
  20 -16  -9  230.68  113.29
  16   4   9  238.08  107.09
 -20  16   9 -135.69  231.98
  17 -16  -9 2015.50  197.88
  -1  17  -9 1468.55  278.47
 -16  -1  -9 1729.13  240.58
  16   1   9 2148.39  186.18
 -17  16   9 1884.81  269.77
 -16   2  -9 1974.20  230.78
  14 -16  -9 1887.81  243.78
   2  14  -9 1884.11  240.18
  14 -16  -9 2288.77  193.38
 -14  16   9 1992.90  263.17
  16  -2   9 1853.21  211.48
  16  -2   9 2211.58  205.38
   5  11  -9   60.29  137.59
 -16   5  -9   91.19  136.59
  11 -16  -9  208.68  156.08
  11 -16  -9  -75.19  107.59
 -11  16   9  268.47  175.48
  16  -5   9  102.19  125.99
  16  -5   9  -55.19  114.69
 -16   8  -9  659.73  160.98
   8   8  -9  544.75  148.29
   8 -16  -9  500.05  169.88
  -8  16   9  286.07  183.98
  16  -8   9  853.61  136.89
 -16  11  -9  284.77  153.58
   5 -16  -9  175.98  170.68
   5 -16  -9  266.97  173.08
  16 -11   9   24.10  151.78
  16 -11   9  185.68  102.59
   2 -16  -9 2124.49  231.18
 -16  14  -9 2214.18  260.27
  16 -14   9 2249.57  226.98
  -1 -16  -9 1369.96  209.48
  -1 -16  -9 1471.05  238.88
 -16  17  -9 1416.76  224.48
  16 -17   9 1219.18  178.38
 -17   1   9 1318.77  304.37
  -4 -16  -9  108.79  233.98
  -4 -16  -9  394.06  174.78
  20  -4  -9    7.90  142.89
 -16  20  -9 -731.43  341.47
   4  16   9 -155.48  126.49
  16 -20   9  186.38  137.29
 -20   4   9  224.18  320.87
  19 -17  -9  465.15  123.29
 -17  -2  -9  172.18  196.88
  17   2   9  355.86  104.09
 -19  17   9  100.09  233.78
  16 -17  -9 2327.87  207.18
 -17   1  -9 1540.85  241.78
  16 -17  -9 2275.47  311.57
   1  16  -9 2618.54  313.37
 -16  17   9 1526.35  276.27
  17  -1   9 2105.69  202.68
  13 -17  -9  277.47  100.49
  13 -17  -9  229.88  182.08
 -17   4  -9  312.67  143.99
  17  -4   9  263.37  125.19
 -13  17   9  510.65  192.68
  17  -4   9  638.44  125.79
   7  10  -9  345.77  206.28
  10 -17  -9   71.29   96.99
 -17   7  -9   64.59  131.29
  10 -17  -9  379.96  175.78
 -10  17   9   23.00  200.38
  17  -7   9   19.20  125.19
  17  -7   9  136.49  125.29
 -17  10  -9  355.26  149.99
   7 -17  -9 -139.09  171.68
   7 -17  -9    0.80  106.89
  17 -10   9  170.18  110.99
  17 -10   9  262.77  145.69
  -7  17   9   14.10  207.38
 -17  13  -9 1290.87  201.88
   4 -17  -9  980.60  173.58
   4 -17  -9 1452.35  213.88
  17 -13   9  986.00  161.78
  17 -13   9 1156.88  223.48
 -17  16  -9 1499.25  241.48
   1 -17  -9 1470.95  244.28
   1 -17  -9 1484.75  213.68
  17 -16   9 1537.35  200.98
 -16  -1   9 1046.70  463.05
  -2 -17  -9  345.17  180.68
  -2 -17  -9  614.34  238.88
 -17  19  -9  191.08  231.38
 -19   2   9  257.67  333.07
  17 -19   9  271.67  137.29
  21 -18  -9  158.28  124.49
 -18  -3  -9 -188.38  231.08
  18   3   9  193.38  122.29
 -21  18   9   -1.40  291.77
 -18   0  -9  284.17  183.48
  18 -18  -9  463.05  120.59
 -18  18   9  366.56  241.38
  18   0   9  331.97  100.69
  15 -18  -9 1023.40  132.39
 -18   3  -9  893.71  174.88
   3  15  -9  802.62  187.48
  15 -18  -9  721.73  245.58
  18  -3   9  465.75  144.99
  18  -3   9  854.11  136.79
 -15  18   9  278.97  220.28
  12 -18  -9  -46.50  109.69
 -18   6  -9   72.89  153.28
  18  -6   9 -165.88  125.89
 -12  18   9 -298.67  214.78
  18  -6   9 -263.87  126.59
   9 -18  -9  564.54  207.08
 -18   9  -9  123.79  156.08
   9 -18  -9  407.66  121.89
  -9  18   9  116.89  215.88
  18  -9   9  142.79  125.49
  18  -9   9   65.59  190.78
   6 -18  -9    1.60  122.39
   6 -18  -9   32.80  188.98
 -18  12  -9  233.98  151.08
  18 -12   9  103.49  119.29
  18 -12   9  230.28  172.28
 -18  15  -9 1410.66  248.68
   3 -18  -9 1802.82  218.08
   3 -18  -9 2096.09  249.78
  18 -15   9 1442.76  204.88
   0 -18  -9  543.15  239.18
 -18  18  -9   -1.70  212.18
   0 -18  -9  390.66  171.38
  18 -18   9  319.17  171.08
  -3 -18  -9  -27.50  202.08
  -3 -18  -9  148.49  269.47
  18 -21   9  -96.79  140.39
  20 -19  -9  212.98  128.69
 -19  -1  -9  368.06  225.48
 -20  19   9  365.66  293.77
  19   1   9  139.79  113.49
 -19   2  -9   -4.10  173.18
  17 -19  -9  394.56  113.79
  19  -2   9   88.89  167.18
 -17  19   9 -135.59  249.78
 -19   5  -9  181.38  165.68
  14 -19  -9   50.09  104.49
  14 -19  -9 -435.86  195.18
  19  -5   9  -84.29  134.69
 -14  19   9  -61.79  224.18
  19  -5   9   52.49  128.99
  11 -19  -9  534.05  185.68
 -19   8  -9   74.39  161.88
  11 -19  -9  260.57  105.19
  19  -8   9  173.48  139.89
  19  -8   9  142.39  136.79
 -11  19   9  -28.50  222.78
 -19  11  -9   70.09  167.98
   8 -19  -9  294.37  125.29
   8 -19  -9 -187.48  191.68
  19 -11   9  306.87  120.79
  19 -11   9  273.47  159.28
   5 -19  -9  283.17  210.98
   5 -19  -9  486.35  156.68
 -19  14  -9  573.04  178.68
  19 -14   9  155.48  127.59
   2 -19  -9  224.38  234.68
   2 -19  -9  226.78  161.58
 -19  17  -9  338.77  222.28
  19 -17   9  230.18  154.08
  -1 -19  -9  425.16  270.77
  -1 -19  -9   89.39  195.88
 -19  20  -9  -38.40  276.07
  19 -20   9  -36.00  177.98
  19 -20  -9  216.28  132.29
 -20   1  -9   78.99  212.08
 -19  20   9  494.15  311.17
  20  -1   9  166.88  107.89
  16 -20  -9   95.29  119.79
 -20   4  -9  -49.50  182.68
  16 -20  -9  289.17  238.78
 -16  20   9  198.98  260.57
  20  -4   9  118.49  128.59
  20  -4   9   18.80  150.38
 -20   7  -9  287.57  166.08
  13 -20  -9   35.70  116.69
  13 -20  -9  742.93  202.98
  20  -7   9 -124.09  143.59
  20  -7   9   -5.00  131.09
 -13  20   9  164.58  250.07
 -20  10  -9 -219.38  176.38
  10 -20  -9  209.28  124.09
  10 -20  -9  181.58  202.98
 -10  20   9 -202.18  268.37
  20 -10   9  207.68  151.28
  20 -10   9   41.60  146.59
 -20  13  -9  199.48  180.98
   7 -20  -9  282.47  141.39
   7 -20  -9  193.38  212.28
  20 -13   9  550.44  182.78
  20 -13   9   70.29  144.09
 -20  16  -9 -153.48  218.98
   4 -20  -9  276.67  164.28
   4 -20  -9   97.39  228.28
  20 -16   9   -2.50  128.89
 -20  19  -9  241.58  249.78
   1 -20  -9   20.60  191.68
   1 -20  -9  141.39  266.77
  20 -19   9  119.29  161.08
 -21   3  -9 -169.68  198.78
  18 -21  -9  219.88  130.39
  21  -3   9   23.90  126.89
 -18  21   9  426.76  318.17
  15 -21  -9  -11.90  227.28
  15 -21  -9   52.29  124.49
 -21   6  -9   40.30  184.08
 -15  21   9   -2.50  273.47
  21  -6   9 -149.09  158.78
  21  -6   9  -61.99  145.49
  12 -21  -9  347.47  211.78
 -21   9  -9  -96.19  192.38
  12 -21  -9 -100.99  135.59
 -12  21   9 -393.16  273.17
  21  -9   9 -245.58  162.28
  21  -9   9  366.56  158.58
   9 -21  -9  817.52  235.78
   9 -21  -9  989.40  173.08
 -21  12  -9  667.53  202.78
  21 -12   9  839.82  186.58
   6 -21  -9  378.86  239.98
 -21  15  -9  399.06  208.58
   6 -21  -9   34.40  156.78
  21 -15   9  198.88  157.58
  21 -15   9 -233.18  241.48
 -21  18  -9   53.79  249.28
   3 -21  -9   65.29  197.18
   3 -21  -9  303.97  261.67
  21 -18   9  -74.39  151.88
 -22   8  -9   -2.40  196.68
  14 -22  -9  442.56  141.79
  14 -22  -9  411.16  243.88
 -14  22   9  239.18  320.07
  22  -8   9  225.78  169.78
  22  -8   9  140.59  167.08
  11 -22  -9  592.14  153.48
 -22  11  -9  345.57  213.38
  11 -22  -9  841.32  240.88
  22 -11   9  186.38  175.08
  22 -11   9   19.30  181.48
 -22  14  -9  474.55  209.48
   8 -22  -9   55.59  252.27
   8 -22  -9  787.82  175.38
  22 -14   9  127.29  156.48
  22 -14   9  926.31  205.08
  -1   0 -10 7995.60  652.23
  -1   0 -10 8685.33  647.64
   0   1 -10 8203.38  653.63
   1  -1 -10 8459.15  654.13
   1  -1 -10 8292.57  647.74
  -1   1  10 8426.46  649.34
   0  -1  10 8167.58  650.33
   1   0  10 8576.34  650.63
   1   0  10 8512.15  648.24
  -1   1  10 8643.83  648.74
   0  -1  10 8745.72  647.94
   3  -2 -10 2791.92  230.88
  -2  -1 -10 2562.14  216.78
   3  -2 -10 2743.13  218.28
  -2  -1 -10 2578.74  225.88
  -1   3 -10 2641.14  228.68
  -3   2  10 2797.42  226.78
   2   1  10 2883.91  217.78
   2   1  10 2582.64  220.78
   0  -2 -10 4851.11  386.16
  -2   2 -10 4648.94  392.36
   0  -2 -10 4929.91  394.26
   2   0 -10 4735.83  393.36
   0   2  10 5214.58  388.76
  -2   0  10 5120.19  392.26
   0   2  10 5141.09  387.06
   2  -2  10 5236.78  386.16
   2  -2  10 4796.62  389.76
  -3  -2 -10  100.39   54.09
   5  -3 -10  103.59   77.39
  -3  -2 -10   69.99   75.39
   5  -3 -10   81.69   62.99
  -2   5 -10  208.18   80.29
   3   2  10  149.88   57.89
  -5   3  10  164.28   84.09
   3   2  10   43.60   54.19
   2  -3 -10 2648.44  223.58
  -3   1 -10 2569.84  210.58
   1   2 -10 2605.44  222.18
  -3   1 -10 2744.33  224.68
   2  -3 -10 2510.85  212.98
  -1  -2  10 2487.85  225.88
  -2   3  10 2717.03  217.28
   3  -1  10 2867.71  214.08
   3  -1  10 2604.94  219.38
  -1  -3 -10 1701.43  174.48
   4  -1 -10 1926.21  178.68
  -1  -3 -10 1906.31  163.68
  -3   4 -10 1950.50  175.38
   1   3  10 1994.80  164.98
   1   3  10 2143.19  166.18
  -4   1  10 1868.21  185.38
   7  -4 -10  779.42  107.89
   7  -4 -10  786.32   83.79
  -4  -3 -10  499.55   88.89
  -3   7 -10  617.44  106.09
  -4  -3 -10  590.74  108.89
   4   3  10  653.73   88.19
   4   3  10  479.95   89.39
  -7   4  10  738.03  119.79
   4  -4 -10  119.59   81.89
   0   4 -10  178.38   76.09
  -4   0 -10   79.19   46.90
  -4   0 -10   41.90   68.79
   4  -4 -10   65.49   51.79
   4   0  10    2.20   62.29
   4   0  10   67.09   53.79
  -4   4  10   59.99   84.59
   3   1 -10 2043.20  188.78
  -4   3 -10 2021.70  182.18
   1  -4 -10 2006.20  189.38
   1  -4 -10 2055.99  173.38
   4  -3  10 2388.86  178.58
   4  -3  10 1829.72  180.98
  -1   4  10 2115.19  173.18
  -2  -4 -10  324.17   66.59
  -4   6 -10  292.57   83.59
   6  -2 -10  229.68   84.89
  -2  -4 -10  184.08   84.89
   6  -2 -10  418.96   65.39
   2   4  10  415.46   71.49
  -6   2  10  347.17   94.79
   2   4  10  348.37   70.79
  -4   9 -10 1365.16  152.28
  -5  -4 -10 1475.65  141.39
   9  -5 -10 1289.17  156.38
  -5  -4 -10 1393.76  156.08
   9  -5 -10 1433.76  129.59
  -9   5  10 1126.89  162.28
   5   4  10 1479.15  132.89
   5   4  10 1142.99  136.49
  -5  -1 -10  637.14   90.29
  -5  -1 -10  716.53  112.09
  -1   6 -10  774.42  105.39
   6  -5 -10  768.52   94.49
   6  -5 -10  768.52  118.19
  -6   5  10  758.02  122.49
   5   1  10  875.51   90.69
   5   1  10  640.24   93.79
   2   3 -10  248.28   84.49
   3  -5 -10  217.38   59.49
  -5   2 -10   32.00   70.99
   3  -5 -10  117.79   84.79
  -5   2 -10   60.99   45.80
   5  -2  10  126.59   68.09
   5  -2  10   70.89   65.69
  -3   5  10  197.68   97.59
  -3   5  10  225.08   66.09
   0  -5 -10  333.57   66.39
   0  -5 -10  289.67   95.19
   5   0 -10  401.36   92.89
  -5   5 -10  166.48   78.19
   5  -5  10  293.07   75.59
  -5   0  10  276.27   92.39
   0   5  10  384.06   62.89
   5  -5  10   85.89  158.08
   8  -3 -10 1237.38  111.69
  -5   8 -10 1147.09  128.59
  -3  -5 -10  899.71  144.99
  -3  -5 -10 1005.70  130.89
   8  -3 -10  920.71  139.99
  -3  -5 -10 1070.49  116.79
   3   5  10 1161.78  114.49
   3   5  10  980.10  117.99
  -8   3  10  819.62  145.59
  11  -6 -10 1022.20  114.19
  11  -6 -10  964.30  145.19
  -6  -5 -10  906.01  147.69
  -5  11 -10 1100.59  140.99
  -6  -5 -10 1002.10  225.38
   6   5  10 1028.70  114.99
   6   5  10 1068.59  122.09
 -11   6  10  904.61  150.58
  -2   8 -10 1959.30  175.58
   8  -6 -10 1739.43  164.48
  -6  -2 -10 2070.49  182.68
   8  -6 -10 1789.72  186.68
  -8   6  10 1804.02  191.08
   6   2  10 1904.21  166.18
   6   2  10 1862.61  166.68
  -6   1 -10  927.91  120.79
   5  -6 -10  718.93   97.69
   1   5 -10  717.93  116.09
   5  -6 -10  832.92  123.09
   6  -1  10  952.10  102.29
   6  -1  10  884.31  102.89
  -5   6  10  849.12  124.79
   2  -6 -10  221.58   62.99
   2  -6 -10  314.87   92.29
   4   2 -10  249.28   85.69
  -6   4 -10  213.98   77.99
   2  -6 -10  142.39  212.18
  -4  -2  10  341.57  107.19
  -2   6  10  386.46  104.59
   6  -4  10  418.16   84.19
   6  -4  10  293.37   88.69
  -2   6  10  407.66   65.69
   7  -1 -10  116.09   85.39
  -1  -6 -10  108.99  118.69
  -1  -6 -10   51.59   66.39
  -6   7 -10   53.19   83.49
  -1  -6 -10   61.69   90.49
   1   6  10  142.59   60.29
  -7   1  10  166.58   92.79
  -4  -6 -10  728.93  106.69
  -6  10 -10  664.83  107.69
  10  -4 -10  540.85   91.79
  -4  -6 -10  560.64  117.69
  10  -4 -10  505.45  122.49
 -10   4  10  547.05  117.49
   4   6  10  620.64   95.69
  -7  -6 -10  815.52  143.39
  13  -7 -10  696.43   94.39
  -6  13 -10  480.75  125.99
  -7  -6 -10  458.95  140.69
 -13   7  10  528.95  150.18
   7   6  10  827.42  129.99
   7   6  10  638.04  102.89
  -3  10 -10  950.50  131.49
  10  -7 -10  967.80  153.98
  -7  -3 -10 1154.78  139.99
  10  -7 -10 1048.50  115.89
 -10   7  10 1244.98  155.18
   7   3  10  928.01  119.89
   7   3  10 1177.48  119.69
   0   7 -10 5296.17  440.26
   7  -7 -10 5428.76  433.46
   7  -7 -10 5318.87  446.66
  -7   0 -10 5710.93  441.46
   7   0  10 5661.03  433.76
   7   0  10 5613.64  434.66
  -7   7  10 5813.32  446.46
  -7   3 -10  710.93  115.09
   3   4 -10  752.72  115.89
   4  -7 -10  648.94   95.49
   4  -7 -10 1000.30  214.48
   4  -7 -10  943.01  130.79
   7  -3  10  664.43  107.89
   7  -3  10 1040.60  115.49
  -4   7  10  807.72  105.69
  -4   7  10  719.63  118.59
   1  -7 -10   16.10   65.99
   1  -7 -10  194.48  149.39
   6   1 -10  112.79   83.39
  -7   6 -10  -10.40   78.09
  -1   7  10   22.70  102.59
   7  -6  10  126.09  101.59
  -6  -1  10  183.88   95.99
   7  -6  10   60.49   74.99
  -1   7  10  163.28   59.89
   9  -2 -10  909.21  134.29
   9  -2 -10  963.10  105.39
  -2  -7 -10  884.81  115.89
  -7   9 -10  970.30  128.49
  -2  -7 -10  758.62  136.59
   2   7  10  867.31  104.39
  -9   2  10  865.41  146.69
  -5  -7 -10  522.55  124.39
  -5  -7 -10  592.14  137.19
  12  -5 -10  647.04   98.79
  -7  12 -10  681.73  121.69
  -5  -7 -10  494.35  110.79
 -12   5  10  360.06  133.89
   5   7  10  692.23  103.69
  -8  -7 -10  152.18  155.08
  -7  15 -10  -85.49  125.89
  -8  -7 -10  118.19  149.88
  15  -8 -10   92.39  100.09
  -4  12 -10  740.83  127.39
  12  -8 -10  701.33  104.79
  -8  -4 -10  666.83  123.69
   8   4  10  867.11  101.29
   8   4  10  623.94  115.89
 -12   8  10  622.34  139.29
  -1   9 -10 1345.97  152.88
   9  -8 -10 1351.56  176.28
   9  -8 -10 1212.18  132.89
  -8  -1 -10 1533.15  149.49
  -9   8  10 1416.96  165.78
   8   1  10 1373.86  134.89
   8   1  10 1370.06  135.09
   6  -8 -10 1740.23  192.08
   6  -8 -10 1828.42  162.88
   2   6 -10 1943.91  176.68
  -8   2 -10 1729.03  178.68
  -6   8  10 1647.94  190.08
   8  -2  10 2034.20  169.98
   8  -2  10 1852.71  172.68
   3  -8 -10 1003.00  167.58
   5   3 -10  973.20  129.69
  -8   5 -10 1055.89  134.09
   3  -8 -10 1087.39  149.59
   3  -8 -10 1149.48  117.99
   8  -5  10  992.40  138.19
  -5  -3  10 1094.59  147.59
  -3   8  10  991.80  142.69
   8  -5  10 1328.37  124.89
  -3   8  10 1084.59  116.79
   0  -8 -10  279.27   81.09
   0  -8 -10  268.77  199.68
   0  -8 -10  163.78  166.78
  -8   8 -10  127.29   86.29
   8   0 -10  248.58  100.09
  -8   0  10  267.67  103.49
   0   8  10  381.56  113.09
   8  -8  10  452.55   88.09
   0   8  10  286.97   63.89
  11  -3 -10  163.58  110.29
  -3  -8 -10  182.08   84.59
  11  -3 -10  220.48   71.89
  -3  -8 -10  -70.39  135.59
  -8  11 -10  110.49   97.79
  -3  -8 -10   12.40  110.89
 -11   3  10   71.49  111.09
   3   8  10  304.57   69.49
  -8  14 -10  115.89  129.39
  14  -6 -10   66.69   77.59
  -6  -8 -10  -19.00  115.59
  -6  -8 -10   91.39  155.88
  -6  -8 -10   58.09  135.49
   6   8  10   67.99   79.09
 -14   6  10  -77.99  136.39
  -9  -8 -10   77.99  221.68
  -8  17 -10   19.40  167.58
  17  -9 -10  -42.70   85.29
  -9  -8 -10   21.50  207.08
 -17   9  10   92.69  165.58
   9   8  10  230.88   97.09
  -9  -5 -10   -5.60  157.98
  14  -9 -10  111.49   74.79
  -5  14 -10   56.29  119.19
  -9  -5 -10  159.08  125.99
   9   5  10 -133.59  116.39
 -14   9  10   91.69  133.59
   9   5  10  106.09   81.09
  -2  11 -10  380.16  108.69
  -9  -2 -10  460.25  107.59
  11  -9 -10  534.15   80.79
   9   2  10  514.85   92.59
   9   2  10  596.14   84.59
 -11   9  10  359.26  118.19
   1   8 -10 1394.46  151.88
   8  -9 -10 1375.46  130.59
   8  -9 -10 1500.55  186.18
  -9   1 -10 1411.16  149.99
   9  -1  10 1466.55  140.29
  -8   9  10 1302.27  170.18
   9  -1  10 1288.87  146.89
   4   5 -10 1233.98  142.49
   5  -9 -10 1499.45  128.99
   5  -9 -10 1093.89  170.38
  -9   4 -10 1336.87  149.99
   5  -9 -10 1240.38  174.48
   9  -4  10 1253.97  150.78
   9  -4  10 1358.86  144.09
  -5   9  10 1169.68  163.48
  -4  -5  10 1230.28  166.18
   2  -9 -10  842.12  111.19
  -9   7 -10  859.81  128.79
   7   2 -10  895.01  134.19
   2  -9 -10 1382.56  199.18
   9  -7  10 1210.38  135.09
   9  -7  10  773.32  117.59
  -2   9  10  915.11  134.79
  -2   9  10  830.82  106.39
  -7  -2  10  818.02  147.99
  10  -1 -10  202.58  102.29
  -9  10 -10  108.19   99.39
  -1  -9 -10  225.18  109.99
  -1  -9 -10  257.87   82.89
   1   9  10  240.08  114.89
 -10   1  10  154.58  113.29
   1   9  10  230.88   64.19
  -4  -9 -10  100.59   98.69
  13  -4 -10   33.80   76.49
  -9  13 -10   64.49  117.49
  -4  -9 -10  -53.49  120.39
  -4  -9 -10  -71.39  186.88
   4   9  10   -8.00   72.89
 -13   4  10  127.09  144.29
  -9  16 -10  -81.09  157.38
  -7  -9 -10 -172.88  161.08
  16  -7 -10  180.78   85.09
  -7  -9 -10   89.19  135.59
 -16   7  10   91.29  167.78
   7   9  10  -23.10   90.59
  -9  19 -10   56.69  231.08
 -10  -9 -10  -52.49  258.57
 -19  10  10  -88.99  189.78
  -6  16 -10  362.46  157.88
 -10  -6 -10  317.77  268.57
 -10  -6 -10  308.17  160.78
 -16  10  10  -70.09  145.89
 -10  -3 -10  139.99  114.19
  -3  13 -10  149.09  111.69
  13 -10 -10   22.40   66.79
 -13  10  10  123.79  135.29
  10   3  10   43.20  103.79
  10   3  10   32.60   74.79
  10 -10 -10  775.72   91.89
   0  10 -10  612.74  113.19
 -10   0 -10  687.43  115.09
 -10  10  10  495.55  128.99
  10   0  10  811.02  103.69
  10   0  10  636.34   95.09
   7 -10 -10 1113.49  215.28
   7 -10 -10 1085.49  233.58
 -10   3 -10 1104.39  137.29
   7 -10 -10 1221.78  121.09
   3   7 -10 1071.59  134.29
  -3  -7  10  917.61  168.28
  10  -3  10 1048.20  129.19
  10  -3  10 1319.47  136.19
  -7  10  10  880.51  157.98
   4 -10 -10  390.96   84.79
   6   4 -10  512.55  101.19
 -10   6 -10  786.82  108.79
   4 -10 -10  624.94  153.78
  10  -6  10  619.64  112.69
  -4  10  10  508.45  120.09
  -6  -4  10  452.55  109.89
  10  -6  10  514.45   96.19
   1 -10 -10  195.68  154.08
 -10   9 -10  121.69  104.39
   9   1 -10  121.99  101.29
   1 -10 -10  245.18   86.89
  10  -9  10  282.67   93.49
  -1  10  10  272.67  118.19
  -1  10  10  226.08   69.09
  -9  -1  10  107.89  117.19
 -10  12 -10  248.88  114.09
  12  -2 -10  220.38  119.79
  -2 -10 -10  122.19   92.89
  -2 -10 -10   17.50  125.39
   2  10  10  115.19   70.29
   2  10  10  195.78  132.29
 -12   2  10   -8.10  132.99
  -5 -10 -10 -100.19  146.69
 -10  15 -10   12.60  149.79
  -5 -10 -10  193.48  212.18
  15  -5 -10   86.09   87.19
   5  10  10  105.89   84.59
 -15   5  10  178.18  163.08
  18  -8 -10  422.36  103.89
 -10  18 -10  566.24  417.16
  -8 -10 -10  428.66  161.58
   8  10  10  528.05  102.49
 -18   8  10  185.48  210.18
  21 -11 -10  544.25  133.29
 -11 -10 -10 1116.39  381.16
 -21  11  10  -89.69  253.77
  11  10  10  351.56  120.39
  18 -11 -10 -119.89   75.99
 -11  -7 -10 -111.19  211.08
  -7  18 -10 -327.67  229.18
  11   7  10  -88.39   88.79
 -18  11  10  178.08  187.18
 -11  -4 -10  161.28  137.19
  15 -11 -10  237.18   82.79
  -4  15 -10  164.78  134.99
 -15  11  10  120.99  141.79
  11   4  10  124.69  136.99
  11   4  10  129.89   98.29
 -11  -1 -10   52.79  109.59
  -1  12 -10  169.88  105.69
  12 -11 -10   63.69   72.09
  11   1  10  145.69   75.39
  11   1  10  -29.60   85.09
 -12  11  10 -113.69  138.79
 -11   2 -10  607.94  117.09
   9 -11 -10  452.25  198.68
   2   9 -10  568.74  104.39
   9 -11 -10  526.15   89.29
  11  -2  10  775.92  107.39
  -9  11  10  413.56  126.09
  11  -2  10  839.92  106.39
   6 -11 -10  887.81  156.38
   6 -11 -10  935.01  115.79
 -11   5 -10  985.20  135.39
   5   6 -10 1077.49  137.59
  11  -5  10 1252.47  143.49
  11  -5  10 1009.80  131.29
  -6  11  10 1016.30  158.98
  -5  -6  10 1008.30  148.59
 -11   8 -10  196.48  107.19
   3 -11 -10  240.88   79.89
   8   3 -10   55.49  104.69
   3 -11 -10  308.27  149.79
  11  -8  10  208.68   89.19
  11  -8  10  169.58  124.19
  -3  11  10  344.77   82.59
  -3  11  10  216.08  111.49
  -8  -3  10  127.99  124.59
   0 -11 -10  603.44  105.39
   0 -11 -10  660.63  128.69
  11   0 -10  547.35  124.09
 -11  11 -10  436.76  125.99
   0  11  10  480.75  146.99
   0  11  10  512.85   86.49
  11 -11  10  499.45  118.79
 -11   0  10  144.79  141.99
  -3 -11 -10  519.05  150.48
  -3 -11 -10  429.66  117.19
 -11  14 -10  286.47  136.59
  14  -3 -10  303.07   89.79
 -14   3  10  206.98  165.58
   3  11  10  223.68  128.69
 -11  17 -10 -311.37  215.38
  -6 -11 -10 -111.89  212.68
  17  -6 -10  167.68  102.49
  -6 -11 -10  331.67  133.99
 -17   6  10  298.97  187.98
   6  11  10  119.19   91.19
  -9 -11 -10  570.74  272.87
  -9 -11 -10  432.46  175.08
  20  -9 -10  628.54  131.89
 -20   9  10  -41.30  245.18
   9  11  10  441.36  117.69
  20 -12 -10  178.78  100.39
 -12  -8 -10   33.30  315.97
  12   8  10  -50.19  113.29
 -20  12  10  126.69  220.98
  17 -12 -10  314.17   89.19
  -5  17 -10  594.24  168.58
 -12  -5 -10  -58.99  172.48
 -17  12  10  150.48  168.28
  12   5  10  153.98   92.59
  12   5  10  113.39  185.88
  -2  14 -10 1233.48  176.98
 -12  -2 -10 1236.18  180.28
  12   2  10 1153.68  161.48
 -14  12  10 1341.17  232.48
 -12   1 -10  131.89  110.99
  11 -12 -10  263.07   74.79
   1  11 -10  132.19  103.99
  12  -1  10  203.38   84.79
  12  -1  10   85.59   89.89
 -11  12  10  120.99  142.79
   8 -12 -10  762.02  109.89
   8 -12 -10  595.14  158.58
   4   8 -10  542.25  114.89
 -12   4 -10  580.24  121.49
  12  -4  10  863.81  130.09
  12  -4  10  880.51  117.99
  -8  12  10  492.15  135.29
   5 -12 -10  695.63  100.09
 -12   7 -10  534.75  117.59
   5 -12 -10  556.84  157.58
   7   5 -10  460.65  118.89
  -5  12  10  623.14  139.29
  -7  -5  10  371.46  142.29
  12  -7  10  557.44  103.19
  12  -7  10  889.41  126.09
  10   2 -10   34.90  122.49
   2 -12 -10  174.28  161.98
   2 -12 -10   46.90   88.19
 -12  10 -10  165.88  121.49
 -10  -2  10   86.69  140.39
  12 -10  10   96.69   98.39
  -2  12  10  241.08  130.49
  -2  12  10   99.89   82.09
  -1 -12 -10 1454.85  201.48
  -1 -12 -10 1585.34  177.58
 -12  13 -10 1430.36  192.58
  12 -13  10 1666.13  176.38
 -13   1  10 1252.27  237.88
  -4 -12 -10  217.38  178.88
 -12  16 -10  393.06  208.18
  16  -4 -10  371.16  121.89
  -4 -12 -10  454.45  134.39
 -16   4  10  483.15  205.98
   4  12  10  574.94   95.79
  -7 -12 -10   92.69  242.38
  19  -7 -10  289.97  105.19
  -7 -12 -10  403.36  157.58
 -12  19 -10  279.97  224.78
   7  12  10  294.77  104.39
 -19   7  10   79.09  228.78
  22 -10 -10  232.68  121.09
 -10 -12 -10   12.20  192.28
 -10 -12 -10  166.18  326.17
  10  12  10  374.16  132.39
 -22  10  10    7.50  319.57
  22 -13 -10  142.79  120.39
  13   9  10  284.97  134.99
 -22  13  10 -248.58  286.67
  19 -13 -10   74.59   91.99
 -13  -6 -10 -254.67  201.08
  13   6  10  121.99  102.79
 -19  13  10   41.10  191.48
  -3  16 -10  771.52  177.78
  16 -13 -10 1266.17  138.99
 -13  -3 -10 1384.16  197.18
 -16  13  10  743.83  184.08
  13   3  10 1165.08  136.79
  13   3  10 1032.20  177.08
 -13   0 -10 1842.72  198.38
   0  13 -10 1605.24  188.78
  13   0  10 1515.25  170.38
  13   0  10 1415.16  170.28
 -13   3 -10  -14.80  113.29
  10 -13 -10   92.69  172.18
  10 -13 -10   10.20   78.69
   3  10 -10   68.69  109.59
 -10  13  10   49.60  149.49
  13  -3  10  100.29   98.39
  13  -3  10   61.29   97.49
   7 -13 -10  793.82  160.58
   7 -13 -10  765.72  105.69
 -13   6 -10  582.94  120.29
   6   7 -10  364.16  124.09
  -7  13  10  507.05  141.29
  13  -6  10  466.45  120.99
  13  -6  10  527.75  115.39
   9   4 -10   91.49  125.69
   4 -13 -10  253.47  161.28
 -13   9 -10   24.60  110.89
   4 -13 -10  148.39   91.59
  -4  13  10  490.35  133.69
  -9  -4  10   -2.00  153.68
  13  -9  10  136.29  140.19
  13  -9  10   45.30   97.99
 -13  12 -10 1453.55  190.78
   1 -13 -10 1534.85  174.08
   1 -13 -10 1459.95  209.08
 -12  -1  10 1441.06  240.78
  13 -12  10 1472.05  174.38
  -1  13  10 1222.78  155.28
 -13  15 -10 1119.59  278.67
  -2 -13 -10 1753.22  194.98
  -2 -13 -10 1655.33  240.38
   2  13  10 1606.94  160.18
  13 -15  10 1704.73  185.68
  -5 -13 -10  -16.90  150.58
  18  -5 -10   -1.60  100.69
  -5 -13 -10 -172.68  214.88
 -13  18 -10  304.17  209.68
 -18   5  10  122.59  233.18
   5  13  10  229.08   99.29
  21  -8 -10  526.05  121.39
  -8 -13 -10  149.99  284.77
  -8 -13 -10  441.46  182.78
 -21   8  10  -65.39  295.87
   8  13  10  588.14  127.19
  21 -14 -10  -39.20   95.99
 -14  -7 -10  415.36  264.57
 -21  14  10  -81.79  243.98
  14   7  10  -85.29  116.59
  18 -14 -10  341.47  104.69
  -4  18 -10   80.59  217.08
 -14  -4 -10  306.97  185.78
  14   4  10  582.54  108.59
 -18  14  10  -68.69  175.98
  15 -14 -10 2016.50  188.78
 -14  -1 -10 1890.71  228.28
  -1  15 -10 1710.33  235.48
  14   1  10 1752.52  215.58
 -15  14  10 1850.11  245.68
  14   1  10 2297.57  185.78
   2  12 -10 1054.89  185.28
  12 -14 -10 1387.46  156.98
  12 -14 -10 1588.64  281.07
 -14   2 -10 1360.76  239.48
  14  -2  10 1313.27  154.88
  14  -2  10 1476.15  164.88
   9 -14 -10 -103.99  154.48
   9 -14 -10   75.29   77.09
 -14   5 -10    1.60  123.99
   5   9 -10   19.40  112.39
  -9  14  10  169.08  155.88
  14  -5  10   50.99  108.39
  14  -5  10   75.69  110.59
   8   6 -10  158.78  126.59
   6 -14 -10   59.19   86.89
   6 -14 -10   65.19  158.68
 -14   8 -10  163.98  110.99
  14  -8  10  112.79  124.49
  14  -8  10   14.10   94.69
  -6  14  10  178.58  145.09
   3 -14 -10  597.04  178.48
   3 -14 -10  490.25  110.89
 -14  11 -10  570.04  148.99
 -11  -3  10  137.29  196.08
  -3  14  10  393.76  164.48
 -14  14 -10 2501.25  317.17
   0 -14 -10 2062.69  214.98
   0 -14 -10 1553.84  244.88
  14 -14  10 1918.91  212.68
   0  14  10 1956.60  185.48
  -3 -14 -10  884.01  153.08
  17  -3 -10  527.75  112.39
  -3 -14 -10  737.53  226.88
 -14  17 -10  761.22  193.68
  14 -17  10  471.65  142.89
 -17   3  10  394.46  244.38
  -6 -14 -10   -2.50  259.57
  -6 -14 -10  255.77  174.08
 -14  20 -10  341.97  370.06
  20  -6 -10  432.16  115.69
   6  14  10  456.25  116.89
 -20   6  10  203.08  283.67
  20 -15 -10   14.10   96.89
 -15  -5 -10 -178.18  219.18
 -20  15  10  107.19  222.68
  15   5  10  -40.10  113.59
 -15  -2 -10 1221.48  212.68
  17 -15 -10 1067.89  142.39
  -2  17 -10  885.91  199.58
 -17  15  10  769.42  217.38
  15   2  10 1030.60  141.19
 -15   1 -10 2053.39  231.68
  14 -15 -10 2052.99  195.38
 -14  15  10 1656.53  253.87
  15  -1  10 1508.05  266.57
  15  -1  10 2455.15  202.78
 -15   4 -10  196.08  132.99
   4  11 -10  124.19  119.29
  11 -15 -10  149.09  185.28
  11 -15 -10  281.97   98.29
  15  -4  10   46.60  153.38
  15  -4  10  345.17  118.19
 -11  15  10  118.19  173.38
   7   8 -10  -38.10  133.89
   8 -15 -10  306.47  170.48
 -15   7 -10  179.08  167.58
   8 -15 -10 -103.19  177.48
  -8  15  10  159.38  171.08
  15  -7  10  182.78  122.89
   5 -15 -10   -8.70  173.88
  10   5 -10   32.00  136.09
 -15  10 -10   82.79  152.28
  -5  15  10   90.99  173.28
  15 -10  10  134.79  115.49
  15 -10  10   85.59  151.58
 -15  13 -10 1674.23  213.68
   2 -15 -10 1642.24  186.88
   2 -15 -10 1337.27  233.88
  15 -13  10 1438.06  183.78
  -1 -15 -10 1491.35  252.97
 -15  16 -10 1747.43  228.68
  -1 -15 -10 1556.74  203.08
  15 -16  10 1343.37  196.28
 -16   1  10  712.93  290.07
   1  15  10 1465.65  164.28
  19  -4 -10  281.37  130.79
 -15  19 -10 -194.08  239.78
  -4 -15 -10  -17.40  159.58
  -4 -15 -10  471.15  248.48
   4  15  10  107.59  118.79
 -19   4  10  -26.20  282.77
  15 -19  10  -45.70  139.39
  19 -16 -10   41.10  111.09
 -16  -3 -10  543.35  207.48
 -19  16  10  222.48  222.98
  16   3  10  -17.60  106.29
 -16   0 -10 1965.90  246.78
  16 -16 -10 2115.19  193.68
   0  16 -10 1516.95  243.58
  16   0  10 1801.92  223.68
  16   0  10 2044.50  190.18
 -16  16  10 1889.81  278.37
 -16   3 -10 1178.38  178.08
  13 -16 -10  813.92  226.58
  13 -16 -10 1032.70  134.09
   3  13 -10  747.03  174.48
  16  -3  10 1005.80  154.88
 -13  16  10  691.13  200.58
  16  -3  10 1291.77  158.88
  10 -16 -10 -101.29  173.28
  10 -16 -10  -92.99   88.09
 -16   6 -10   59.99  138.79
   6  10 -10  -68.49  166.98
  16  -6  10  144.59  125.49
 -10  16  10  -47.70  215.58
  16  -6  10  -10.30  118.19
   9   7 -10 -160.68  135.69
   7 -16 -10   81.79   95.09
 -16   9 -10   -5.00  126.89
   7 -16 -10 -113.59  181.98
  16  -9  10   -9.40  140.29
  -7  16  10  176.98  193.98
  16  -9  10   96.99  108.69
   4 -16 -10  415.86  200.48
   4 -16 -10  342.27  117.99
 -16  12 -10  501.55  154.18
  16 -12  10  403.76  110.39
 -16  15 -10 1215.78  220.38
   1 -16 -10 1463.05  248.18
   1 -16 -10 1582.84  196.18
  16 -15  10 1435.06  190.18
 -15  -1  10  586.84  307.27
  -2 -16 -10  293.47  242.18
  -2 -16 -10  244.58  161.18
 -16  18 -10  602.04  207.88
  16 -18  10  234.18  152.98
 -18   2  10  371.06  286.57
  -5 -16 -10  269.47  188.68
  -5 -16 -10  128.79  295.27
  21  -5 -10  227.88  156.38
   5  16  10    5.40  141.09
  16 -21  10   22.60  155.08
 -21   5  10 -206.18  356.86
  21 -17 -10   43.00  117.99
 -17  -4 -10   14.80  242.18
  17   4  10   40.30  122.59
 -21  17  10  152.28  279.17
  18 -17 -10  265.47  115.19
 -17  -1 -10  288.97  197.88
 -18  17  10   75.09  208.98
  17   1  10  371.76  111.29
 -17   2 -10  882.21  181.68
   2  15 -10  440.46  172.28
  15 -17 -10  868.31  137.29
  17  -2  10  896.81  155.18
 -15  17  10  627.44  223.88
  12 -17 -10  149.88  108.49
  12 -17 -10  563.84  205.68
   5  12 -10  185.68  148.89
 -17   5 -10  -90.79  151.18
  17  -5  10  -25.70  126.39
  17  -5  10  300.97  126.29
 -12  17  10  -54.69  187.28
   8   9 -10   24.20  146.99
 -17   8 -10   71.39  146.89
   9 -17 -10 -187.48  192.58
   9 -17 -10  -59.79  104.99
  -9  17  10  156.78  271.57
  17  -8  10  193.68  143.49
  17  -8  10    3.70  120.29
   6 -17 -10  106.69  114.79
 -17  11 -10  -36.20  141.89
  -6  17  10    9.60  226.08
  17 -11  10  362.26  116.39
  17 -11  10  226.88  170.58
 -17  14 -10  837.92  193.18
   3 -17 -10  534.35  143.19
   3 -17 -10  769.62  217.48
  17 -14  10  507.35  121.89
   0 -17 -10  609.74  246.88
   0 -17 -10  348.57  163.88
 -17  17 -10  494.65  206.18
 -17   0  10  413.16  329.07
  17 -17  10  538.15  157.08
 -17  20 -10 -197.08  278.57
  -3 -17 -10   32.20  184.68
  -3 -17 -10 -262.57  278.47
  17 -20  10   37.00  159.38
 -20   3  10  175.88  369.56
 -18  -2 -10   64.09  220.78
  20 -18 -10   48.50  123.49
  18   2  10  -37.90  119.39
 -20  18  10  -35.20  257.17
  17 -18 -10  261.67  107.19
 -18   1 -10  323.57  192.98
  18  -1  10  428.06  110.99
 -17  18  10  360.26  215.38
  18  -1  10  226.98  169.68
   4  14 -10   -5.80  160.58
  14 -18 -10  194.98  273.57
  14 -18 -10  469.05  108.29
 -18   4 -10  327.77  168.58
 -14  18  10  412.96  222.68
  18  -4  10  365.26  130.59
  18  -4  10  163.18  127.79
  11 -18 -10 -109.69  106.89
  11 -18 -10   47.30  214.18
 -18   7 -10    8.40  163.28
 -11  18  10  -13.20  212.08
  18  -7  10  148.39  140.59
  18  -7  10   49.60  130.29
   8 -18 -10  323.07  206.48
   8 -18 -10  632.34  123.69
 -18  10 -10  421.66  152.68
  18 -10  10  564.24  279.57
  18 -10  10  470.95  134.39
   5 -18 -10 -116.39  130.99
 -18  13 -10  261.17  170.38
   5 -18 -10   11.20  214.68
  18 -13  10   74.79  133.79
   2 -18 -10  186.18  151.48
   2 -18 -10  418.66  241.38
 -18  16 -10  -36.70  199.48
  18 -16  10  398.36  150.18
  -1 -18 -10  265.77  273.07
  -1 -18 -10 -202.88  179.28
 -18  19 -10   23.10  241.58
  18 -19  10  279.47  163.08
  19 -19 -10 -118.89  121.69
 -19   0 -10   42.30  214.88
 -19  19  10   58.09  265.67
  19   0  10  132.09  121.79
 -19   3 -10  -83.09  183.88
  16 -19 -10   20.60  112.69
 -16  19  10   58.99  242.28
  19  -3  10  147.09  151.08
  19  -3  10   46.60  124.59
  13 -19 -10   26.70  221.88
  13 -19 -10  -60.09  108.89
 -19   6 -10  107.09  172.88
  19  -6  10   63.99  129.39
  19  -6  10  101.29  142.09
 -13  19  10  -11.60  226.38
 -19   9 -10  303.37  177.58
  10 -19 -10  497.75  124.09
  10 -19 -10  547.75  211.38
 -10  19  10  275.87  242.68
  19  -9  10  309.97  150.58
  19  -9  10  186.88  144.29
   7 -19 -10  229.68  143.49
   7 -19 -10   71.29  221.88
 -19  12 -10  332.87  175.18
  19 -12  10  312.17  127.39
  19 -12  10  444.56  182.08
   4 -19 -10   -4.20  238.78
   4 -19 -10  -29.70  153.28
 -19  15 -10  123.99  208.18
  19 -15  10  -82.89  125.29
   1 -19 -10   31.60  276.87
 -19  18 -10 -355.26  227.88
   1 -19 -10 -184.38  171.18
  19 -18  10  -28.20  155.68
 -20   2 -10  -64.19  208.78
  18 -20 -10 -139.79  135.19
 -18  20  10  250.07  275.77
  20  -2  10  -23.30  116.49
  15 -20 -10  103.59  124.09
 -20   5 -10 -326.07  185.28
 -15  20  10  -78.49  249.78
  20  -5  10  150.88  144.89
  20  -5  10    4.40  144.09
  12 -20 -10  464.25  229.78
  12 -20 -10  109.39  134.19
 -20   8 -10  235.38  191.88
  20  -8  10  128.79  147.69
 -12  20  10 -126.09  246.68
  20  -8  10  531.45  159.08
 -20  11 -10  570.34  185.28
   9 -20 -10  503.25  237.48
  20 -11  10  385.36  169.68
  20 -11  10  458.75  156.18
   6 -20 -10  403.96  151.58
   6 -20 -10  457.95  245.38
 -20  14 -10  233.68  202.78
  20 -14  10   29.90  144.59
   3 -20 -10 -156.38  271.07
   3 -20 -10   84.39  179.98
 -20  17 -10 -101.59  232.58
  20 -17  10   -6.70  131.49
 -21   4 -10 -314.37  204.08
  17 -21 -10  382.26  143.19
  21  -4  10  212.58  186.88
 -17  21  10 -113.79  292.67
  21  -4  10  268.67  141.39
 -21   7 -10   75.89  206.98
  14 -21 -10  215.48  133.69
  14 -21 -10 -296.57  258.37
  21  -7  10   78.69  156.88
  21  -7  10 -166.78  156.78
 -14  21  10   90.79  277.37
  11 -21 -10  415.76  146.89
 -21  10 -10  349.67  189.98
  11 -21 -10  360.06  245.68
  21 -10  10  283.77  163.58
 -11  21  10 -156.78  300.57
  21 -10  10  341.87  170.88
   8 -21 -10  545.85  167.18
 -21  13 -10  710.43  208.68
   8 -21 -10  532.65  259.97
  21 -13  10  219.88  192.18
   5 -21 -10  246.08  274.17
   5 -21 -10  -99.79  172.48
 -21  16 -10  483.95  243.28
  21 -16  10 -115.19  156.08
  13 -22 -10   73.69  277.87
  13 -22 -10  243.08  147.99
 -22   9 -10  137.79  217.48
  22  -9  10  -31.90  175.88
  22  -9  10  114.49  166.28
  10 -22 -10   87.09  271.87
 -22  12 -10   38.80  201.78
  22 -12  10 -135.99  168.78
  22 -12  10  165.68  184.08
   0  -1 -11 7402.46  610.74
   0  -1 -11 6814.12  618.44
  -1   1 -11 6630.94  617.84
  -1   0  11 8429.16  614.44
   0   1  11 8455.15  612.44
   0   1  11 8583.04  614.14
  -1   0  11 8582.54  613.04
   1  -1  11 8308.77  614.94
   1  -1  11 8196.88  611.84
  -2   0 -11 4174.68  329.27
   2  -2 -11 4049.79  329.57
  -2   0 -11 3593.04  338.27
   2   0  11 4627.04  331.17
   2   0  11 4652.43  336.47
   0  -2  11 4097.59  341.37
  -2   3 -11 2208.58  210.98
  -1  -2 -11 2453.45  199.48
   3  -1 -11 1952.90  216.68
  -1  -2 -11 2135.29  212.68
   1   2  11 2654.93  201.08
   2  -3  11 2726.83  200.18
   1   2  11 2683.53  203.28
   4  -3 -11  323.87   89.19
  -1   4 -11  291.47   86.79
   4  -3 -11  276.57   67.59
  -3  -1 -11  441.86   71.99
  -3  -1 -11  114.69   87.99
   3   1  11  350.56   69.39
   3   1  11  418.06   71.09
  -4   3  11  126.69   93.89
   1  -3 -11 2282.87  189.48
   1  -3 -11 2113.29  202.78
  -3   2 -11 1823.92  198.38
  -2  -1  11 2635.34  210.48
   3  -2  11 2334.97  197.98
  -1   3  11 2499.05  192.18
   5  -2 -11   -1.50   60.99
   5  -2 -11   77.19   88.39
  -3   5 -11   89.89   79.19
  -2  -3 -11   75.09   60.99
  -2  -3 -11  205.88   84.89
  -5   2  11   57.89   92.89
   2   3  11    4.00   61.29
   2   3  11  -56.49   57.69
  -4  -2 -11 1140.49  139.49
  -4  -2 -11 1338.17  122.59
  -2   6 -11 1575.94  140.79
   6  -4 -11 1246.68  143.89
   4   2  11 1091.39  123.89
   4   2  11 1308.07  124.69
  -6   4  11 1049.09  150.38
  -4   1 -11  154.78   52.99
   3  -4 -11  313.47   60.89
  -4   1 -11  222.48   84.39
   3  -4 -11  309.77   89.09
   1   3 -11  305.77   86.49
  -3   4  11  145.49  106.09
   4  -1  11  160.78   75.99
  -4   4 -11  115.69   79.79
   4   0 -11   85.29   85.69
   0  -4 -11   18.90   90.39
   0  -4 -11  133.29   58.39
  -4   0  11   88.89  106.59
   4  -4  11  294.47   72.89
   0   4  11  220.38   58.19
   7  -3 -11  520.45   85.19
   7  -3 -11  188.58   97.89
  -3  -4 -11  208.98   71.09
  -4   7 -11  294.37   91.09
  -3  -4 -11  406.16  102.09
   3   4  11  365.36   77.19
   3   4  11  562.54   89.29
  -7   3  11  391.86  106.69
   8  -5 -11 1343.87  126.79
  -5  -3 -11 1197.88  129.29
   8  -5 -11 1172.98  157.08
  -3   8 -11 1225.28  145.09
  -5  -3 -11 1230.58  149.09
  -8   5  11 1330.87  162.18
   5   3  11 1495.05  129.09
   5   3  11 1050.49  131.49
   5  -5 -11  648.94  115.69
   5  -5 -11  648.54   88.59
  -5   0 -11  555.44   82.59
   5   0  11  739.23   98.69
   5   0  11  791.72   86.69
  -5   5  11  378.56  115.69
   2  -5 -11    9.70   58.59
   2  -5 -11  -16.40   81.29
  -5   3 -11   25.10   78.99
   3   2 -11  128.09   84.39
   5  -3  11   -9.10   70.89
  -2   5  11   50.19   64.79
   5  -3  11    5.60   75.29
  -1  -5 -11   50.39   93.79
  -6   1  11  306.97   98.39
   9  -4 -11 1427.26  138.69
  -4  -5 -11 1380.36  167.58
  -4  -5 -11 1617.34  147.49
  -5   9 -11 1828.82  162.48
   9  -4 -11 1391.96  164.18
   4   5  11 1180.28  144.19
  -9   4  11 1387.86  173.78
  -6  -4 -11  371.76   90.49
  -4  10 -11  670.53  116.59
  10  -6 -11  569.34   87.99
  -6  -4 -11   76.69  108.49
  10  -6 -11  418.96  121.79
   6   4  11  166.38   76.79
   6   4  11  333.77   90.09
  -6  -1 -11 1492.25  169.88
   7  -6 -11 1388.16  177.78
  -6  -1 -11 1718.03  155.28
   7  -6 -11 2036.70  156.88
  -1   7 -11 1422.86  168.78
   6   1  11 1928.61  161.88
  -7   6  11 1633.54  184.58
   6   1  11 1918.21  156.88
  -6   2 -11 1233.18  118.89
   4  -6 -11 1434.96  127.49
  -6   2 -11 1445.76  142.99
   4  -6 -11 1216.68  149.88
   6  -2  11 1085.39  135.59
  -4   6  11 1276.97  150.58
   6  -2  11 1326.47  131.49
   1  -6 -11    2.10   61.79
   1  -6 -11  -73.39   94.69
  -6   5 -11  -17.30   83.19
   5   1 -11  151.68   86.59
   6  -5  11   -6.40   80.49
  -1   6  11   13.20   61.09
  -5  -1  11  103.39   98.69
  -2  -6 -11  530.15  120.79
  -6   8 -11  930.21  124.59
   8  -2 -11  828.82  133.89
  -2  -6 -11  702.13  105.69
  -8   2  11  763.92  138.59
  -6  11 -11 1183.48  153.38
  -5  -6 -11 1152.18  138.49
  11  -5 -11 1057.09  122.59
   5   6  11  987.40  130.79
  -7  -5 -11  328.77  127.59
  -7  -5 -11  345.27  108.09
  -5  12 -11  492.15  111.59
   7   5  11  260.37   85.09
 -12   7  11  266.07  129.49
   7   5  11  249.97  107.39
  -7  -2 -11 1002.00  143.69
  -2   9 -11  908.21  134.89
   9  -7 -11  966.30  156.88
   9  -7 -11 1181.98  115.89
   7   2  11 1217.28  123.19
   7   2  11  864.61  116.99
  -9   7  11 1085.19  155.98
  -7   1 -11 1631.34  177.28
  -7   1 -11 1855.31  155.68
   6  -7 -11 1411.46  180.38
   1   6 -11 1594.64  175.18
   6  -7 -11 1772.62  155.68
   7  -1  11 1951.40  164.38
  -6   7  11 1768.42  190.28
   7  -1  11 1951.90  158.18
   3  -7 -11  254.97  105.79
   4   3 -11  637.04  110.69
  -7   4 -11  621.44  104.79
   3  -7 -11  515.75   84.59
   7  -4  11  166.78  103.39
  -3   7  11  401.66   80.19
  -4  -3  11  405.36  115.49
  -3   7  11  214.98  104.99
   7  -4  11  322.27   88.79
   0  -7 -11  111.79  123.59
  -7   7 -11   66.59   87.29
   0  -7 -11  204.28   75.59
   7   0 -11  111.59   91.09
   0   7  11  249.68   63.99
  -7   0  11  110.49  102.59
  10  -3 -11  524.85  111.89
  -3  -7 -11  264.67  118.49
  -3  -7 -11  304.47   85.09
 -10   3  11  317.47  117.09
   3   7  11  130.69   71.39
  -7  13 -11   86.79  125.09
  -6  -7 -11  147.69  105.79
  -6  -7 -11   16.10  156.48
  13  -6 -11   41.40   77.99
 -13   6  11  -11.20  147.09
   6   7  11   51.09   87.19
  14  -8 -11  280.67  105.29
  -6  14 -11  275.87  132.39
  -8  -6 -11  166.88  152.38
   8   6  11  257.57  139.19
 -14   8  11  237.18  247.48
  -8  -3 -11  398.46  115.29
  -3  11 -11  398.86  106.39
  11  -8 -11  170.78  127.09
 -11   8  11  412.66  121.79
   8   3  11  299.17   82.89
   8   3  11  444.66   94.89
   0   8 -11  471.15  108.89
  -8   0 -11  425.96  104.79
   8  -8 -11  487.95  118.79
  -8   8  11  381.76  117.49
   8   0  11  656.63   97.89
  -8   3 -11 1131.09  147.99
   5  -8 -11 1332.67  130.29
   3   5 -11 1242.58  146.49
  -8   3 -11 1317.47  122.49
   8  -3  11 1476.55  139.49
   8  -3  11 1102.99  151.68
  -5   8  11 1256.47  163.98
  -8   6 -11 1014.60  124.79
   2  -8 -11  646.54  100.39
   6   2 -11  698.63  121.79
   8  -6  11  711.93  111.59
   8  -6  11  333.47  157.58
  -6  -2  11  805.62  135.69
  -1  -8 -11  -52.69   83.59
   9  -1 -11   59.99   95.69
  -1  -8 -11  -49.70  137.29
  -8   9 -11   58.99  100.39
  -1  -8 -11  131.69  223.38
   1   8  11  -56.69   60.19
   1   8  11   64.39  116.29
  -9   1  11  107.19  109.49
  12  -4 -11  185.18   73.99
  12  -4 -11  261.97  120.59
  -4  -8 -11  199.38  156.18
  -4  -8 -11  234.98   96.49
  -8  12 -11  -24.50  117.59
  -4  -8 -11   21.80  151.18
   4   8  11  131.19   75.29
 -12   4  11   43.80  129.59
  15  -7 -11   86.99   86.39
  -7  -8 -11 -158.28  186.98
  -7  -8 -11    2.40  120.59
  -8  15 -11 -193.48  143.19
 -15   7  11  -85.39  153.08
   7   8  11   26.50   92.29
  16  -9 -11  -41.80   83.19
  -7  16 -11 -230.78  212.78
  -9  -7 -11  226.48  189.38
 -16   9  11 -201.88  158.88
   9   7  11  -74.49   95.09
  -9  -4 -11  213.18  134.29
  -4  13 -11  260.67  119.09
   9   4  11  262.87   89.79
 -13   9  11  580.24  164.08
  -1  10 -11  897.81  148.39
  10  -9 -11 1188.68  118.59
  -9  -1 -11  956.90  149.09
 -10   9  11  886.61  165.48
   9   1  11 1192.68  127.69
   9   1  11 1148.79  125.49
  -9   2 -11  896.11  134.29
   7  -9 -11  660.13  152.38
   2   7 -11 1006.10  129.39
   7  -9 -11  927.01  108.09
   9  -2  11 1037.60  134.09
  -7   9  11 1005.40  150.58
   9  -2  11 1087.09  119.89
  -9   5 -11  901.31  131.29
   9  -5  11  758.22  119.69
   1  -9 -11  191.08  195.08
   1  -9 -11  -84.49   76.49
   1  -9 -11   84.79  132.39
  -9   8 -11  192.38   99.49
   8   1 -11   73.89  100.89
  -1   9  11   74.29  111.49
  -8  -1  11   13.00  110.79
   9  -8  11   33.40   88.89
  -1   9  11   51.09   66.89
  -2  -9 -11   83.39  140.49
  -2  -9 -11  103.39   86.39
  -2  -9 -11  192.48  198.48
  -9  11 -11    6.10  112.09
  11  -2 -11  229.08  125.19
   2   9  11  351.76  133.29
   2   9  11   80.29   73.69
 -11   2  11  239.78  126.49
  -9  14 -11 -118.79  144.99
  14  -5 -11  -49.80   82.49
  -5  -9 -11   51.09  142.79
  -5  -9 -11    3.60  169.58
   5   9  11  -81.79   88.59
 -14   5  11  -30.70  205.38
  -9  17 -11  296.07  182.28
  17  -8 -11  114.39   89.89
  -8  -9 -11  496.15  141.49
 -17   8  11   84.09  179.18
   8   9  11   83.19   97.39
 -10  -8 -11  451.25  280.17
  -8  18 -11   34.70  199.68
 -18  10  11  316.47  189.88
  10   8  11  209.58  111.09
  -5  15 -11  281.27  149.49
 -10  -5 -11  -56.79  153.58
  15 -10 -11  242.98   84.19
  10   5  11  298.77   96.49
 -15  10  11  219.58  153.58
  10   5  11  -44.10  145.79
  12 -10 -11  -49.60   74.49
 -10  -2 -11   21.80  114.79
  -2  12 -11   26.60  112.19
 -12  10  11  -46.40  135.59
  10   2  11  -20.60   92.59
  10   2  11  -25.10   81.29
   1   9 -11  883.91  143.09
 -10   1 -11  928.81  145.59
   9 -10 -11 1154.38  126.59
  10  -1  11 1217.68  122.49
  10  -1  11 1342.27  139.29
  -9  10  11  912.01  166.38
   6 -10 -11  598.84   90.79
 -10   4 -11  232.68  100.09
   4   6 -11  368.36   98.69
  -4  -6  11  419.16  126.19
  10  -4  11  347.77  106.09
  10  -4  11  170.38   96.49
  -6  10  11  447.46  120.59
 -10   7 -11  520.25  111.99
   3 -10 -11  -29.60  177.18
   7   3 -11  732.03  126.99
  10  -7  11  239.68  135.09
  -7  -3  11  205.78  119.39
  -3  10  11  556.84  132.39
  -3  10  11  335.27   85.79
  10  -7  11  406.46   95.59
   0 -10 -11  193.68  184.88
  10   0 -11   -9.20  111.29
 -10  10 -11 -122.49  105.39
   0 -10 -11  -81.49   91.19
   0  10  11  150.38  126.89
  10 -10  11  -21.20   88.89
   0  10  11    9.60   69.09
 -10   0  11   34.50  127.39
  -3 -10 -11   17.30  115.39
  -3 -10 -11  275.07  161.38
 -10  13 -11  -71.49  136.89
 -13   3  11  109.09  160.08
   3  10  11   13.80  152.68
   3  10  11  -10.90  114.19
  16  -6 -11  220.58  100.29
  -6 -10 -11  218.38  126.09
 -10  16 -11  -21.50  215.28
  -6 -10 -11   83.49  234.28
 -16   6  11   41.40  177.58
   6  10  11   31.10   91.49
  19  -9 -11  291.27  117.69
 -10  19 -11  128.69  235.28
  -9 -10 -11  227.88  156.98
   9  10  11   74.19  105.29
 -19   9  11  330.07  206.48
  20 -11 -11  143.09  115.29
 -11  -9 -11  268.07  180.48
 -20  11  11  136.99  224.18
  11   9  11  249.97  118.59
 -11  -6 -11  -26.20  192.38
  17 -11 -11   99.39   90.59
  -6  17 -11  181.58  172.58
 -17  11  11  -39.40  167.68
  11   6  11   11.00   91.69
  14 -11 -11  384.76   88.29
 -11  -3 -11   94.69  135.69
  -3  14 -11  118.69  132.89
 -14  11  11  218.18  146.89
  11   3  11  258.47  130.59
  11   3  11  226.68  102.29
 -11   0 -11  132.49  106.89
   0  11 -11  -98.19  108.69
  11 -11 -11  199.28   73.99
 -11  11  11   18.60  139.69
  11   0  11  102.09   87.79
  11   0  11  145.09   80.99
 -11   3 -11  354.66  107.69
   8 -11 -11  585.74   91.29
   3   8 -11  264.57  100.99
  -3  -8  11  368.96  145.99
  -8  11  11  100.99  126.39
  11  -3  11  610.34  106.99
  11  -3  11  466.95   99.19
   6   5 -11  950.50  148.39
   5 -11 -11 1092.89  124.49
 -11   6 -11 1228.68  156.78
  -5  11  11  896.61  162.88
   2 -11 -11  126.79  178.98
 -11   9 -11  151.38  118.19
   2 -11 -11   51.59   83.29
   9   2 -11  397.36  115.89
  -2  11  11  154.08  143.09
  -9  -2  11   63.99  128.19
  11  -9  11   89.89   99.59
  -2  11  11  246.78   83.79
  -1 -11 -11  185.38  148.89
  -1 -11 -11   57.19  104.09
  12  -1 -11  170.38  125.49
 -11  12 -11  139.09  124.09
   1  11  11  -12.10  154.38
  11 -12  11  264.47  119.09
 -12   1  11   87.29  151.48
   1  11  11  260.17   83.39
  15  -4 -11  -18.80   99.79
  -4 -11 -11 -285.07  186.98
 -11  15 -11  228.38  234.28
  -4 -11 -11   45.30  113.99
 -15   4  11 -110.49  185.08
   4  11  11   42.60   84.59
  -7 -11 -11  403.86  148.89
 -11  18 -11  -86.19  196.68
  -7 -11 -11   96.29  285.07
  18  -7 -11  440.56  120.69
   7  11  11  306.47  109.29
 -18   7  11  612.94  222.58
  21 -10 -11  422.06  134.49
 -10 -11 -11  600.14  185.78
  10  11  11  415.56  134.99
 -21  10  11  187.58  287.47
  -7  19 -11 -175.38  235.28
  19 -12 -11    4.70   97.69
 -12  -7 -11  256.77  237.88
 -19  12  11   32.50  187.68
  12   7  11 -168.78  111.69
  16 -12 -11  327.77   92.09
  -4  16 -11  352.06  190.48
 -12  -4 -11  712.63  172.58
  12   4  11  242.68   97.19
 -16  12  11  300.67  166.98
  12   4  11   46.90  153.28
 -12  -1 -11 -205.48  155.48
  13 -12 -11   89.89   75.39
  -1  13 -11   77.29  115.89
 -13  12  11  214.68  152.98
  12   1  11  -17.50  122.99
  12   1  11  -10.30  113.29
  10 -12 -11  101.59   81.29
   2  10 -11  -20.70  105.79
 -12   2 -11 -100.79  105.89
  12  -2  11  -33.10   96.29
  12  -2  11  176.48   85.59
 -10  12  11   21.30  135.89
   7 -12 -11  124.79  221.98
   5   7 -11  332.97  109.89
  12  -5  11  290.17  118.69
  -5  -7  11  364.76  133.89
  -7  12  11  483.05  134.09
  12  -5  11  197.78  105.19
   4 -12 -11  301.67   91.59
   8   4 -11  332.27  119.09
   4 -12 -11  150.88  179.08
 -12   8 -11  231.68  123.09
  -4  12  11  198.88  132.89
  12  -8  11  139.89   97.09
  12  -8  11  144.89  145.69
  -8  -4  11  314.67  147.69
   1 -12 -11  440.36  189.28
 -12  11 -11  238.38  127.69
  11   1 -11 -100.79  129.79
   1 -12 -11  -37.80   99.69
  -1  12  11  188.98   92.99
  12 -11  11   86.09   96.29
  -1  12  11  -57.19  142.99
 -11  -1  11   54.99  156.18
  -2 -12 -11  500.25  130.29
 -12  14 -11 1140.39  246.18
  -2 -12 -11  930.01  223.38
 -14   2  11  147.89  203.58
   2  12  11  561.54   96.49
  -5 -12 -11   83.49  379.46
 -12  17 -11  216.58  196.38
  17  -5 -11   54.39   98.99
  -5 -12 -11  301.77  135.49
 -17   5  11  530.75  218.48
   5  12  11  200.18   96.19
  -8 -12 -11 1340.77  213.58
 -20   8  11  378.86  275.67
   8  12  11 1082.09  160.98
  21 -13 -11  204.28  116.69
 -21  13  11 -198.28  242.98
  13   8  11  -94.79  124.69
  18 -13 -11   83.99   87.99
  -5  18 -11 -144.69  191.28
 -13  -5 -11  498.85  199.88
 -18  13  11   96.29  201.88
  13   5  11  185.18  110.09
  -2  15 -11  622.24  221.08
 -13  -2 -11  677.23  165.58
  15 -13 -11  769.82  127.79
  13   2  11  969.50  132.49
 -13   1 -11  -62.49  146.99
  12 -13 -11   49.10   77.69
   1  12 -11  128.79  115.49
  13  -1  11  207.78  104.69
  13  -1  11  -28.00  101.79
 -12  13  11  -30.80  161.58
 -13   4 -11  316.77  114.39
   4   9 -11  198.38  115.09
   9 -13 -11  113.49   80.09
  13  -4  11   -3.70  104.69
  13  -4  11  410.26  113.39
  -9  13  11  460.95  145.09
   7   6 -11  358.16  117.09
   6 -13 -11 -316.77  177.38
   6 -13 -11   59.69   81.49
 -13   7 -11  196.48  112.89
  -6  13  11   99.09  141.49
  -7  -6  11   86.89  163.48
  13  -7  11   85.89  104.29
  13  -7  11  272.17  133.39
 -13  10 -11 -145.89  146.09
   3 -13 -11   70.89  107.29
   3 -13 -11  149.59  187.68
  -3  13  11  -58.69  148.59
 -10  -3  11  113.29  163.58
 -13  13 -11  547.25  157.88
   0 -13 -11  867.91  218.48
 -13   0  11   60.89  192.88
  13 -13  11  373.26  133.29
 -13  16 -11  376.36  183.98
  -3 -13 -11  142.89  133.59
  -3 -13 -11 -155.98  384.26
  13 -16  11  269.87  152.78
 -16   3  11   55.89  214.48
   3  13  11  183.28   89.09
  -6 -13 -11  466.25  166.18
  -6 -13 -11  738.53  299.77
  19  -6 -11  493.25  121.79
 -13  19 -11  604.74  250.67
   6  13  11  930.81  146.59
 -19   6  11  769.72  268.97
  20 -14 -11  -75.39   97.59
 -14  -6 -11 -256.67  251.17
 -20  14  11 -221.38  224.08
  14   6  11 -165.08  115.09
  17 -14 -11  204.58  103.09
  -3  17 -11  -92.39  176.28
 -14  -3 -11  279.77  183.68
  14   3  11  248.58  107.79
  14   3  11  310.37  172.18
 -17  14  11   87.29  179.88
 -14   0 -11  760.62  159.98
  14 -14 -11  424.66   94.79
   0  14 -11  431.76  151.38
 -14  14  11  316.37  165.18
  14   0  11  799.42  115.99
 -14   3 -11  271.07  130.69
   3  11 -11  447.36  181.08
  11 -14 -11  457.75  101.99
  14  -3  11  226.68  140.59
  14  -3  11  586.14  119.69
 -11  14  11  272.47  206.88
   8 -14 -11    5.40  187.08
   6   8 -11  598.04  167.78
 -14   6 -11   22.40  128.59
   8 -14 -11  244.38  132.69
  -8  14  11  211.08  159.28
  14  -6  11  201.68  164.78
  14  -6  11  337.77  129.49
   9   5 -11   47.50  156.88
   5 -14 -11 -115.29  119.29
   5 -14 -11   21.10  185.28
 -14   9 -11 -100.39  130.49
  14  -9  11 -124.19  109.29
  -5  14  11  -65.69  157.18
  14  -9  11  -85.69  152.38
  -9  -5  11   52.39  189.38
   2 -14 -11  694.23  208.58
   2 -14 -11  277.97  113.69
 -14  12 -11  450.85  153.28
 -12  -2  11  -52.59  203.58
  14 -12  11  226.88  103.79
  -2  14  11  111.49  176.08
  -1 -14 -11  364.36  322.07
  -1 -14 -11  745.83  145.89
 -14  15 -11  605.04  185.28
  14 -15  11  603.64  152.28
 -15   1  11  476.35  239.98
   1  14  11  960.40  130.99
  -4 -14 -11  261.97  150.48
 -14  18 -11  312.07  221.88
  -4 -14 -11  384.16  271.27
   4  14  11   54.39  115.79
 -18   4  11  208.68  252.97
  -7 -14 -11 -161.28  407.56
  -7 -14 -11  461.45  187.48
 -21   7  11  420.76  318.67
   7  14  11  526.65  135.59
  19 -15 -11 -112.89   97.89
 -15  -4 -11 -120.39  215.28
  15   4  11    2.70  117.89
 -19  15  11  141.99  206.18
  16 -15 -11  468.85  106.39
 -15  -1 -11  576.44  177.38
  -1  16 -11  311.57  166.18
  15   1  11  232.68  138.59
  15   1  11  419.46  106.39
 -16  15  11   84.49  182.98
 -15   2 -11  750.42  167.18
  13 -15 -11  986.70  126.19
  15  -2  11  759.52  135.99
  15  -2  11  933.01  152.58
  10 -15 -11  207.88   76.89
   5  10 -11  253.07  128.19
 -15   5 -11  192.48  129.69
  15  -5  11  245.78  115.39
  15  -5  11  241.68  125.59
 -10  15  11  224.58  234.68
   7 -15 -11   28.40   96.69
 -15   8 -11  -76.89  123.69
   8   7 -11   62.89  139.39
   7 -15 -11  167.58  195.98
  15  -8  11  166.78  111.89
  -7  15  11 -247.88  174.08
  15  -8  11  -30.40  143.59
   4 -15 -11 -129.99  204.58
 -15  11 -11  357.26  154.28
  11   4 -11  199.68  135.39
   4 -15 -11  159.08  109.29
  -4  15  11 -107.49  181.38
  15 -11  11  342.97  115.19
   1 -15 -11  -27.80  440.16
 -15  14 -11  474.95  159.98
   1 -15 -11  564.44  129.59
 -14  -1  11    5.30  272.47
  15 -14  11  359.96  129.39
  -2 -15 -11  316.77  155.78
  -2 -15 -11  553.64  258.87
 -15  17 -11  216.68  201.18
 -17   2  11 -481.15  266.57
   2  15  11  524.75  123.19
  15 -17  11  249.58  160.08
  -5 -15 -11  676.13  320.17
 -15  20 -11  113.29  284.47
  -5 -15 -11  149.19  180.98
 -20   5  11 -229.58  310.97
  15 -20  11  228.98  170.88
   5  15  11  402.46  139.09
  18 -16 -11  190.18  115.19
 -16  -2 -11   76.89  199.88
  -2  18 -11  110.39  199.28
 -18  16  11  -73.39  197.48
  16   2  11  238.58  116.39
 -16   1 -11  359.66  168.58
  15 -16 -11  325.67   99.69
   1  15 -11  357.36  149.69
  16  -1  11  256.57   99.49
  16  -1  11  592.34  151.08
 -15  16  11  183.18  195.68
  12 -16 -11  236.98   97.29
 -16   4 -11  107.99  153.38
   4  12 -11  164.18  139.59
  16  -4  11  279.17  121.49
  16  -4  11  156.88  125.09
 -12  16  11   64.19  181.08
 -16   7 -11   -8.60  126.19
   9 -16 -11 -245.28  208.18
   7   9 -11   -8.30  139.59
   9 -16 -11   29.90   89.89
  -9  16  11  364.66  214.08
  16  -7  11  263.57  145.49
  16  -7  11  -98.79  119.49
   6 -16 -11   46.10  101.19
   6 -16 -11  -64.99  210.58
  10   6 -11   64.89  141.19
 -16  10 -11   72.09  136.79
  16 -10  11  -85.49  171.88
  -6  16  11  135.19  201.08
  16 -10  11  117.69  109.99
   3 -16 -11  222.88  322.47
   3 -16 -11  338.07  121.79
 -16  13 -11  412.16  179.08
  16 -13  11  224.08  115.79
 -13  -3  11  127.69  386.36
   0 -16 -11  238.08  146.79
 -16  16 -11  378.66  189.58
   0 -16 -11  168.88  256.27
 -16   0  11  -36.70  279.37
  16 -16  11  377.76  149.88
  -3 -16 -11   57.39  176.18
  -3 -16 -11  364.76  308.67
 -16  19 -11  225.78  256.07
   3  16  11    9.50  140.99
 -19   3  11   48.80  311.37
  16 -19  11   55.49  172.88
 -17  -3 -11  -91.09  237.08
  20 -17 -11  237.18  115.49
  17   3  11  -52.49  123.79
 -20  17  11   79.09  264.57
 -17   0 -11  321.17  195.88
  17 -17 -11  147.99  115.09
   0  17 -11   16.60  197.58
 -17  17  11   55.79  204.08
  17   0  11 -180.78  160.88
  17   0  11  175.48  115.59
  14 -17 -11  348.97  113.39
   3  14 -11  207.08  164.48
 -17   3 -11  482.05  175.28
 -14  17  11  122.09  208.28
  17  -3  11  403.96  122.49
  17  -3  11  232.58  127.79
   6  11 -11  145.99  148.49
  11 -17 -11  -26.90  103.79
 -17   6 -11   32.40  143.89
  11 -17 -11   15.50  267.77
  17  -6  11  195.08  136.29
  17  -6  11  169.08  127.79
 -11  17  11   74.49  200.78
   9   8 -11  279.47  156.58
   8 -17 -11   66.59  112.69
   8 -17 -11   93.59  256.77
 -17   9 -11   61.89  147.19
  17  -9  11  317.77  260.07
  17  -9  11  302.57  131.09
  -8  17  11  152.88  208.18
   5 -17 -11   18.70  230.28
   5 -17 -11  165.68  127.89
 -17  12 -11  324.47  173.08
  17 -12  11  293.37  121.69
  -5  17  11  729.93  292.07
 -17  15 -11  -95.19  190.98
   2 -17 -11 -135.49  242.58
   2 -17 -11   63.89  138.99
  17 -15  11   80.39  119.89
  -1 -17 -11 -458.15  291.87
 -17  18 -11  260.27  219.98
  -1 -17 -11  -43.00  167.78
 -18   1  11  510.85  334.27
  17 -18  11  -44.50  159.18
  19 -18 -11  202.58  127.49
 -18  -1 -11  272.87  228.88
  18   1  11  108.09  126.19
 -19  18  11   31.80  243.88
   2  16 -11 -123.39  182.58
 -18   2 -11   60.59  187.58
  16 -18 -11   -7.50  115.79
  18  -2  11  253.27  169.38
  18  -2  11  125.69  112.69
 -16  18  11   18.20  215.88
 -18   5 -11  280.97  173.98
  13 -18 -11  -55.99  107.19
   5  13 -11 -205.68  155.88
  18  -5  11   54.99  136.99
 -13  18  11   97.79  220.48
  18  -5  11  218.78  132.39
 -18   8 -11   94.49  158.48
  10 -18 -11   33.30  104.49
  10 -18 -11  178.68  231.88
  18  -8  11  200.28  152.28
 -10  18  11  368.46  225.28
  18  -8  11  145.89  134.99
   7 -18 -11  199.58  239.48
   7 -18 -11  303.47  129.39
 -18  11 -11  131.89  166.48
  18 -11  11  104.19  185.68
  -7  18  11  912.11  260.97
  18 -11  11  574.14  137.89
   4 -18 -11 -156.78  250.57
 -18  14 -11  245.38  203.08
   4 -18 -11   77.19  146.19
  18 -14  11  317.07  138.79
   1 -18 -11   77.59  163.48
   1 -18 -11   99.19  284.67
 -18  17 -11   34.00  216.88
  18 -17  11  170.18  130.29
  18 -19 -11   47.90  127.19
 -19   1 -11  202.68  221.18
  19  -1  11 -468.55  299.57
 -18  19  11 -146.39  254.97
  19  -1  11  249.68  129.69
 -19   4 -11   83.09  190.08
  15 -19 -11 -153.78  118.09
  19  -4  11  123.49  134.49
  19  -4  11   94.39  138.49
 -15  19  11   -0.30  233.48
  12 -19 -11  -83.79  126.09
 -19   7 -11 -112.39  163.68
  19  -7  11   51.09  148.39
  19  -7  11   37.40  139.79
 -12  19  11  478.05  240.88
   9 -19 -11  196.48  252.17
   9 -19 -11  203.78  125.59
 -19  10 -11   93.89  167.58
  19 -10  11  359.86  169.68
  -9  19  11  660.23  254.37
  19 -10  11  101.59  144.19
   6 -19 -11  216.08  262.57
 -19  13 -11  633.04  217.78
  19 -13  11  432.46  139.89
 -19  16 -11 -273.87  221.58
   3 -19 -11  -34.80  163.18
  19 -16  11  -55.29  143.69
 -20   3 -11   85.69  212.78
  17 -20 -11   -0.90  131.39
  20  -3  11 -134.29  125.49
 -17  20  11 -195.58  258.87
  20  -3  11  306.67  186.78
  14 -20 -11  170.58  123.59
 -20   6 -11 -141.39  181.88
  20  -6  11   33.40  151.68
  20  -6  11  118.79  142.89
 -14  20  11 -202.88  253.27
  11 -20 -11  550.84  265.57
 -20   9 -11 -126.39  175.98
  11 -20 -11  240.18  138.99
  20  -9  11  151.68  167.28
 -11  20  11  305.37  270.47
  20  -9  11  -84.09  153.98
 -20  12 -11  519.35  199.78
   8 -20 -11  742.73  164.18
   8 -20 -11  185.78  279.97
  20 -12  11   -2.70  202.38
  20 -12  11  278.47  158.48
   5 -20 -11  207.08  288.77
   5 -20 -11  130.29  160.98
 -20  15 -11 -313.37  233.08
  20 -15  11  253.57  145.69
  13 -21 -11   26.20  138.59
 -21   8 -11   -2.00  183.08
 -13  21  11  131.59  287.37
  21  -8  11 -167.28  150.98
  21  -8  11  285.77  166.08
  10 -21 -11  680.63  289.57
  10 -21 -11  622.54  148.69
 -21  11 -11  336.67  215.78
  21 -11  11  103.49  190.18
  21 -11  11  -34.10  170.18
   7 -21 -11  392.76  303.87
   7 -21 -11  289.37  168.38
 -21  14 -11  615.34  240.48
  21 -14  11  184.28  156.48
   0   0  12 2793.72  241.98
   0   0  12 3033.20  237.68
  -2   1  12 1151.68  153.68
   1  -2  12 1509.05  135.29
   1   1  12 1483.85  134.59
   1   1  12 1548.25  143.09
   1  -2 -12  767.12   97.29
  -1  -1  12 1036.30  139.09
  -2   4 -12  168.08   91.09
  -2  -2 -12  124.09   91.79
  -2  -2 -12   68.59   59.49
   4  -2 -12   47.60   90.09
  -4   2  12  211.08  107.29
   2   2  12  -54.19   65.69
   2   2  12   69.89   59.59
   0   3 -12    0.20   80.39
  -3   0 -12  -75.09   85.49
  -3   0 -12   56.29   56.19
   3  -3 -12   22.70   58.89
   3  -3 -12  133.29   89.69
   3   0  12  -28.50   82.69
   3   0  12   49.50   55.69
  -3   3  12 -107.49  115.09
  -3   3  12  -60.39   85.09
  -3   3 -12   41.60   83.99
   0  -3 -12  107.39   59.69
   3   0 -12   74.69   94.29
   0  -3 -12   26.50   96.99
  -3  -3 -12 1709.03  172.18
   6  -3 -12 1693.13  171.68
   6  -3 -12 1591.44  153.78
  -3  -3 -12 1516.25  154.28
  -3   6 -12 1986.20  177.48
   3   3  12 1584.04  160.58
  -6   3  12 1793.52  177.78
   5  -4 -12   26.30   92.99
  -1   5 -12  101.19   87.99
   5  -4 -12  237.98   72.79
  -4  -1 -12   50.69   60.39
  -4  -1 -12   35.60   93.99
  -5   4  12  -60.69  103.49
   4   1  12   47.70   70.19
   2  -4 -12  152.48   93.59
   2   2 -12  162.68   88.39
   2  -4 -12   33.20   57.39
  -4   2 -12  180.58   86.69
  -2   4  12   76.49   73.29
   4  -2  12   79.09   87.19
   4  -2  12  -14.80   59.29
  -4   5 -12  480.35   94.69
  -1  -4 -12  307.77   75.09
   5  -1 -12  628.74  101.99
  -1  -4 -12  502.95  114.69
  -5   1  12  797.52  118.89
  -4   8 -12 1099.19  142.39
   8  -4 -12  887.81  116.89
   8  -4 -12 1119.89  153.18
  -4  -4 -12  949.31  116.99
  -4  -4 -12 1158.98  152.18
   4   4  12  860.01  123.99
  -8   4  12 1201.38  156.98
  -5  -2 -12  577.04  107.09
  -5  -2 -12  387.66   73.39
   7  -5 -12  339.07   71.69
   7  -5 -12  378.36  106.19
   5   2  12  209.18   74.09
   5   2  12  187.48   78.89
   4  -5 -12  287.37   97.59
  -5   1 -12  136.49   55.99
   1   4 -12  153.68   94.79
  -5   1 -12  -26.70   89.09
   4  -5 -12   42.50   58.19
   5  -1  12   69.89   82.89
   5  -1  12  268.67   61.09
  -4   5  12  136.89  101.99
  -5   4 -12  608.74  102.39
   4   1 -12  685.03  111.79
   1  -5 -12  395.96  107.59
   1  -5 -12  405.76   77.79
  -4  -1  12  562.34  124.89
   5  -4  12  552.34   99.19
  -2  -5 -12 1024.10  144.39
   7  -2 -12 1213.58  143.49
  -5   7 -12 1040.60  133.49
  -2  -5 -12  908.51  118.49
  -7   2  12 1237.08  149.88
   2   5  12  793.62  117.59
  -5  10 -12 3798.72  308.47
  -5  -5 -12 3710.13  299.57
  -5  -5 -12 3547.65  314.07
  10  -5 -12 3738.73  314.27
  10  -5 -12 3568.44  292.37
   5   5  12 3135.79  297.07
 -10   5  12 3755.02  319.77
   9  -6 -12 2317.37  214.58
  -3   9 -12 2138.49  203.78
  -6  -3 -12 2011.50  207.98
  -6  -3 -12 2129.89  189.48
   9  -6 -12 1853.81  186.38
   6   3  12 2067.19  194.08
  -9   6  12 2503.35  218.58
   6  -6 -12   40.80  101.89
   0   6 -12  -40.00   92.59
  -6   0 -12   83.79   60.59
  -6   0 -12  143.79   94.99
   6  -6 -12  137.79   69.19
  -6   6  12  -18.80  111.99
   6   0  12  134.49   78.89
   3  -6 -12 1419.96  140.99
  -6   3 -12 1574.64  161.98
   3  -6 -12 1604.34  169.58
   3   3 -12 1752.72  157.28
  -3   6  12 1338.67  154.08
  -3   6  12 1560.04  169.58
  -6   6 -12   -0.20   91.09
   6   0 -12   36.10   87.89
   0  -6 -12  -74.89   65.09
   0  -6 -12   83.69  111.79
  -6   0  12 -153.28  103.59
   0   6  12   18.30   66.49
   6  -6  12   45.90   90.09
   9  -3 -12 1896.31  184.18
  -3  -6 -12 1626.34  159.98
   9  -3 -12 1428.26  157.38
  -3  -6 -12 1907.61  188.08
  -6   9 -12 1582.94  179.08
   3   6  12 1311.17  156.48
  -9   3  12 1939.61  192.08
  -6  -6 -12 2202.38  194.18
  -6  12 -12 1836.62  205.28
  12  -6 -12 1970.30  211.98
  -6  -6 -12 1623.74  216.08
  12  -6 -12 1758.52  173.38
 -12   6  12 1801.02  216.38
   6   6  12 1665.93  183.48
  -7  -4 -12 1675.73  200.88
  11  -7 -12 1851.61  211.38
  -7  -4 -12 1749.72  174.48
  11  -7 -12 1845.72  165.28
   7   4  12 1571.34  171.58
 -11   7  12 1700.43  204.88
  -7  -1 -12  131.29  108.89
   8  -7 -12  150.68  114.89
  -1   8 -12  389.36  107.99
   8  -7 -12  225.68   68.19
  -8   7  12  266.77  124.79
   2   5 -12  441.26   98.89
  -7   2 -12  463.45   78.39
   5  -7 -12  310.37   74.39
  -7   2 -12  593.34  105.19
   5  -7 -12  264.57  112.49
   2  -7 -12 1062.19  148.89
   5   2 -12 1269.27  133.59
  -7   5 -12 1119.19  139.69
   2  -7 -12  988.60  116.59
  -2   7  12  981.00  146.09
  -2   7  12  998.20  124.49
   7  -5  12  893.81  127.49
   8  -1 -12  248.88  110.09
  -1  -7 -12  239.78  131.69
  -7   8 -12  352.36  104.29
  -1  -7 -12  287.97   86.59
  -8   1  12  467.55  123.69
  11  -4 -12 2219.28  220.08
  -4  -7 -12 1810.62  230.68
  11  -4 -12 2060.39  188.58
  -7  11 -12 2100.79  216.58
  -4  -7 -12 2201.68  195.78
   4   7  12 1759.62  189.08
 -11   4  12 2276.97  229.48
  -7  14 -12  833.22  243.08
  -7  -7 -12  426.86  180.08
  14  -7 -12  236.88   90.99
  -7  -7 -12  461.25  117.19
 -14   7  12  535.55  181.68
   7   7  12  297.57   99.99
  -8  -5 -12 1227.98  155.58
  -5  13 -12 1007.30  175.08
 -13   8  12 1113.39  191.48
  -2  10 -12  262.67  114.79
  -8  -2 -12  199.78  120.09
  10  -8 -12  227.88   78.09
  10  -8 -12  301.67  138.49
  -8  -2 -12  334.27   93.19
   8   2  12  475.15   95.39
   8   2  12  144.39   89.49
 -10   8  12  355.46  132.79
   1   7 -12  356.66  104.69
  -8   1 -12  549.85   88.29
   7  -8 -12  362.96  134.29
   7  -8 -12  374.66   78.19
  -8   1 -12  349.07  108.89
  -7   8  12  345.27  130.49
   8  -1  12  179.98   82.99
   4   4 -12 1108.49  143.19
   4  -8 -12  899.31  158.58
   4  -8 -12 1361.76  118.09
  -8   4 -12 1018.80  141.89
   8  -4  12  854.31  129.29
  -4  -4  12 1087.89  160.98
  -4   8  12 1063.69  151.38
   1  -8 -12  275.97  120.69
  -8   7 -12  334.97  106.79
   7   1 -12  453.45  101.99
   1  -8 -12  165.18   78.69
  -7  -1  12  284.17  118.59
  -1   8  12  106.79  113.99
   8  -7  12  450.75   98.89
  -1   8  12  110.39   74.69
  -2  -8 -12 1135.79  148.49
  10  -2 -12 1349.56  172.28
  -2  -8 -12 1320.07  201.18
  -8  10 -12 1352.26  167.48
 -10   2  12 1304.77  183.58
   2   8  12 1108.49  136.99
  -5  -8 -12  808.92  126.69
  -8  13 -12  950.00  170.18
  13  -5 -12  508.95  100.79
  -5  -8 -12  637.84  185.28
  16  -8 -12  -78.39   85.69
  -8  16 -12  -56.29  169.18
  -8  -8 -12  227.18  228.88
  -8  -8 -12   19.70  128.89
 -16   8  12  127.79  176.08
   8   8  12   82.29  102.89
  -9  -6 -12  301.07  123.49
  15  -9 -12    8.20   88.29
  -9  -6 -12  -89.99  179.48
  -6  15 -12  343.17  157.28
   9   6  12  152.78  101.59
 -15   9  12  174.68  157.48
  -3  12 -12  813.32  153.28
  12  -9 -12 1273.07  138.89
  -9  -3 -12 1118.29  176.98
   9   3  12  928.01  144.29
   9  -9 -12   77.99  147.09
   0   9 -12   -1.90  102.59
   9  -9 -12   52.09   71.49
  -9   0 -12   27.00  115.19
   9   0  12   83.79   83.39
  -9   9  12  174.18  127.89
   6  -9 -12 1834.22  225.48
  -9   3 -12 2246.98  201.08
   3   6 -12 2204.28  196.18
  -9   3 -12 1746.43  171.68
   6  -9 -12 1941.01  179.78
  -6   9  12 2282.97  209.98
   9  -3  12 1556.74  194.68
   9  -3  12 1802.52  183.38
  -3  -6  12 2257.27  212.78
   6   3 -12 1731.63  179.68
  -9   6 -12 1835.02  184.18
   3  -9 -12 1523.65  161.68
   3  -9 -12 1579.94  212.48
  -3   9  12 1546.15  165.68
  -6  -3  12 1983.70  195.88
   9  -6  12 1540.25  171.98
  -3   9  12 1909.71  190.18
  -9   9 -12 -166.28  108.29
   0  -9 -12   82.69  157.58
   0  -9 -12 -175.88   84.89
   9   0 -12  105.49  106.19
   0   9  12 -100.49   78.29
   0   9  12  107.39  122.99
   9  -9  12   43.60   97.89
  -9   0  12  -48.30  124.39
  -9  12 -12  512.55  138.19
  12  -3 -12  422.56  143.29
 -12   3  12  261.57  145.69
   3   9  12  525.65  128.99
   3   9  12  415.46  156.68
  15  -6 -12   13.30   91.69
  -6  -9 -12  124.99  117.39
  -9  15 -12  -95.39  164.58
   6   9  12   -5.00   92.39
 -15   6  12   88.59  174.88
  18  -9 -12  411.76  118.69
  -9  18 -12  837.72  222.88
  -9  -9 -12  583.04  151.68
 -18   9  12  706.13  216.68
   9   9  12  509.95  116.99
  17 -10 -12  -86.99   94.19
  -7  17 -12  100.59  186.98
 -10  -7 -12  447.46  141.99
 -10  -7 -12  379.06  220.38
 -17  10  12   67.39  178.58
  10   7  12  132.69  111.39
  -4  14 -12  169.38  180.38
 -10  -4 -12  175.38  194.88
  14 -10 -12  364.36   86.69
  10   4  12  141.09  100.89
 -14  10  12  415.16  163.38
  10   4  12 -133.29  135.89
  11 -10 -12  102.29   82.59
  -1  11 -12  323.37  117.59
 -10  -1 -12  347.77  122.79
  10   1  12  214.38   97.59
  10   1  12  471.35   98.99
 -11  10  12  299.97  183.28
   8 -10 -12  167.38   78.19
   8 -10 -12   58.09  173.28
 -10   2 -12  242.58  113.39
   2   8 -12  346.57  107.59
  10  -2  12  182.58   77.09
  10  -2  12  151.68   92.89
  -8  10  12  206.28  136.39
   5 -10 -12 3315.57  273.97
 -10   5 -12 3607.04  291.87
   5   5 -12 3723.23  287.37
  10  -5  12 2773.72  281.07
  -5  -5  12 3605.44  297.17
  10  -5  12 2912.11  297.57
  -5  10  12 3382.96  298.17
 -10   8 -12 1120.79  151.88
   2 -10 -12 1287.37  136.89
   8   2 -12 1162.58  164.68
  -2  10  12 1169.58  169.28
  10  -8  12 1111.59  141.19
  -2  10  12 1048.10  136.29
  -8  -2  12 1167.68  183.38
  11  -1 -12  506.35  141.89
 -10  11 -12  165.98  128.09
  -1 -10 -12  159.18  151.68
   1  10  12  165.58   86.89
   1  10  12  357.66  144.79
 -11   1  12  408.86  149.39
  10 -11  12  218.78  107.49
 -10  14 -12 -165.08  163.88
  -4 -10 -12   44.30  106.19
   4  10  12  -39.00   81.89
   4  10  12  197.88  180.38
 -14   4  12   34.30  180.38
  -7 -10 -12  599.84  143.79
  17  -7 -12  320.67  116.29
 -10  17 -12  703.13  192.48
   7  10  12  440.06  111.79
 -17   7  12  445.56  207.78
 -10 -10 -12 1093.99  188.58
  20 -10 -12  775.32  151.68
 -20  10  12 1139.49  263.77
  10  10  12  716.03  149.39
 -11  -8 -12  491.75  165.28
  19 -11 -12  324.77  111.89
  -8  19 -12  -52.69  230.18
  11   8  12  111.69  124.69
 -19  11  12  561.64  236.28
  -5  16 -12   36.50  161.68
 -11  -5 -12  106.39  186.28
  16 -11 -12 -106.79   84.99
  11   5  12  -18.90  102.99
 -16  11  12   53.49  161.58
  11   5  12 -176.18  179.18
  13 -11 -12   58.49   77.79
 -11  -2 -12   95.59  214.18
 -13  11  12  317.07  160.28
  11   2  12 -105.99  103.29
  11   2  12  -45.80  170.58
   1  10 -12   91.39  113.29
 -11   1 -12  245.08  118.39
  10 -11 -12  207.38  101.09
  11  -1  12  150.28   93.99
  11  -1  12  386.96   88.79
 -10  11  12  176.18  135.19
   7 -11 -12 1623.44  158.38
   4   7 -12 1629.94  174.88
 -11   4 -12 1671.03  183.68
  11  -4  12 1280.77  164.08
  11  -4  12 1426.86  184.28
  -4  -7  12 1878.31  204.28
  -7  11  12 1599.04  200.18
 -11   7 -12 2236.28  217.78
   7   4 -12 2143.09  217.08
   4 -11 -12 2167.68  195.68
  11  -7  12 2035.20  204.18
  -7  -4  12 2318.47  239.58
  11  -7  12 2494.45  276.87
  -4  11  12 1645.04  224.98
   1 -11 -12  494.45  124.59
  10   1 -12  470.95  139.99
 -11  10 -12  335.57  127.79
  11 -10  12  355.96  113.19
 -10  -1  12  -45.30  152.48
  -1  11  12  149.69   95.09
  -1  11  12  227.78  154.58
  -2 -11 -12  263.57  111.69
 -11  13 -12  328.97  153.28
   2  11  12  101.39  175.28
   2  11  12  136.59   92.49
 -11  16 -12   51.49  185.98
  -5 -11 -12   65.09  121.99
  16  -5 -12  100.19   94.49
   5  11  12  108.89   93.89
 -16   5  12  446.46  204.18
  -8 -11 -12 1440.36  222.28
 -11  19 -12 1187.18  273.87
  19  -8 -12 1176.28  182.48
 -19   8  12 1574.64  287.07
   8  11  12 1184.58  174.68
  -6  18 -12  -98.19  199.58
 -12  -6 -12   17.50  226.38
  18 -12 -12   91.39   98.19
  12   6  12   44.90  110.39
 -18  12  12  112.29  196.78
  -3  15 -12  492.05  151.08
 -12  -3 -12  104.49  164.08
  15 -12 -12   34.60   90.49
 -15  12  12 -105.59  161.38
  12   3  12  101.99  103.29
  12   3  12  182.78  146.49
 -12   0 -12   -5.30  134.49
  12 -12 -12   28.30   83.99
   0  12 -12   26.80  214.38
 -12  12  12  -78.69  162.48
  12   0  12  148.59  116.19
   3   9 -12  932.41  153.08
 -12   3 -12 1326.87  227.88
  12  -3  12  749.53  138.09
  -9  12  12 1047.70  183.58
  -3  -9  12 1075.69  181.28
 -12   6 -12 2114.39  210.58
   6   6 -12 1762.42  194.38
  12  -6  12 1309.37  208.28
  -6  12  12 1425.36  212.58
  -6  -6  12 1692.93  229.28
  12  -6  12 1994.10  199.48
   9   3 -12  255.77  258.07
  12  -9  12  290.47  158.78
  -9  -3  12  441.66  162.38
  -3  12  12  608.14  157.08
   0 -12 -12   -9.80  105.49
   0 -12 -12  256.87  315.57
 -12  12 -12  223.88  139.29
  12   0 -12  -52.79  132.19
   0  12  12  192.58  169.88
  12 -12  12  -57.49  107.99
   0  12  12   76.29   95.09
 -12   0  12  194.18  178.88
  -3 -12 -12  -77.09  128.49
 -12  15 -12  234.18  167.08
   3  12  12  -29.90   86.89
 -15   3  12 -263.67  198.38
  18  -6 -12  599.24  123.19
 -12  18 -12 1263.17  235.48
  -6 -12 -12  733.43  157.78
   6  12  12  572.54  124.99
 -13  -7 -12  488.65  184.08
 -13  -7 -12  639.14  469.25
 -20  13  12  384.96  240.88
  13   7  12  317.87  138.79
 -13  -4 -12   86.09  202.08
  17 -13 -12  111.49  100.39
  -4  17 -12   33.90  177.48
 -17  13  12  121.69  184.78
  13   4  12  282.97  181.48
  13   4  12   57.89  113.39
  14 -13 -12  -56.89   86.79
  -1  14 -12    9.80  135.09
 -13  -1 -12   12.20  148.09
 -14  13  12   87.09  157.78
  13   1  12   76.29  129.19
  13   1  12  -58.29  100.19
  11 -13 -12  106.19   80.59
   2  11 -12   -4.40  126.39
 -13   2 -12  -62.39  127.99
  13  -2  12   76.89  103.29
  13  -2  12   60.69   92.89
 -11  13  12  250.47  165.38
 -13   5 -12 1067.79  169.68
   8 -13 -12 1006.80  132.79
  13  -5  12 1186.28  157.98
  -8  13  12 1118.99  189.68
   8   5 -12  605.54  136.79
 -13   8 -12  966.60  161.18
   5 -13 -12  488.25  108.19
  -5  13  12  548.45  163.18
  13  -8  12  879.51  190.48
  -8  -5  12  655.83  177.08
  13  -8  12  711.73  129.99
   2 -13 -12  642.84  265.27
 -13  11 -12   21.00  139.59
   2 -13 -12  232.38  103.79
  11   2 -12  294.47  140.59
  13 -11  12   -0.80  111.49
 -11  -2  12  230.58  185.98
  -2  13  12  274.47  169.58
 -13  14 -12  -28.70  160.08
  -1 -13 -12  189.48  281.27
  -1 -13 -12 -102.69  129.69
  13 -14  12 -165.58  122.79
 -14   1  12 -112.89  201.88
   1  13  12  122.09  103.79
  -4 -13 -12   11.80  148.89
 -13  17 -12 -162.28  211.18
   4  13  12   38.50   96.79
 -17   4  12  512.55  246.78
  20  -7 -12  382.86  129.09
 -13  20 -12  194.68  288.37
  -7 -13 -12  432.66  175.88
 -20   7  12  550.74  295.37
 -14  -5 -12  214.08  242.98
  19 -14 -12  207.08  109.69
  -5  19 -12 -219.28  332.97
  14   5  12  -32.90  117.19
 -19  14  12  437.86  206.38
  16 -14 -12  -10.00   96.59
 -14  -2 -12  -25.80  177.18
  -2  16 -12  -40.90  167.78
  14   2  12   15.70  150.18
  14   2  12  -75.39  110.59
 -16  14  12 -135.99  173.68
   1  13 -12 -184.08  130.09
 -14   1 -12 -112.59  141.09
  13 -14 -12   30.00   88.99
  14  -1  12  186.68   97.79
 -13  14  12 -215.28  162.28
  14  -1  12   42.70  113.99
  10 -14 -12  150.88   91.29
   4  10 -12  364.76  130.79
 -14   4 -12   46.70  128.09
  14  -4  12  215.78  122.29
  14  -4  12  155.38  104.79
 -10  14  12   64.49  172.18
   7   7 -12  397.66  137.29
 -14   7 -12  100.49  133.59
   7 -14 -12  295.77   99.09
  -7  14  12  299.17  186.08
  14  -7  12  320.17  149.79
  14  -7  12  270.07  113.29
  10   4 -12  -76.59  136.29
   4 -14 -12 -297.47  288.17
   4 -14 -12  184.68  104.09
 -14  10 -12  -40.10  150.18
  -4  14  12   86.09  173.58
  14 -10  12  130.39  110.09
 -10  -4  12  174.58  198.98
   1 -14 -12 -206.78  253.47
 -14  13 -12  -13.70  151.08
   1 -14 -12   68.69  118.49
  14 -13  12 -197.28  112.29
  -1  14  12  -24.50  197.68
 -14  16 -12  213.58  200.78
  -2 -14 -12   69.39  150.58
  -2 -14 -12  639.84  361.96
   2  14  12  -30.20  114.19
 -16   2  12  227.58  241.68
  14 -16  12  410.36  158.08
 -14  19 -12  295.57  261.97
  -5 -14 -12  255.77  172.78
   5  14  12  349.47  134.59
 -19   5  12  447.66  296.87
 -15  -3 -12  146.39  216.38
  18 -15 -12   51.39  109.59
 -18  15  12  -33.60  227.68
  15   3  12  103.09  118.29
 -15   0 -12 -132.09  158.38
  15 -15 -12  -80.99   97.39
   0  15 -12  160.38  161.98
  15   0  12   46.30  104.79
  15   0  12  485.85  147.49
 -15  15  12 -220.68  186.28
  12 -15 -12   15.20   90.79
 -15   3 -12   -8.30  140.49
   3  12 -12    8.60  130.89
  15  -3  12  181.98  107.19
  15  -3  12   56.79  119.99
 -12  15  12 -120.59  174.38
 -15   6 -12  194.28  141.59
   9 -15 -12   45.70   87.69
   6   9 -12  165.38  137.59
  -9  15  12   84.79  179.48
  15  -6  12   38.80  113.49
  15  -6  12  282.67  146.59
   6 -15 -12  -78.19   92.29
   9   6 -12  193.58  138.69
 -15   9 -12  -26.80  151.98
  15  -9  12   92.89  180.18
  15  -9  12   70.79  117.19
   3 -15 -12 -143.99  251.27
   3 -15 -12   75.89  115.49
 -15  12 -12  -56.19  162.68
  15 -12  12  -24.10  115.59
 -12  -3  12 -257.07  241.68
  -3  15  12  189.08  200.88
   0 -15 -12 -213.28  288.67
 -15  15 -12   66.79  186.18
   0 -15 -12  211.28  138.19
 -15   0  12 -398.26  246.88
  15 -15  12  -74.09  125.09
  -3 -15 -12  -33.90  169.18
 -15  18 -12 -109.39  235.98
   3  15  12  224.58  130.39
  15 -18  12    2.90  171.98
 -18   3  12   82.49  298.67
 -16  -1 -12 -121.69  189.68
  17 -16 -12   29.90  109.29
 -17  16  12 -395.36  200.28
  16   1  12 -340.47  171.68
  16   1  12   40.60  122.39
 -16   2 -12 -134.49  153.48
  14 -16 -12   87.29  100.39
   2  14 -12   33.00  149.69
  16  -2  12   71.09  107.99
 -14  16  12  102.59  195.08
  16  -2  12  302.57  134.49
 -16   5 -12   -6.40  144.79
   5  11 -12  -13.90  142.09
  11 -16 -12   41.00  104.09
  16  -5  12  184.08  132.69
 -11  16  12  -52.09  188.18
  16  -5  12   89.89  118.39
 -16   8 -12  -39.00  140.19
   8 -16 -12 -181.18  108.29
   8   8 -12   96.79  147.79
  16  -8  12  -54.69  121.59
  -8  16  12  516.45  195.88
 -16  11 -12  289.47  169.78
   5 -16 -12  207.38  115.29
   5 -16 -12  379.16  263.67
  -5  16  12 -128.89  346.57
  16 -11  12  222.38  122.19
 -16  14 -12  148.19  172.08
   2 -16 -12  -83.89  132.19
   2 -16 -12  430.86  286.37
 -14  -2  12 -188.58  300.37
  16 -14  12  -15.90  134.09
  -1 -16 -12   18.00  160.18
 -16  17 -12  164.08  219.48
  -1 -16 -12 -125.49  370.36
 -17   1  12  550.64  299.97
  16 -17  12   25.40  135.59
   1  16 -12 -107.49  186.78
  16 -17 -12   -7.10  105.49
 -17   1 -12  -38.60  179.88
 -16  17  12  206.78  208.18
  17  -1  12   29.00  122.79
  17  -1  12  162.18  154.48
  13 -17 -12  149.19  101.29
 -17   4 -12  -42.20  153.68
   4  13 -12  118.99  160.48
  17  -4  12  -20.90  119.19
  17  -4  12  120.69  133.09
 -13  17  12  113.69  210.08
  10 -17 -12   -2.20   89.19
   7  10 -12  127.49  149.09
 -17   7 -12   72.79  166.58
  17  -7  12 -162.68  148.59
  17  -7  12  206.48  132.19
 -10  17  12  256.57  210.58
   7 -17 -12  291.57  121.89
 -17  10 -12  340.37  173.38
  17 -10  12  407.76  268.17
  17 -10  12  373.46  136.49
  -7  17  12  604.44  220.78
 -17  13 -12  174.28  194.38
   4 -17 -12  228.68  143.69
   4 -17 -12  492.75  278.07
  17 -13  12   55.59  123.59
   1 -17 -12  161.58  319.37
 -17  16 -12 -169.08  210.18
   1 -17 -12 -201.38  151.48
  17 -16  12  115.69  134.89
  18 -18 -12  -18.50  126.49
 -18   0 -12  -31.30  212.08
 -18  18  12  160.48  232.68
  18   0  12 -160.78  241.88
  18   0  12  151.68  136.59
  15 -18 -12   -0.60  112.79
 -18   3 -12 -256.37  167.48
   3  15 -12 -210.88  175.08
 -15  18  12   52.19  225.98
  18  -3  12  176.48  150.58
  18  -3  12  184.98  123.49
  12 -18 -12  155.38  114.09
 -18   6 -12  135.19  166.48
   6  12 -12  -53.69  164.88
  18  -6  12  253.67  147.29
  18  -6  12    0.30  138.19
 -12  18  12   32.50  233.38
   9 -18 -12  310.27  118.79
 -18   9 -12  291.97  167.78
  -9  18  12  604.14  240.18
  18  -9  12  171.98  140.69
   6 -18 -12  135.89  310.17
   6 -18 -12  444.86  134.59
 -18  12 -12  748.03  209.58
   3 -18 -12  -21.90  153.28
   3 -18 -12  260.87  317.47
 -18  15 -12   23.60  202.88
  18 -15  12  -39.00  139.59
   0 -18 -12 -289.97  420.16
   0 -18 -12 -208.98  182.98
 -18  18 -12  325.77  239.28
  18 -18  12  -99.09  143.59
 -19   5 -12   -6.10  177.88
   5  14 -12 -120.69  190.18
  14 -19 -12   44.10  119.49
 -14  19  12    4.40  257.67
  19  -5  12  244.78  144.69
  19  -5  12  -43.00  138.29
  11 -19 -12  155.38  134.89
 -19   8 -12  146.59  184.48
  19  -8  12  -44.50  167.58
 -11  19  12  619.54  252.37
  19  -8  12  234.48  151.88
   8 -19 -12  740.13  161.68
 -19  11 -12  561.24  214.78
  19 -11  12 1426.66  244.48
  -8  19  12 1273.97  299.07
  19 -11  12  725.93  167.78
   5 -19 -12  -41.30  146.99
   5 -19 -12  -37.90  337.87
 -19  14 -12  447.16  225.88
  19 -14  12  -34.90  140.79
  13 -20 -12  272.87  135.19
 -20   7 -12  249.18  195.98
  20  -7  12  325.97  162.98
 -13  20  12  492.65  264.97
  20  -7  12  -15.90  150.88
  10 -20 -12  491.25  132.69
 -20  10 -12  398.76  196.98
 -10  20  12  251.07  296.47
  20 -10  12  285.07  163.88
 -20  13 -12  520.75  234.08
   7 -20 -12  319.27  166.88
  20 -13  12  535.05  167.48
   0   1 -13   36.00   86.39
   1  -1 -13  -42.60   89.49
  -1   0 -13    9.00   95.89
   1   0  13   40.00   59.99
  -1   1  13  -42.20   94.79
   1   0  13   69.19   79.59
   0  -1  13   -4.30   61.69
   3  -2 -13   24.80   96.59
   3  -2 -13  196.48   74.29
  -2  -1 -13   17.70   58.29
  -1   3 -13   30.70   90.49
  -2  -1 -13  -60.79   98.39
   2   1  13   -1.10   81.89
   2   1  13 -134.39   59.99
  -3   2  13 -241.88  120.99
   1  -3  13   27.20   68.69
  -2   2 -13  -65.19   96.39
   2   0 -13   14.00   90.19
   0  -2 -13   -1.70   93.99
   0  -2 -13   39.90   58.89
  -2   0  13  -26.80  118.39
   0   2  13   38.40   79.29
   2  -2  13  -37.20   66.39
  -3  -2 -13  243.38   69.99
   5  -3 -13  219.28   74.59
  -3  -2 -13  297.97  114.19
  -2   5 -13  381.56  103.19
   3   2  13  137.99   80.89
  -5   3  13  340.57  112.89
   2  -3 -13   84.19   95.29
  -3   1 -13  -25.10   90.29
   1   2 -13  154.28   92.39
   2  -3 -13  -38.10   57.69
  -2   3  13  -79.49   84.29
   3  -1  13   42.60   97.69
   3  -1  13  -52.39   63.89
  -1  -3 -13  169.68  108.89
  -3   4 -13  132.19   96.39
   4  -1 -13  287.27   97.19
  -1  -3 -13  216.08   66.59
  -4   1  13  277.17  111.09
   3  -4  13   91.99   67.29
   1   3  13   64.49   70.99
   7  -4 -13 1709.43  181.68
  -3   7 -13 1563.24  172.88
   7  -4 -13 1443.06  152.88
  -4  -3 -13 1649.23  153.88
  -4  -3 -13 1615.84  177.48
  -7   4  13 1576.34  193.08
   4   3  13 1686.73  163.98
   4  -4 -13   -3.20   70.19
   0   4 -13   29.90   98.49
   4  -4 -13  120.39   95.49
  -4   0 -13  -22.00   61.49
  -4   0 -13  -38.60   95.29
   4   0  13   42.50   68.99
  -4   4  13    2.80  107.59
   4   0  13  128.69   92.99
   1  -4 -13   51.09   97.39
   3   1 -13  293.07   98.59
   1  -4 -13  116.49   62.59
  -4   3 -13  178.08   94.09
   4  -3  13   72.69   62.89
  -1   4  13    0.20   75.39
  -2  -4 -13  122.49  116.89
  -2  -4 -13  124.09   72.59
   6  -2 -13  355.76  104.29
  -4   6 -13  180.58  102.59
  -6   2  13  306.87  114.39
   2   4  13   88.29   80.09
  -5  -4 -13 3515.85  291.77
  -4   9 -13 3359.26  306.37
  -5  -4 -13 3436.66  311.17
   9  -5 -13 3406.66  289.47
   9  -5 -13 3874.91  311.37
   5   4  13 3395.36  298.67
  -9   5  13 3861.61  316.47
  -1   6 -13  756.22  123.89
  -5  -1 -13  560.64   87.69
  -5  -1 -13  658.83  124.79
   6  -5 -13  624.84   91.99
   6  -5 -13  792.82  123.19
   5   1  13  734.03  120.59
  -6   5  13  845.02  137.79
   3  -5 -13  253.17   71.69
   3  -5 -13  326.97  110.59
   2   3 -13  391.96  100.09
  -5   2 -13  407.76  101.69
   5  -2  13  271.37   99.09
  -3   5  13  154.48   91.19
   5  -2  13   75.29   63.79
  -3   5  13  149.88  110.89
  -5   5 -13  -24.40   88.19
   5   0 -13 -104.29   98.29
   0  -5 -13  -16.90   66.99
   0  -5 -13 -219.68  106.49
   0   5  13  -88.99   73.49
  -5   0  13   71.09  109.79
   5  -5  13  -47.30   79.89
   8  -3 -13 2618.24  232.98
  -3  -5 -13 2339.17  233.38
  -5   8 -13 2443.26  230.38
  -3  -5 -13 2481.85  210.98
   3   5  13 2097.49  210.98
  -8   3  13 2312.87  241.48
  11  -6 -13 2880.61  286.77
  11  -6 -13 2908.11  250.57
  -5  11 -13 3395.76  280.27
  -6  -5 -13 2792.12  283.77
   6   5  13 2802.22  259.47
   8  -6 -13 1218.18  166.58
  -6  -2 -13 1081.59  152.38
  -6  -2 -13 1041.90  122.79
   8  -6 -13  907.71  120.09
  -2   8 -13 1062.89  154.38
   6   2  13  864.51  130.49
  -8   6  13 1268.57  171.58
   6   2  13 1096.59  137.79
   1   5 -13  715.33  124.89
   5  -6 -13  631.64  120.69
   5  -6 -13  499.55   81.59
  -6   1 -13  511.25   89.39
  -5   6  13  779.02  125.69
   6  -1  13  454.95  108.29
   2  -6 -13  251.37  111.59
  -6   4 -13  260.27  101.69
   4   2 -13  304.27   94.99
   2  -6 -13  140.49   68.89
  -2   6  13   15.00  113.09
  -4  -2  13  368.96  123.49
  -2   6  13   -7.20   83.09
   6  -4  13  114.09   72.69
  -1  -6 -13  695.33  145.69
   7  -1 -13  587.04  118.59
  -1  -6 -13  429.26   87.69
  -6   7 -13  411.76  107.59
  -7   1  13  675.43  131.59
   1   6  13  267.27   84.59
  -4  -6 -13 3607.74  294.87
  10  -4 -13 3514.85  313.47
  -6  10 -13 3501.85  310.57
  -4  -6 -13 3462.25  313.77
   4   6  13 3369.76  292.87
 -10   4  13 3556.84  322.47
  -7  -6 -13 1519.75  164.48
  -6  13 -13 1268.57  191.28
  13  -7 -13 1295.77  154.38
  -7  -6 -13 1471.65  219.48
   7   6  13 1051.79  160.48
 -13   7  13 1258.57  211.58
  -7  -3 -13 1644.94  192.28
  10  -7 -13 1448.36  207.08
  -7  -3 -13 1666.83  166.78
  -3  10 -13 1607.94  189.98
  10  -7 -13 1568.14  157.88
 -10   7  13 1956.70  212.58
   7   3  13 1536.35  174.58
   7  -7 -13  -89.19  121.59
   0   7 -13  -61.29  104.29
  -7   0 -13  100.09  106.19
  -7   0 -13   -1.70   67.69
   7  -7 -13   22.20   73.09
   7   0  13  -23.40   95.19
   7   0  13  -21.30   69.09
  -7   7  13  -51.79  131.09
   3   4 -13 1351.16  154.18
   4  -7 -13 1352.46  136.29
  -7   3 -13 1389.86  157.08
   4  -7 -13 1288.17  171.98
  -4   7  13 1249.57  163.48
   7  -3  13 1189.88  132.79
   7  -3  13 1445.16  173.28
   1  -7 -13  445.86   85.09
   6   1 -13  516.25  111.29
  -7   6 -13  428.36  113.79
   1  -7 -13  339.57  127.69
  -1   7  13  310.27  123.69
  -6  -1  13  432.36  121.79
  -1   7  13  185.58   85.79
   7  -6  13  362.96  103.09
  -2  -7 -13 1015.50  137.79
  -7   9 -13 1018.40  150.68
  -2  -7 -13 1252.47  175.08
   9  -2 -13  812.02  157.58
   2   7  13  811.82  127.09
  -9   2  13 1384.36  169.78
  12  -5 -13 2018.00  193.88
  -5  -7 -13 2114.79  199.88
  -5  -7 -13 2106.79  252.97
  12  -5 -13 1832.62  310.87
  -7  12 -13 1894.41  254.47
 -12   5  13 2169.88  242.08
  -8  -7 -13  218.88  120.09
  -7  15 -13  170.58  168.18
  -8  -7 -13  -66.19  256.07
  15  -8 -13  154.28   95.09
   8   7  13  280.67  112.29
 -15   8  13  -17.90  172.28
  -8  -4 -13 1625.94  213.98
  -4  12 -13 1351.06  238.38
  12  -8 -13 1304.07  167.78
  -8  -4 -13 1655.53  169.68
   8   4  13 1667.43  197.98
 -12   8  13 1540.15  208.68
   9  -8 -13  505.75   89.99
   9  -8 -13  455.05  145.19
  -8  -1 -13  277.77   86.89
  -1   9 -13  268.97  123.39
  -8  -1 -13  451.65  135.49
   8   1  13  158.68  102.79
  -9   8  13  639.94  144.39
   8   1  13  166.28   85.19
  -8   2 -13 1350.66  155.58
   6  -8 -13 1053.59  121.19
   2   6 -13 1186.18  144.79
  -8   2 -13  946.21  118.19
   6  -8 -13 1079.89  173.18
   8  -2  13  943.11  124.79
   8  -2  13 1064.09  154.08
  -6   8  13 1235.68  172.68
  -8   5 -13 2216.38  219.18
   3  -8 -13 2223.98  201.78
   3  -8 -13 2134.59  236.28
   5   3 -13 2289.87  216.28
   8  -5  13 2448.85  211.38
  -5  -3  13 2455.25  230.78
  -3   8  13 2341.67  212.68
  -3   8  13 2319.37  227.18
   0  -8 -13  -27.20  140.19
   8   0 -13   37.80  117.49
  -8   8 -13  -77.19  107.39
   0  -8 -13 -109.49   81.69
   8  -8  13  -69.79  106.29
  -8   0  13  -13.40  129.79
   0   8  13  -15.50  123.89
   0   8  13   47.90   79.29
  -8  11 -13 1597.24  277.07
  -3  -8 -13 2505.45  263.37
  11  -3 -13 1917.51  281.07
  -3  -8 -13 2391.36  211.08
 -11   3  13 2126.79  275.57
  14  -6 -13  452.45  103.19
  -6  -8 -13  659.93  119.59
  -8  14 -13  303.37  161.68
  -6  -8 -13  470.55  208.28
 -14   6  13  369.16  186.78
   6   8  13  327.77  107.79
  -8  17 -13  492.65  210.78
  17  -9 -13  448.76  113.09
  -9  -8 -13  652.53  148.29
 -17   9  13  118.99  201.68
   9   8  13  502.95  124.19
  14  -9 -13  511.75   98.79
  -5  14 -13  279.47  164.08
  -9  -5 -13  428.36  127.59
  -9  -5 -13  505.05  252.77
 -14   9  13  646.54  185.98
   9   5  13  473.85  117.39
  11  -9 -13  347.07  107.29
  -9  -2 -13  373.86  118.59
  11  -9 -13  285.37  170.18
  -9  -2 -13  390.76  149.99
   9   2  13  365.96  111.89
 -11   9  13  561.84  149.79
   1   8 -13  419.36  110.79
  -9   1 -13  224.28  129.29
  -9   1 -13  297.77   84.79
   8  -9 -13  397.86   91.99
   8  -9 -13  407.26  151.68
   9  -1  13  200.58  104.59
  -8   9  13  453.15  143.79
   4   5 -13 3487.75  288.97
   5  -9 -13 3380.86  278.97
   5  -9 -13 3615.54  315.77
  -9   4 -13 3520.55  293.47
   9  -4  13 2898.91  298.67
   9  -4  13 3313.67  282.77
  -5   9  13 3538.25  309.77
  -4  -5  13 3160.98  306.27
   2  -9 -13 1128.19  185.28
   2  -9 -13  969.90  125.09
  -9   7 -13  806.42  142.39
   7   2 -13 1039.80  147.99
  -2   9  13  732.53  129.79
  -2   9  13  962.50  157.38
   9  -7  13 1112.19  141.49
  -9  10 -13  127.79  197.68
  -1  -9 -13   53.79  140.99
   1   9  13  429.26  148.39
   1   9  13  212.28  103.79
   9 -10  13  281.67  121.29
 -10   1  13  359.06  151.58
  -9  13 -13  694.93  175.68
  -4  -9 -13 1075.19  139.29
   4   9  13  754.82  188.48
   4   9  13  796.12  133.19
 -13   4  13  933.71  196.08
  16  -7 -13  119.49  102.19
  -7  -9 -13  133.79  122.19
  -9  16 -13 -241.88  174.88
   7   9  13  146.79  111.29
 -16   7  13   -1.50  198.78
 -10  -9 -13 1290.87  214.88
  -9  19 -13  810.92  272.17
  19 -10 -13 1361.66  161.08
  10   9  13 1127.29  183.58
 -19  10  13  846.82  257.07
 -10  -6 -13  105.49  223.58
  -6  16 -13 -140.89  178.48
 -10  -6 -13   58.19  137.49
  16 -10 -13   94.09   97.69
 -16  10  13   16.00  178.08
  10   6  13   32.20  116.09
  13 -10 -13  659.73  102.39
  -3  13 -13  423.66  143.29
 -10  -3 -13  735.03  125.79
 -10  -3 -13  779.82  172.98
  10   3  13  511.25  119.59
  10   3  13  323.97  140.69
 -13  10  13  569.04  178.18
 -10   0 -13   49.20  165.98
  10 -10 -13   -3.10   82.29
  10 -10 -13   63.19  180.58
  10   0  13  -56.69  104.59
 -10  10  13  216.98  144.09
  10   0  13  184.68  101.09
 -10   3 -13 1543.65  155.58
   7 -10 -13 1813.02  162.18
   3   7 -13 1606.34  175.68
 -10   3 -13 1738.93  198.68
  10  -3  13 1500.85  185.68
  -3  -7  13 1666.63  210.38
  -7  10  13 1354.16  198.28
 -10   6 -13 3324.17  292.07
   6   4 -13 3205.38  290.87
   4 -10 -13 3491.45  277.07
  -6  -4  13 3411.16  311.77
  -4  10  13 3136.09  307.47
   9   1 -13  219.58  209.78
   1 -10 -13   64.59  169.48
  -1  10  13  167.18  116.39
  -9  -1  13  412.26  157.28
  10  -9  13  310.97  176.08
  -1  10  13  108.09  145.29
  12  -2 -13  666.53  155.58
 -10  12 -13  601.64  148.69
  -2 -10 -13  730.13  128.49
 -12   2  13  715.03  182.38
   2  10  13  446.16  173.08
   2  10  13  622.44  109.99
 -10  15 -13 -108.79  176.48
  -5 -10 -13   95.19  116.59
 -15   5  13 -175.08  188.08
   5  10  13  495.45  255.37
   5  10  13   73.49   99.29
 -10  18 -13 1014.60  245.98
  -8 -10 -13  953.60  167.48
  18  -8 -13  856.61  154.88
   8  10  13  768.82  146.49
 -18   8  13  698.23  246.88
 -11  -7 -13 1232.98  331.07
 -11  -7 -13 1019.40  180.48
  -7  18 -13  862.51  231.88
  18 -11 -13 1160.98  146.79
 -18  11  13  820.62  235.38
  11   7  13  987.50  159.58
 -11  -4 -13  287.17  184.48
 -11  -4 -13  -44.60  125.59
  15 -11 -13  -27.50   93.09
  -4  15 -13 -244.28  151.48
  11   4  13  128.09  110.49
 -15  11  13 -130.99  164.78
  11   4  13 -161.18  150.48
 -11  -1 -13 -164.58  152.78
  -1  12 -13   57.19  133.69
  12 -11 -13   42.60   80.59
 -11  -1 -13    7.50  112.29
  11   1  13   51.69  114.39
  11   1  13   -4.60  113.59
 -12  11  13   19.10  156.38
   2   9 -13  602.04  140.39
 -11   2 -13  501.85  103.99
   9 -11 -13  448.86  102.59
 -11   2 -13  528.25  162.88
  -2  -9  13  458.45  173.28
  11  -2  13  289.77  113.19
  -9  11  13  336.47  176.18
 -11   5 -13 1703.43  271.17
   5   6 -13 1756.62  297.97
  11  -5  13 2482.35  246.88
  -5  -6  13 2519.95  251.37
  -6  11  13 2663.23  244.18
   3 -11 -13 2611.24  214.08
 -11   8 -13 2147.49  227.38
   8   3 -13 2191.48  228.58
  11  -8  13 2309.37  224.48
  -8  -3  13 2048.20  252.57
  -3  11  13 1831.82  243.98
  11   0 -13  217.08  133.99
 -11  11 -13  153.08  135.79
   0 -11 -13  -22.40   97.99
 -11   0  13  174.88  197.88
  11 -11  13  -80.69  112.89
   0  11  13  160.48  100.29
   0  11  13 -244.18  167.08
  -3 -11 -13  192.38  120.89
 -11  14 -13 -134.39  164.28
 -14   3  13   35.60  196.68
   3  11  13  214.88  103.19
   3  11  13  298.27  202.78
  -6 -11 -13  337.87  141.09
 -11  17 -13  487.35  206.08
   6  11  13  225.98  114.79
 -17   6  13  370.06  228.38
  17 -12 -13  272.27  109.99
 -12  -5 -13  465.35  150.08
 -12  -5 -13  770.62  224.28
  -5  17 -13  250.77  194.38
  12   5  13  583.24  126.79
 -17  12  13  199.78  190.88
 -12  -2 -13   40.60  167.68
  14 -12 -13  265.87   96.59
  -2  14 -13  143.39  143.79
 -14  12  13  -22.80  158.68
  12   2  13   69.99  138.89
  12   2  13  144.49  115.69
  11 -12 -13  -60.79   80.39
 -12   1 -13   41.50  145.99
   1  11 -13  227.38  118.49
  12  -1  13  161.18   98.59
  12  -1  13  -87.29  201.78
  -1 -11  13   -9.40  197.28
 -11  12  13   38.20  157.48
   8 -12 -13 1605.84  157.88
 -12   4 -13 1675.33  161.98
   4   8 -13 1535.45  184.98
  -8  12  13 1570.84  241.58
  12  -4  13 1484.35  165.48
  -4  -8  13 1479.35  226.98
  12  -4  13 1517.95  192.08
   7   5 -13 2099.59  213.98
   5 -12 -13 2057.09  186.48
 -12   7 -13 2004.40  215.88
  -7  -5  13 1745.33  249.48
  12  -7  13 2098.59  198.78
  -5  12  13 1514.55  229.18
   2 -12 -13  913.21  124.89
  10   2 -13  754.62  152.68
 -12  10 -13  859.31  155.88
  -2  12  13  414.66  180.28
 -10  -2  13  632.34  190.68
  12 -10  13  681.13  133.79
 -12  13 -13  -45.90  144.89
  -1 -12 -13    6.50  117.49
   1  12  13  238.18  204.58
   1  12  13 -140.29  103.79
 -13   1  13  169.48  208.08
  12 -13  13   44.70  132.99
  -4 -12 -13   11.50  136.19
 -12  16 -13 -133.69  197.68
 -16   4  13   26.20  226.38
   4  12  13   74.79  100.69
  -7 -12 -13 1258.47  189.88
 -12  19 -13  856.71  278.47
   7  12  13  882.11  161.38
 -19   7  13  897.11  294.57
 -13  -6 -13 1000.50  184.18
  -6  19 -13  668.73  262.47
 -13  -6 -13  667.23  280.77
  19 -13 -13  752.52  130.79
 -19  13  13  403.76  257.07
  13   6  13  754.22  153.08
 -13  -3 -13 -314.47  200.18
  -3  16 -13  218.28  171.38
  16 -13 -13  102.59  100.79
  13   3  13  -79.19  152.28
  13   3  13 -142.29  121.59
 -16  13  13  106.69  181.08
 -13   0 -13 -142.79  152.28
  13 -13 -13  -27.80   86.49
   0  13 -13  -52.49  132.69
  13   0  13  247.88  116.39
  13   0  13   82.99  121.79
 -13  13  13   65.99  172.98
  10 -13 -13  720.53  113.99
 -13   3 -13  495.05  152.28
   3  10 -13  356.66  128.19
 -10  13  13  552.94  176.88
   7 -13 -13 1352.96  155.08
   6   7 -13 1159.38  176.28
 -13   6 -13 1249.97  186.28
  13  -6  13 1049.00  157.08
  -6  -7  13 1655.13  227.08
  -7  13  13 1302.37  206.98
 -13   9 -13  686.83  167.08
   9   4 -13  681.03  147.89
   4 -13 -13 1053.79  132.09
  -4  13  13  513.35  231.08
  13  -9  13  808.42  138.49
  -9  -4  13  691.03  205.78
  12   1 -13   40.30  147.09
 -13  12 -13 -205.38  142.19
   1 -13 -13 -154.48  108.99
  13 -12  13   81.89  117.49
  -1  13  13   -4.30  116.69
 -12  -1  13  359.16  213.98
  -1  13  13 -137.99  185.48
  -2 -13 -13   92.69  135.19
 -13  15 -13 -323.17  186.58
  13 -15  13   10.40  135.89
   2  13  13   23.40  115.79
 -15   2  13  231.88  231.28
 -13  18 -13  610.74  248.48
  -5 -13 -13  390.96  168.78
   5  13  13  416.76  129.99
 -18   5  13  328.57  265.87
  18 -14 -13  118.19  107.49
 -14  -4 -13   65.49  162.88
 -14  -4 -13  103.59  240.48
  14   4  13  -34.80  121.99
 -18  14  13  177.98  210.38
 -14  -1 -13  -31.70  179.38
  15 -14 -13  -32.80  100.99
  -1  15 -13 -160.68  160.28
  14   1  13    1.90  145.79
  14   1  13 -166.28  119.79
 -15  14  13 -184.48  178.48
  12 -14 -13  150.08   89.39
   2  12 -13  -68.79  135.09
 -14   2 -13   -2.20  148.39
 -12  14  13  -59.69  173.98
  14  -2  13  -51.89  107.29
  14  -2  13   96.69  116.39
   9 -14 -13  378.96   86.39
 -14   5 -13  628.54  160.18
   5   9 -13  395.16  132.09
  14  -5  13  198.28  115.79
  -9  14  13  541.85  175.88
  14  -5  13  748.43  178.58
 -14   8 -13  660.53  164.18
   8   6 -13  380.86  141.19
   6 -14 -13  462.45  110.79
  14  -8  13  270.97  122.49
  -6  14  13  410.06  174.28
 -14  11 -13  283.47  148.49
  11   3 -13  218.98  149.69
   3 -14 -13  123.69  112.29
  14 -11  13  216.28  123.29
   0 -14 -13   85.19  132.19
 -14  14 -13  -41.70  170.18
  14 -14  13  -24.20  137.79
   0  14  13  -15.60  127.49
 -14   0  13   92.99  235.58
 -14  17 -13 -330.37  228.78
  -3 -14 -13  140.49  169.28
 -17   3  13 -139.89  260.27
   3  14  13  117.59  131.49
  -2  17 -13   49.50  210.28
 -15  -2 -13  -83.89  214.08
  17 -15 -13   63.99  115.09
 -17  15  13  194.38  210.08
  15   2  13   78.49  129.39
  15   2  13  -12.20  181.38
 -15   1 -13  -37.50  168.98
   1  14 -13  -42.10  152.18
  14 -15 -13  141.59  101.49
  15  -1  13   37.80  144.29
  15  -1  13   31.80  113.09
 -14  15  13  -27.80  186.08
  11 -15 -13   22.00   98.89
 -15   4 -13   86.39  155.08
   4  11 -13  -67.79  135.39
  15  -4  13 -125.99  122.09
 -11  15  13  -66.49  183.78
  15  -4  13  -16.70   99.59
   7   8 -13  174.88  134.59
 -15   7 -13  -18.50  156.48
   8 -15 -13  276.87   97.09
  -8  15  13  228.18  178.18
  15  -7  13  453.95  273.07
  15  -7  13  -59.39  119.59
   5 -15 -13  -26.70  106.29
 -15  10 -13  104.49  162.48
  10   5 -13 -164.58  140.29
  15 -10  13  -27.90  124.49
 -10  -5  13  173.98  324.37
  -5  15  13  -10.30  187.38
   2 -15 -13   49.60  124.59
 -15  13 -13  -63.19  160.68
  15 -13  13  -50.89  122.89
 -13  -2  13 -108.89  239.88
  -2  15  13   49.10  305.07
  -1 -15 -13   97.29  151.28
 -15  16 -13  269.77  221.48
 -16   1  13 -152.48  270.47
  15 -16  13   -9.00  153.78
 -16   0 -13   18.90  195.28
  16 -16 -13    8.30  117.59
 -16  16  13 -207.48  208.18
  16   0  13  -53.49  131.19
  16   0  13   45.30  158.48
   3  13 -13    4.00  147.49
  13 -16 -13   67.39   99.89
 -16   3 -13  291.57  163.28
  16  -3  13  -95.99  128.69
  16  -3  13  -46.50  120.09
 -13  16  13 -153.68  197.28
   6  10 -13  -79.29  154.48
 -16   6 -13  -11.80  167.38
  10 -16 -13  184.48  110.79
  16  -6  13  194.58  144.49
 -10  16  13  453.85  196.68
  16  -6  13  119.19  123.19
   9   7 -13   51.49  150.08
   7 -16 -13  161.68  117.59
 -16   9 -13  425.66  180.18
  16  -9  13  123.59  129.99
  -7  16  13  -11.90  199.78
   4 -16 -13  159.58  136.49
 -16  12 -13 -151.98  176.88
  16 -12  13  254.37  134.29
  -4  16  13 -152.88  224.38
 -16  15 -13 -140.59  200.08
   1 -16 -13 -225.28  144.99
 -15  -1  13 -112.39  294.47
  16 -15  13  -47.80  140.89
 -16  18 -13 -147.99  250.67
  -2 -16 -13  230.88  177.18
 -18   2  13  176.18  329.67
  16 -18  13 -143.69  149.79
   2  15 -13 -143.89  185.38
 -17   2 -13  400.36  191.78
  15 -17 -13  139.79  120.99
  17  -2  13  318.17  166.68
  17  -2  13 -131.29  128.49
 -15  17  13  -49.90  220.98
  12 -17 -13  289.67  116.99
   5  12 -13  222.28  171.58
 -17   5 -13  296.87  170.28
  17  -5  13   87.69  119.19
  17  -5  13  475.45  152.28
 -12  17  13  203.28  226.68
   8   9 -13  419.16  163.28
 -17   8 -13  447.86  188.18
   9 -17 -13  269.67  110.89
  17  -8  13  224.18  141.19
  -9  17  13  437.46  219.28
  17  -8  13  407.46  171.18
 -17  11 -13  185.98  189.48
   6 -17 -13  286.87  135.09
  17 -11  13  205.48  141.09
  -6  17  13  372.26  239.78
 -17  14 -13  -67.49  199.28
   3 -17 -13 -159.58  156.08
  17 -14  13   67.59  135.59
 -17  17 -13 -187.78  236.78
   0 -17 -13 -251.87  175.88
  17 -17  13  -39.20  157.38
  14 -18 -13   64.19  124.29
   4  14 -13  -16.80  182.68
 -18   4 -13  342.17  188.68
  18  -4  13  126.09  131.29
  18  -4  13  131.79  154.48
 -14  18  13  -41.30  234.48
 -18   7 -13  599.14  197.58
   7  11 -13  822.12  185.98
  11 -18 -13 1000.70  152.48
  18  -7  13 1070.79  173.88
 -11  18  13  264.07  254.27
  18  -7  13  582.24  156.18
   8 -18 -13  640.84  140.19
 -18  10 -13  518.75  215.08
  -8  18  13  135.59  253.97
  18 -10  13  268.37  152.08
 -18  13 -13   64.99  212.98
   5 -18 -13  456.05  144.09
  18 -13  13  354.46  152.58
 -18  16 -13  294.17  234.58
  18 -16  13  110.29  144.29
  13 -19 -13  493.35  135.49
 -19   6 -13  565.24  201.08
   6  13 -13  -53.29  194.28
  19  -6  13  466.45  168.18
  19  -6  13  268.07  148.99
 -13  19  13  442.66  254.77
 -19   9 -13 1060.29  238.78
  10 -19 -13 1268.37  205.38
  19  -9  13 1436.16  221.78
 -10  19  13 1293.17  294.07
 -19  12 -13  667.13  235.98
   7 -19 -13  854.51  178.38
  19 -12  13  699.63  170.68
   1   0 -14  -51.69   98.69
   0  -1 -14    9.50  100.79
  -1   1 -14   13.50   98.69
   1  -1  14   19.50   69.79
   0   1  14   77.79   97.49
   2  -2 -14  125.49  106.89
   0   2 -14  -30.90   98.09
  -2   0 -14   -9.40  108.19
   2   0  14   54.29   68.39
   2   0  14   -3.70   99.19
  -2   2  14  -20.20  109.99
   3  -1 -14  -36.60  103.89
  -1  -2 -14   66.29   65.99
  -2   3 -14   10.60  103.29
  -1  -2 -14 -222.08  105.59
   1   2  14    8.50   83.19
   2  -3  14   69.59   77.09
   4  -3 -14   52.79   98.99
  -3  -1 -14  192.28  110.89
  -3  -1 -14  -27.40   67.19
   4  -3 -14  104.19   76.09
  -1   4 -14   -6.80  100.49
  -4   3  14  121.49  122.09
   3   1  14  177.18   94.59
   3   1  14   34.00   67.79
   2   1 -14    4.20  107.69
   1  -3 -14   25.50   68.59
  -3   2 -14   -2.40  106.49
   1  -3 -14   34.00  105.59
   3  -2  14   25.00   75.99
  -1   3  14   41.40   95.99
   5  -2 -14  738.83  131.59
  -3   5 -14  636.64  123.09
  -2  -3 -14  444.06  138.39
  -2  -3 -14  569.44   89.89
  -5   2  14  527.85  132.69
   2   3  14  900.61  107.79
   3  -5  14  616.84  105.99
   6  -4 -14  621.64  111.39
  -4  -2 -14  796.12  111.09
   6  -4 -14  919.21  136.19
  -2   6 -14  920.61  131.29
  -4  -2 -14  862.91  146.29
   4   2  14  594.44  112.99
  -6   4  14  678.13  143.69
   4   2  14 1100.89  119.79
   1   3 -14  199.78  103.19
   3  -4 -14   85.09  110.19
   3  -4 -14    5.30   71.69
  -4   1 -14  131.49  105.79
   4  -1  14  -71.29   72.59
  -3   4  14  -59.29  116.39
   4  -1  14   68.59  108.99
   0  -4 -14  -92.99  114.79
   0  -4 -14  -43.90   70.69
  -4   4 -14  -17.40  105.89
   4   0 -14  -59.39   97.89
  -4   0  14  -11.40  124.09
   0   4  14 -126.29   83.99
   4  -4  14  -54.49   72.19
  -3  -4 -14 1048.10  183.08
  -3  -4 -14 1400.96  141.39
   7  -3 -14 1300.67  175.38
  -4   7 -14 1182.28  167.08
   3   4  14 1359.56  155.08
  -7   3  14 1322.27  186.98
  -5  -3 -14 1116.59  139.29
  -5  -3 -14 1273.97  172.48
   8  -5 -14 1216.88  181.88
  -3   8 -14 1424.16  177.58
   8  -5 -14 1182.98  140.19
  -8   5  14 1335.67  193.78
   5   3  14 1147.39  144.59
   5   3  14 1220.48  154.58
  -5   0 -14 -118.79  107.39
   5  -5 -14   -6.30  110.99
   0   5 -14  -37.50  105.39
   5  -5 -14 -130.39   74.69
  -5   0 -14   10.80   71.29
   5   0  14   78.29  105.29
  -5   5  14  -21.90  117.69
   5   0  14    9.90   76.39
  -5   3 -14  725.93  124.29
   3   2 -14  727.33  124.19
   2  -5 -14  744.73   94.89
   2  -5 -14  598.24  133.79
   5  -3  14  547.45  104.99
  -2   5  14  928.31  115.89
  -2   5  14  629.44  143.99
  -1  -5 -14  231.98   79.49
  -1  -5 -14  322.07  132.39
  -5   6 -14  283.47  115.99
   6  -1 -14  367.96  108.09
   1   5  14  286.17   92.19
   5  -6  14  252.17   85.39
  -6   1  14  124.09  121.49
   9  -4 -14 2157.58  224.18
  -5   9 -14 1790.72  259.27
  -4  -5 -14 2257.97  230.68
  10  -6 -14 2794.72  301.97
  -6  -4 -14 3140.29  301.87
  -6  -4 -14 3389.76  274.27
  10  -6 -14 3264.17  270.27
  -4  10 -14 3160.98  296.87
 -10   6  14 2788.42  305.17
   6   4  14 3788.12  283.77
   7  -6 -14  226.08  125.99
   7  -6 -14  299.17   87.79
  -6  -1 -14  127.39   79.49
  -6  -1 -14  250.37  126.39
  -1   7 -14  355.36  118.29
  -7   6  14  192.48  138.79
   6   1  14   94.89   89.59
   6   1  14  487.65  106.59
  -6   2 -14 1151.68  139.89
   2   4 -14  864.31  137.19
   4  -6 -14  857.71  140.59
   4  -6 -14  770.12  112.59
   6  -2  14  631.04  112.39
  -4   6  14  947.01  153.58
   5   1 -14  299.07  101.59
  -6   5 -14  344.27  105.89
   1  -6 -14  268.77  129.19
   1  -6 -14  322.17   82.89
  -1   6  14  344.67   97.99
  -5  -1  14  298.77  127.89
   6  -5  14  182.38   77.19
  -2  -6 -14 1265.17  148.49
  -6   8 -14 1616.54  231.18
   8  -2 -14 1437.66  184.38
  -2  -6 -14 1349.86  191.38
   2   6  14 1287.57  152.78
  -8   2  14 1250.37  198.98
  -6  11 -14 2776.02  266.47
  -5  -6 -14 2718.53  244.78
  -5  -6 -14 2337.17  278.77
  11  -5 -14 2644.44  310.07
 -11   5  14 2782.82  281.77
   5   6  14 2906.01  248.98
  12  -7 -14 1815.92  243.78
  12  -7 -14 1657.23  175.08
  -5  12 -14 1587.34  209.68
  -7  -5 -14 1206.68  231.68
  -7  -5 -14 1683.53  177.08
 -12   7  14 1544.75  223.18
   7   5  14 2043.60  189.08
  -2   9 -14 1113.29  177.98
   9  -7 -14 1001.80  118.59
  -7  -2 -14  778.22  161.98
   9  -7 -14  803.02  163.08
  -7  -2 -14  714.03  133.39
   7   2  14 1083.69  136.29
   7   2  14  946.11  149.69
  -9   7  14 1023.10  182.58
  -7   1 -14  243.98  120.19
   1   6 -14  274.17  111.49
   6  -7 -14  281.07  131.29
  -7   1 -14  351.46   78.29
   6  -7 -14  218.88   84.69
   7  -1  14  392.36  115.09
   7  -1  14   94.79   90.99
  -6   7  14  141.09  141.19
   4   3 -14 1197.88  157.48
   3  -7 -14 1122.79  184.08
  -7   4 -14 1101.29  161.58
   3  -7 -14 1382.16  138.29
  -3   7  14  896.01  170.38
   7  -4  14 1394.06  135.39
  -4  -3  14 1216.38  180.88
   0  -7 -14 -246.88  135.49
   0  -7 -14  127.39   86.09
   7   0 -14  102.99  106.29
  -7   7 -14  300.07  142.59
  -7   0  14  -85.79  136.09
   0   7  14    3.20   92.29
   0   7  14  -50.39  141.89
   7  -7  14 -154.18  112.79
  10  -3 -14 2252.07  263.17
  -3  -7 -14 1872.21  253.97
  -7  10 -14 1970.90  221.38
  -3  -7 -14 2011.60  203.38
 -10   3  14 2019.70  249.88
  -7  13 -14  942.31  173.78
  13  -6 -14 1010.80  140.89
  -6  -7 -14  757.72  211.28
  -6  -7 -14  993.40  151.18
   6   7  14  967.80  152.98
 -13   6  14  816.72  194.28
  -8  -6 -14  771.92  135.89
  -6  14 -14  998.30  186.28
  14  -8 -14  987.80  127.29
   8   6  14  884.51  140.49
 -14   8  14  560.94  203.58
  -8  -3 -14  778.12  137.29
  11  -8 -14  951.10  136.19
  -3  11 -14 1376.36  174.08
  11  -8 -14  802.12  192.18
 -11   8  14 1056.19  176.08
   8   3  14 1400.26  187.88
   8   3  14  989.80  147.89
   8  -8 -14  -71.19  135.69
  -8   0 -14  -44.00   76.89
   8  -8 -14   -0.40   90.99
  -8   0 -14  -95.59  126.99
   0   8 -14  206.38  141.29
   8   0  14   55.29  109.99
  -8   8  14   33.90  163.58
   8   0  14   -4.40   80.89
  -8   3 -14 1270.87  163.38
   3   5 -14 1140.39  174.38
   5  -8 -14 1173.18  133.39
   5  -8 -14 1101.09  187.48
  -3  -5  14 1334.27  183.88
   8  -3  14 1158.28  190.88
  -5   8  14 1079.59  183.48
  -8   6 -14  961.90  186.88
   6   2 -14  926.61  179.18
   2  -8 -14 1399.16  142.69
   2  -8 -14 1187.08  205.98
  -2   8  14 1247.38  154.98
  -6  -2  14 1261.27  185.08
  -2   8  14 1290.47  174.18
   9  -1 -14  631.44  147.99
  -1  -8 -14  847.72  177.98
  -1  -8 -14  858.01  118.49
  -8   9 -14  780.42  139.59
  -9   1  14  445.96  232.58
   1   8  14  500.25  160.78
   1   8  14 1042.30  188.68
  12  -4 -14  923.91  182.88
  -8  12 -14 1364.86  184.48
  -4  -8 -14 1512.05  157.38
  -4  -8 -14 1504.35  240.28
 -12   4  14  826.62  187.68
   4   8  14 1186.38  156.68
  -8  15 -14   36.20  181.78
  15  -7 -14  104.99  102.29
  -7  -8 -14   20.60  161.68
   7   8  14  158.38  114.79
 -15   7  14  141.99  186.58
  16  -9 -14   68.19  100.99
  -7  16 -14  172.38  201.98
  -9  -7 -14  251.87  128.59
  -9  -7 -14    4.60  251.47
   9   7  14  268.77  123.79
 -16   9  14 -199.08  188.48
  -4  13 -14  476.15  163.98
  -9  -4 -14  254.37  178.68
  13  -9 -14  640.54  107.39
  -9  -4 -14  432.46  120.49
 -13   9  14  479.65  177.18
   9   4  14  873.71  128.79
   9   4  14  636.34  153.48
  -9  -1 -14   90.09   91.89
  -1  10 -14  212.18  120.89
  10  -9 -14  157.18   84.09
  -9  -1 -14  160.18  175.48
  10  -9 -14  112.99  175.28
 -10   9  14  275.47  143.09
   9   1  14   65.79   99.89
   9   1  14   91.19  119.49
  -9   2 -14  741.33  118.59
   7  -9 -14  816.52  181.18
   2   7 -14 1082.29  152.38
  -7   9  14 1222.48  211.68
   9  -2  14  663.63  119.69
   9  -2  14 1008.50  147.99
   4  -9 -14 2000.70  262.97
  -5  -4  14 2269.07  243.28
  -4   9  14 2509.45  239.58
   9  -5  14 2263.77  210.28
  -9   8 -14  639.24  137.29
   8   1 -14  687.63  145.09
   1  -9 -14  926.91  114.89
   9  -8  14  782.22  135.39
  -8  -1  14  467.25  174.78
  -1   9  14  607.84  160.08
  -2  -9 -14  718.53  121.89
  11  -2 -14  362.06  157.08
  -9  11 -14  613.74  151.68
   2   9  14  770.32  118.29
 -11   2  14  494.45  175.98
  -5  -9 -14  437.86  128.79
  -9  14 -14  197.08  174.48
   5   9  14  113.99  204.38
 -14   5  14  244.58  207.28
  -9  17 -14  378.66  221.88
  17  -8 -14  365.46  136.59
  -8  -9 -14  276.77  143.79
 -17   8  14   99.19  220.28
   8   9  14  763.52  140.99
  -8  18 -14 1275.87  261.97
 -10  -8 -14 1587.14  215.68
  18 -10 -14 1232.28  179.58
  10   8  14 1230.28  197.08
  15 -10 -14   81.59  103.39
 -10  -5 -14  -40.40  200.28
  -5  15 -14   68.39  168.98
 -10  -5 -14  -77.09  119.49
  10   5  14 -181.28  119.79
 -15  10  14   21.50  185.08
  -2  12 -14   86.79  135.69
 -10  -2 -14  233.38  166.68
  12 -10 -14  250.47   88.09
 -10  -2 -14   74.99  106.19
 -12  10  14  198.68  156.38
  10   2  14 -114.79  114.19
  10   2  14  102.89  124.49
   1   9 -14  130.79  121.99
 -10   1 -14  145.89  146.89
   9 -10 -14  178.38   83.49
   9 -10 -14  105.59  196.08
 -10   1 -14  280.47   99.39
  -9  10  14    1.50  141.19
  10  -1  14   28.90   83.49
  10  -1  14   -0.10  121.79
   4   6 -14 2810.22  264.27
   6 -10 -14 3198.38  249.88
 -10   4 -14 2693.63  268.47
  10  -4  14 2858.51  248.18
  10  -4  14 3312.37  283.97
  -4  -6  14 2679.53  284.37
   7   3 -14 1803.82  205.68
 -10   7 -14 1577.14  202.68
   3 -10 -14 1929.91  182.68
  10  -7  14 2040.60  191.78
  -7  -3  14 1912.41  241.78
   0 -10 -14  -38.10   96.79
  10   0 -14  -36.70  129.69
 -10  10 -14   38.70  131.69
  10 -10  14  -32.60  125.49
   0  10  14   64.19  103.39
 -10   0  14  -66.49  171.68
   0  10  14  -67.99  181.08
  -3 -10 -14  627.24  140.59
 -10  13 -14  295.87  177.88
 -13   3  14  185.58  190.58
   3  10  14  553.04  119.29
   3  10  14  913.71  244.48
  -6 -10 -14   45.60  141.29
 -10  16 -14   80.39  191.28
 -16   6  14   36.20  217.58
   6  10  14 -183.18  116.49
  -6  17 -14  709.83  210.38
 -11  -6 -14  455.35  149.99
 -11  -6 -14  709.23  248.08
  17 -11 -14  660.83  126.39
  11   6  14  644.34  148.59
 -17  11  14  118.49  203.98
 -11  -3 -14   79.99  117.09
 -11  -3 -14 -186.78  194.38
  14 -11 -14   42.60   96.09
  -3  14 -14  183.08  155.48
  11   3  14  189.18  116.49
 -14  11  14  112.39  181.98
  11   3  14  106.29  142.29
  11 -11 -14  126.49   86.09
 -11   0 -14 -130.59   96.69
   0  11 -14   86.49  126.99
 -11   0 -14 -224.28  156.28
 -11  11  14  164.98  146.39
  11   0  14 -162.18  123.99
  11   0  14    0.70  103.59
   3   8 -14  952.60  146.99
 -11   3 -14 1054.39  166.68
 -11   3 -14  944.91  170.88
   8 -11 -14  960.50  136.39
  -8  11  14  939.51  173.58
  11  -3  14  898.51  128.99
  11  -3  14 1244.08  154.78
  -3  -8  14  744.73  181.28
 -11   6 -14 2330.47  242.38
   6   5 -14 2203.28  240.48
   5 -11 -14 2772.72  227.48
  -5  11  14 2695.93  271.87
  11  -6  14 2796.62  234.38
  -6  -5  14 2159.68  273.77
   9   2 -14  333.57  147.29
   2 -11 -14  770.12  114.49
 -11   9 -14  507.45  148.29
  -2  11  14 1118.39  313.27
  11  -9  14  592.14  133.39
 -11  12 -14  151.18  137.29
  12  -1 -14  232.08  154.38
  -1 -11 -14  164.88  112.39
 -12   1  14   73.19  172.28
   1  11  14  670.13  269.07
 -11  15 -14 -267.57  193.18
  -4 -11 -14   21.80  136.49
   4  11  14   24.00  116.99
 -15   4  14   63.79  214.08
 -11  18 -14  388.36  250.77
  -7 -11 -14  391.36  169.98
 -18   7  14  274.57  246.38
   7  11  14  542.85  143.69
  -4  16 -14  124.49  181.18
 -12  -4 -14  268.77  233.98
 -12  -4 -14 -242.68  132.79
  12   4  14 -226.08  183.38
  12   4  14  452.95  127.79
 -16  12  14  293.87  188.58
 -12  -1 -14  107.29  116.19
  -1  13 -14  206.68  138.59
 -12  -1 -14   40.40  181.18
  13 -12 -14  103.69   91.99
  12   1  14   32.30  136.79
  12   1  14   99.09  125.99
 -13  12  14   72.09  187.78
  10 -12 -14  330.57   90.59
 -12   2 -14  -90.69  154.18
   2  10 -14  115.39  119.69
 -12   2 -14  142.19   98.39
  -2 -10  14    4.30  186.88
 -10  12  14   49.80  152.68
  12  -2  14  442.96  136.59
  12  -2  14  156.58   95.59
 -12   5 -14 1481.85  195.18
   5   7 -14 1320.37  183.78
   7 -12 -14 1702.23  161.48
  -7  12  14 1262.77  211.68
  12  -5  14 1692.23  163.78
  -5  -7  14 1071.09  208.48
  12  -5  14 1929.51  214.08
   8   4 -14 1023.40  171.68
 -12   8 -14 1127.99  171.88
   4 -12 -14 1049.70  141.69
  12  -8  14 1288.67  153.88
  -4  12  14  839.32  194.68
 -12  11 -14  240.68  148.59
  11   1 -14  435.76  144.39
   1 -12 -14  246.38  112.69
 -11  -1  14  -98.19  191.18
  -1  12  14  541.45  130.59
  12 -11  14  196.68  134.19
  -1  12  14  243.08  187.48
 -12  14 -14  202.68  187.98
  -2 -12 -14  336.07  135.59
   2  12  14   76.89  238.78
   2  12  14  243.88  126.99
  12 -14  14  385.86  142.49
 -14   2  14 -138.99  219.78
  -5 -12 -14   -9.90  159.38
 -12  17 -14  271.27  228.68
 -17   5  14  375.86  253.67
   5  12  14   74.09  122.89
 -13  -5 -14  806.02  290.17
 -13  -5 -14  209.88  155.68
  18 -13 -14  606.64  124.99
  -5  18 -14  122.09  232.78
  13   5  14  525.25  151.38
 -18  13  14  179.58  225.08
  -2  15 -14 -108.09  163.88
 -13  -2 -14  -10.80  134.69
  15 -13 -14  114.09  108.19
 -13  -2 -14  414.36  204.78
  13   2  14    9.20  130.79
  13   2  14  -62.09  152.88
 -15  13  14  -91.69  182.98
 -13   1 -14  213.38  174.18
 -13   1 -14   33.80  113.99
  12 -13 -14  -11.00   92.49
   1  12 -14   83.79  134.29
  13  -1  14  -11.80  114.29
 -12  13  14  -10.70  185.18
  13  -1  14  125.39  129.69
 -13   4 -14  487.25  164.78
   4   9 -14  327.07  130.79
 -13   4 -14  313.57   98.89
  -4  -9  14  121.59  197.18
  -9  13  14  224.58  164.58
  13  -4  14  334.67  202.98
  13  -4  14  134.29   95.09
   6 -13 -14  963.70  146.79
 -13   7 -14 1061.39  180.88
   7   6 -14  836.62  147.89
  -6  13  14  590.94  175.48
  13  -7  14 1019.50  143.19
  -7  -6  14  635.74  207.58
   3 -13 -14  498.55  120.19
 -13  10 -14  135.69  140.09
  10   3 -14  371.46  149.39
  -3  13  14  368.96  182.38
  13 -10  14  478.15  136.79
 -10  -3  14  160.28  203.08
   0 -13 -14  -21.60  121.59
 -13  13 -14 -108.49  175.68
   0  13  14 -235.48  205.48
   0  13  14   64.89  133.59
 -13   0  14   99.89  224.58
  13 -13  14 -154.38  136.99
  -3 -13 -14   68.59  150.28
 -13  16 -14   59.99  229.68
   3  13  14   48.70  133.79
 -16   3  14  -22.50  260.67
  -3  17 -14 -358.96  210.08
  17 -14 -14  -81.89  111.99
 -14  -3 -14  203.98  149.69
 -14  -3 -14  298.77  233.18
 -17  14  14  272.57  205.78
  14   3  14 -166.88  204.78
  14   3  14  100.79  131.99
 -14   0 -14  178.48  194.28
 -14   0 -14  100.39  129.79
   0  14 -14 -113.89  163.48
  14 -14 -14   41.60  100.69
  14   0  14  236.98  133.19
 -14  14  14 -107.59  183.28
  14   0  14 -233.58  143.99
 -14   3 -14  380.16  178.58
  11 -14 -14   22.50   92.69
   3  11 -14   -1.90  137.69
 -14   3 -14  158.18  116.49
  14  -3  14   22.50  107.09
  14  -3  14   47.00  117.79
 -11  14  14   44.00  187.88
   6   8 -14  530.45  139.29
 -14   6 -14  272.67  168.68
   8 -14 -14  780.92  108.69
  -8  14  14  176.08  173.68
  14  -6  14  429.96  120.19
  14  -6  14  829.72  208.18
   5 -14 -14  464.45  119.39
 -14   9 -14  245.98  149.09
  -9  -5  14  799.02  260.07
  14  -9  14  352.46  131.89
  -5  14  14  294.47  180.28
   2 -14 -14  230.08  123.49
 -14  12 -14    6.70  168.18
  12   2 -14   38.00  127.79
  14 -12  14  203.18  142.39
  -2  14  14 -185.88  193.08
 -12  -2  14  330.07  237.68
 -14  15 -14   21.50  202.48
  -1 -14 -14   -9.00  143.29
   1  14  14  -98.59  142.29
 -15   1  14 -197.18  250.17
  14 -15  14  182.98  146.69
  -1  16 -14 -181.48  201.98
 -15  -1 -14   68.89  147.69
  16 -15 -14 -133.39  115.09
 -15  -1 -14  478.85  224.48
  15   1  14  119.99  142.79
  15   1  14 -275.27  171.98
 -16  15  14 -127.69  203.48
   2  13 -14    0.70  159.28
  13 -15 -14   63.19  105.59
 -15   2 -14   70.79  191.18
 -15   2 -14   65.49  137.99
  15  -2  14  -62.09  137.49
 -13  15  14  -72.19  191.58
  15  -2  14  160.98  138.19
   5  10 -14  -46.30  140.69
 -15   5 -14  123.89  114.19
  10 -15 -14   81.59  116.59
 -15   5 -14  405.66  177.18
 -10  15  14   10.60  195.18
  15  -5  14   -8.10  130.99
  15  -5  14 -220.38  102.09
   8   7 -14  -22.40  134.89
 -15   8 -14   79.09  166.38
   7 -15 -14  -40.60  110.59
  -7  15  14  -77.79  182.08
  15  -8  14  183.28  131.89
  11   4 -14 -284.77  169.68
   4 -15 -14  -88.99  116.59
 -15  11 -14 -151.98  162.48
 -11  -4  14 -308.47  274.57
  15 -11  14  198.58  137.69
  -4  15  14   31.90  201.38
 -15  14 -14 -203.78  185.18
   1 -15 -14  -41.80  137.39
  15 -14  14  349.57  148.99
 -15  17 -14  100.89  251.27
  -2 -15 -14  -57.09  172.88
 -17   2  14 -142.19  289.47
  15 -17  14  139.49  164.58
   1  15 -14   71.99  173.48
 -16   1 -14 -106.69  148.59
 -16   1 -14  235.58  218.08
  15 -16 -14  218.18  114.49
 -15  16  14   65.69  217.88
  16  -1  14  -85.49  157.68
  16  -1  14  -79.59  144.49
 -16   4 -14  453.75  201.38
 -16   4 -14  313.77  136.59
   4  12 -14 -125.49  159.18
  12 -16 -14  229.68  111.99
 -12  16  14  -93.29  202.98
  16  -4  14   11.50  142.09
  16  -4  14  -86.39  123.89
 -16   7 -14  107.69  184.08
   7   9 -14  267.67  156.58
   9 -16 -14  244.48   99.79
  16  -7  14   81.39  128.99
  -9  16  14   70.49  213.78
  16  -7  14  254.07  175.18
  10   6 -14  -13.00  153.78
   6 -16 -14  -67.79  125.99
 -16  10 -14 -381.36  178.38
  16 -10  14  -75.89  134.29
  -6  16  14  166.68  211.08
 -16  13 -14  152.68  185.88
   3 -16 -14  170.88  145.49
  16 -13  14   85.29  149.79
 -16  16 -14  655.13  235.88
   0 -16 -14 -104.59  161.28
 -16   0  14 -272.27  317.97
  16 -16  14   91.69  155.18
   3  14 -14 -257.27  179.48
 -17   3 -14  378.46  216.78
  14 -17 -14  200.28  121.49
  17  -3  14  -29.40  144.29
  17  -3  14  173.58  162.58
 -14  17  14   10.70  228.58
 -17   6 -14  724.83  157.48
 -17   6 -14 1090.59  213.28
  11 -17 -14  720.33  141.79
 -11  17  14  220.08  229.68
  17  -6  14  712.33  164.78
   9   8 -14  216.98  162.48
 -17   9 -14  450.65  200.58
   8 -17 -14  455.25  129.49
  -8  17  14  -83.79  231.88
  17  -9  14  218.48  147.59
   5 -17 -14 -131.19  141.89
 -17  12 -14 -328.67  180.58
  17 -12  14   -0.90  149.29
  -5  17  14   16.90  275.67
   2 -17 -14 -305.07  162.68
 -17  15 -14  -88.79  211.48
  17 -15  14   12.00  152.88
 -18   5 -14  569.94  220.98
   5  13 -14  -48.50  183.08
  13 -18 -14  299.17  131.19
  18  -5  14  398.56  152.48
  18  -5  14  307.97  162.98
 -13  18  14   45.20  254.97
 -18   8 -14 1025.00  225.08
   8  10 -14  256.57  184.78
  10 -18 -14 1155.58  186.08
 -10  18  14  691.73  261.57
  18  -8  14  591.44  150.28
   7 -18 -14  434.66  154.28
 -18  11 -14  -56.99  215.88
  18 -11  14   59.09  150.88
  -7  18  14 -304.67  266.77
   0   0 -15 1090.79  155.58
  -1  -1 -15  351.16  122.59
  -1   2 -15   96.09  109.29
   2  -1 -15  178.68  123.19
   1  -2  15   36.70  100.89
   1   1  15  155.38  112.79
   1   1 -15  349.47  118.49
   1  -2 -15  269.47  122.79
  -2   1 -15  290.37  120.09
  -1   2  15  142.09  119.09
   4  -2 -15   46.10  110.09
  -2  -2 -15  246.28   77.79
  -2  -2 -15  433.76  134.19
  -2   4 -15  279.77  115.39
   2   2  15  374.46  105.29
  -4   2  15  154.88  133.79
   2  -4  15  198.58   92.79
   0   3 -15  186.48  113.79
  -3   0 -15  106.29  129.79
   3  -3 -15  163.48  118.79
   3   0  15   -2.90  117.69
   3   0  15    0.40  156.08
  -3   3  15  -29.80  125.19
   0  -3 -15 -159.68  117.89
   0  -3 -15   -4.40   74.09
  -3   3 -15  129.39  107.79
   3   0 -15  107.89  102.49
  -3   0  15 -175.08  137.09
   3  -3  15  -37.60   95.19
   0   3  15  191.08  111.89
  -3  -3 -15  693.53  113.19
   6  -3 -15  369.66  133.89
  -3   6 -15  746.53  168.88
  -3  -3 -15  442.76  155.38
   3   3  15 1016.10  122.69
  -1   5 -15  102.09  178.18
  -4  -1 -15   33.80  125.19
  -4  -1 -15   26.90   75.19
   5  -4 -15   88.89  125.79
   4   1  15  385.56  113.39
  -5   4  15   34.60  151.68
   4   1  15  -20.80   83.69
   2  -4 -15  184.38   77.29
   2  -4 -15   51.99  125.79
  -4   2 -15  285.77  119.49
   2   2 -15  117.19  114.69
  -2   4  15   34.40  134.29
  -2   4  15  482.45  119.69
  -1  -4 -15   25.50  138.39
   5  -1 -15   97.69  117.79
  -1  -4 -15  145.69   80.59
  -4   5 -15  230.38  173.38
   1   4  15  390.66  102.79
  -5   1  15  -87.89  137.89
   4  -5  15  449.86  175.68
  -4  -4 -15 1108.89  192.48
  -4   8 -15 1114.99  165.38
  -8   4  15 1172.58  194.28
  -2   7 -15  522.65  138.79
  -5  -2 -15  344.97  148.29
   7  -5 -15  304.67  139.29
  -5  -2 -15  855.81  113.99
   7  -5 -15  577.14   97.79
   5   2  15  743.03  118.19
  -7   5  15  586.44  162.78
   4  -5 -15  307.27   86.39
   4  -5 -15  125.39  123.39
  -5   1 -15  238.18  121.39
  -4   5  15   57.29  151.58
   5  -1  15  260.67  125.19
   5  -1  15   43.10   89.99
   4   1 -15   58.79  138.99
   1  -5 -15  -19.70  132.09
  -5   4 -15   11.40  171.18
   1  -5 -15  179.08   81.79
  -4  -1  15   66.49  139.49
  -1   5  15  297.57  107.39
   5  -4  15  -86.79   83.69
  -1   5  15  -39.90  150.98
  -5   7 -15  660.53  132.19
  -2  -5 -15  433.26  159.18
  -7   2  15  444.86  198.38
   5  -7  15  521.15  117.99
  -5  -5 -15 1693.93  170.68
  -5  10 -15 1592.14  190.68
  10  -5 -15 1094.39  206.78
 -10   5  15 1245.28  215.78
  -6  -3 -15  541.55  103.49
  -3   9 -15  678.03  138.29
  -6  -3 -15  563.54  193.98
   9  -6 -15   64.09  177.68
  -9   6  15  175.98  149.88
   6   3  15  554.24  200.28
  -6   0 -15  107.49  137.09
   6  -6 -15   60.09   81.29
   0   6 -15   40.80  117.89
   6  -6 -15  -91.49  130.79
  -6   0 -15   82.79   82.69
   6   0  15  156.48  121.29
   6   0  15  -33.60   84.99
  -6   6  15 -211.68  151.38
   3  -6 -15  666.63  106.09
   3  -6 -15  529.95  143.29
  -6   3 -15  697.23  175.58
   3   3 -15  590.84  148.79
  -3   6  15   42.80  163.78
   6  -3  15  390.96   84.99
  -3  -3  15  361.46  158.88
   6   0 -15  -40.20  153.18
   0  -6 -15  -17.00  144.09
  -6   6 -15  -19.40  124.39
  -6   0  15  -43.20  183.28
   6  -6  15   79.99   91.19
   0   6  15  102.19  203.48
   0   6  15  -20.80  102.19
   9  -3 -15  552.54  144.29
  -3  -6 -15  216.88  183.28
  -9   3  15  499.75  158.78
  -6  12 -15 1017.40  183.28
  -6  -6 -15  526.35  227.68
  -6  -6 -15  997.60  156.18
  11  -7 -15  514.45  103.89
  11  -7 -15  538.45  174.28
  -7  -4 -15  552.74  114.19
  -4  11 -15  615.74  160.68
  -7  -4 -15  383.86  175.38
 -11   7  15  403.06  167.38
  -1   8 -15    9.10  125.59
   8  -7 -15  156.88   98.39
   8  -7 -15   85.89  143.79
  -7  -1 -15   51.79  113.59
  -7  -1 -15   89.59  178.38
   7   1  15   74.19  119.19
  -8   7  15  -92.09  144.29
   7   1  15   22.90   93.69
   2   5 -15  610.84  123.79
  -7   2 -15  574.54  153.98
   5  -7 -15  280.77  144.59
   7  -2  15  645.64  106.59
  -5   7  15  318.47  160.88
   5   2 -15  438.86  122.19
   2  -7 -15  523.25  163.88
  -7   5 -15  653.63  123.89
  -2   7  15  755.62  228.88
   7  -5  15  767.42  113.89
  -5  -2  15  295.77  162.48
  -7   8 -15  215.08  122.39
  -1  -7 -15  123.29   90.49
   8  -1 -15  150.78  131.19
  -1  -7 -15   78.89  164.28
   7  -8  15   -7.80  108.39
   1   7  15  -89.19  178.98
   1   7  15  352.26  153.88
  -8   1  15  301.07  157.88
  -7  11 -15 1338.37  207.68
  -4  -7 -15 1481.85  178.98
   4   7  15 1661.33  177.88
  -7  -7 -15  590.94  242.78
  -7  -7 -15  231.98  131.39
  -7  14 -15  420.66  190.98
 -14   7  15  -20.70  206.58
   7   7  15  570.04  131.89
  -5  13 -15  469.15  179.78
  -8  -5 -15   80.19  109.99
  -8  -5 -15  128.59  191.18
 -13   8  15  189.68  184.08
  -8  -2 -15 -188.48  157.18
  -8  -2 -15   71.39   94.39
  10  -8 -15 -109.69  229.58
  -2  10 -15  178.08  137.69
  10  -8 -15   57.09   88.49
 -10   8  15 -278.47  145.09
   8   2  15  103.99  103.39
   8   2  15  161.48  122.29
   1   7 -15  -52.19  105.19
   7  -8 -15 -115.89  160.38
  -8   1 -15   37.80   85.89
  -8   1 -15   45.60  135.99
   7  -8 -15   -0.40   84.39
   8  -1  15  152.58   89.39
   8  -1  15  -82.19  120.39
  -7   8  15 -163.58  150.28
   4  -8 -15 1200.98  209.88
   4   4 -15 1090.39  158.98
   4  -8 -15 1266.07  143.09
  -8   4 -15 1097.69  169.38
  -4   8  15 1288.37  190.28
  -8   7 -15  230.18  109.59
   1  -8 -15  120.39   90.89
   1  -8 -15  164.88  181.68
   7   1 -15  264.47  121.69
   8  -7  15   49.40   94.39
  -1   8  15   38.80  160.18
  -7  -1  15    9.00  186.48
  -1   8  15  249.28  148.09
  -8  10 -15  484.45  149.39
  -2  -8 -15  -31.20  208.08
  -2  -8 -15  355.76  106.29
  10  -2 -15  405.56  144.29
 -10   2  15  255.97  170.68
   2   8  15  567.24  117.59
   2   8  15  324.37  165.88
  -8  13 -15  250.27  170.18
  13  -5 -15  193.28  183.88
  -5  -8 -15  393.06  131.19
 -13   5  15  218.98  190.18
   5   8  15  316.57  185.28
  -8  -8 -15  -50.79  143.09
  -8  16 -15   27.40  220.98
   8   8  15  -38.90  132.39
   8   8  15 -107.19  346.37
 -16   8  15   14.30  207.38
  -6  15 -15  128.19  193.58
  -9  -6 -15  -32.60  225.08
  15  -9 -15 -177.48  102.69
  -9  -6 -15  -28.40  127.49
   9   6  15 -153.28  125.89
 -15   9  15  107.49  203.58
  12  -9 -15  219.78   99.79
  -9  -3 -15   88.69  171.68
  -9  -3 -15  160.48  105.09
  -3  12 -15  234.38  153.98
   9   3  15  175.28  139.79
 -12   9  15  361.16  160.58
   9   3  15  143.49  123.19
   9  -9 -15   31.50   89.69
  -9   0 -15  -13.90  144.69
   9  -9 -15   99.39  190.68
   0   9 -15 -139.49  114.09
  -9   0 -15 -181.28   88.99
   9   0  15  191.68  102.69
  -9   9  15  173.28  151.68
   6  -9 -15  833.52  127.19
   6  -9 -15  825.22  192.68
   9  -3  15  677.83  119.39
   3  -9 -15  323.77  203.38
   6   3 -15  467.75  134.59
  -9   6 -15  627.94  133.79
   3  -9 -15  886.01  127.99
  -3   9  15  801.82  168.08
   9  -6  15  810.52  121.89
   0  -9 -15  113.09   96.59
   9   0 -15  233.98  131.09
  -9   9 -15   32.80  117.09
   9  -9  15  -82.79  124.99
  -9   0  15  309.07  164.78
   0   9  15  249.38  163.78
   0   9  15 -116.79  106.99
  12  -3 -15  337.07  163.28
  -3  -9 -15  607.54  125.19
   3   9  15  458.25  183.48
 -12   3  15   55.49  174.98
  -6  -9 -15  130.39  140.79
  -9  15 -15  -41.70  191.68
   6   9  15   69.49  230.68
 -15   6  15  -15.40  213.88
   6   9  15   82.89  125.79
 -10  -7 -15  216.88  144.29
  17 -10 -15  253.47  129.59
  -7  17 -15  377.06  224.18
 -17  10  15   30.20  216.48
  10   7  15  592.94  150.28
 -10  -4 -15    7.60  117.29
  -4  14 -15    8.20  164.18
  14 -10 -15 -134.69  102.09
 -10  -4 -15  127.09  201.08
 -14  10  15  346.17  202.08
  10   4  15   76.49  131.89
  11 -10 -15  133.39   93.19
  -1  11 -15  161.68  140.59
 -10  -1 -15 -123.49  159.18
 -10  -1 -15 -175.88   95.49
 -11  10  15   38.80  151.08
  10   1  15  -25.80  122.19
 -10   2 -15  155.98   91.39
   8 -10 -15   79.29  230.78
   8 -10 -15  -49.80   87.59
 -10   2 -15 -107.19  138.89
   2   8 -15   81.59  107.29
  10  -2  15  -95.59  144.69
  10  -2  15   90.09   85.79
  -8  10  15  227.68  156.58
 -10   5 -15 1406.56  193.98
   5 -10 -15 1661.53  164.78
   5   5 -15 1452.55  186.88
  10  -5  15 1728.93  165.08
  -5  10  15 1277.77  210.38
 -10   8 -15  641.34  131.59
   2 -10 -15  172.78   97.49
   8   2 -15  332.77  132.59
  -2  10  15  330.67  166.88
  -8  -2  15  227.58  169.18
  10  -8  15  462.45  129.89
  -1 -10 -15  101.89  108.69
 -10  11 -15   13.50  145.59
  11  -1 -15  -90.19  152.18
 -11   1  15  -15.70  175.58
   1  10  15  -31.10  169.68
   1  10  15  374.46  122.79
 -10  14 -15  488.25  194.08
  -4 -10 -15   42.50  129.99
   4  10  15 -136.99  210.68
   4  10  15  192.38  125.19
 -14   4  15   -8.50  217.28
  -7 -10 -15   88.69  157.18
 -10  17 -15  273.57  236.38
   7  10  15  130.89  142.59
 -17   7  15   21.30  241.68
 -11  -5 -15   65.59  132.89
 -11  -5 -15  202.08  231.88
  16 -11 -15   51.39  112.09
  -5  16 -15  269.97  202.38
  11   5  15   56.09  139.99
 -16  11  15  116.69  212.38
  13 -11 -15  -25.60  103.99
  -2  13 -15  148.69  163.58
 -11  -2 -15   80.19  114.49
 -11  -2 -15   39.40  183.88
  11   2  15  -59.79  126.09
  11   2  15   91.09  142.09
 -13  11  15  167.18  230.18
   1  10 -15   42.50  114.59
 -11   1 -15   -6.40   95.69
 -11   1 -15  -36.50  150.88
  10 -11 -15   29.50   99.39
 -10  11  15   83.49  155.88
  -1 -10  15  -94.79  219.78
  11  -1  15    7.80  101.79
  11  -1  15  132.79  138.39
   4   7 -15  381.26  127.49
 -11   4 -15  427.46  148.39
  -7  11  15  316.17  160.58
  11  -4  15  355.86   94.09
  -4  -7  15  973.20  303.37
   7   4 -15  999.10  187.88
 -11   7 -15 1255.67  194.38
   4 -11 -15 1557.94  160.58
  11  -7  15 1409.96  165.68
   1 -11 -15  231.58  107.29
 -11  10 -15  263.27  155.88
  10   1 -15  -29.60  130.19
  -1  11  15   93.59  131.39
  11 -10  15 -119.89  130.29
 -10  -1  15 -176.28  179.68
  -1  11  15  158.98  180.68
  13  -2 -15  211.98  163.28
  -2 -11 -15  139.99  129.69
 -11  13 -15   38.50  182.88
 -13   2  15 -197.38  208.28
   2  11  15  175.18  202.58
   2  11  15   79.69  126.39
 -11  16 -15   72.99  207.58
  -5 -11 -15  -85.29  149.49
 -16   5  15 -288.07  240.28
   5  11  15   17.00  131.09
  -3  15 -15    1.20  176.98
 -12  -3 -15   36.20  208.58
  15 -12 -15  -26.90  111.29
 -12  -3 -15  223.18  133.09
  12   3  15  -98.99  136.09
  12   3  15 -190.18  172.28
 -15  12  15   91.99  194.98
 -12   0 -15  153.38  114.59
 -12   0 -15   90.39  179.68
   0  12 -15  119.19  139.19
  12 -12 -15  243.88  105.59
  12   0  15 -102.69  136.59
  12   0  15   10.70  137.79
 -12  12  15   39.70  181.08
   0 -12  15 -174.08  305.37
   3   9 -15  164.38  126.79
 -12   3 -15  301.87  151.68
   9 -12 -15  187.88   97.89
 -12   3 -15  157.08   98.39
  -3  -9  15  496.45  213.18
  12  -3  15  374.06  151.68
  12  -3  15  171.48   96.19
  -9  12  15   89.59  159.28
 -12   6 -15  614.04  152.98
   6   6 -15  517.25  140.49
  -6  -6  15  275.57  204.98
  12  -6  15  836.22  126.69
   9   3 -15  266.27  141.79
   3 -12 -15  542.05  114.29
 -12   9 -15  541.65  153.38
  -9  -3  15  213.48  188.78
  12  -9  15  901.61  149.09
   0 -12 -15  -17.20  119.59
  12   0 -15  -48.20  160.58
 -12  12 -15   78.79  154.88
   0  12  15 -101.29  199.08
   0  12  15   36.70  126.89
 -12   0  15  446.96  207.68
  12 -12  15  131.79  146.09
 -12  15 -15   32.30  218.98
  -3 -12 -15 -191.48  140.39
 -15   3  15  194.28  234.88
   3  12  15    7.20  142.69
 -13  -1 -15   98.99  212.08
  14 -13 -15  -31.70  114.09
  -1  14 -15  124.89  166.88
 -13  -1 -15  122.89  127.79
  13   1  15  -40.10  135.79
  13   1  15  -16.30  157.78
 -14  13  15  -10.20  185.98
 -13   2 -15  181.48  114.49
 -13   2 -15  203.68  181.38
  11 -13 -15  192.48  111.39
   2  11 -15   13.80  136.49
  13  -2  15  225.38  114.09
  13  -2  15 -160.08  147.79
 -11  13  15 -303.57  176.38
   5   8 -15   15.90  138.49
   8 -13 -15  385.76  111.89
 -13   5 -15  154.18  150.98
  13  -5  15  106.59   97.89
  -8  13  15  367.36  170.38
  13  -5  15  384.96  172.58
  -5  -8  15  295.07  222.08
   8   5 -15  232.58  148.99
   5 -13 -15  509.55  120.19
 -13   8 -15  163.18  145.09
  13  -8  15  529.25  134.59
  -5  13  15  190.08  175.88
  -8  -5  15  258.27  200.68
   2 -13 -15   70.59  122.99
  11   2 -15 -128.29  152.58
 -13  11 -15  -92.59  151.78
  13 -11  15 -102.59  140.99
  -2  13  15  -48.00  191.28
 -11  -2  15 -310.07  210.68
 -13  14 -15   10.50  190.18
  -1 -13 -15  160.58  144.79
 -14   1  15  458.85  243.58
  13 -14  15   55.69  159.58
   1  13  15  -26.30  392.86
   1  13  15   49.20  149.88
  16 -14 -15    0.40  116.29
  -2  16 -15  -61.89  199.28
 -14  -2 -15  398.16  246.38
  14   2  15   -2.80  141.99
 -16  14  15 -268.37  201.28
  14   2  15  517.45  185.58
  13 -14 -15  -24.00  112.79
   1  13 -15  101.19  159.88
 -14   1 -15   13.50  204.88
  14  -1  15  -66.09  149.59
 -13  14  15  -80.79  200.88
  14  -1  15   84.39  147.69
 -14   4 -15   91.49  115.29
  10 -14 -15   99.49  104.49
 -14   4 -15   47.90  179.48
   4  10 -15  -44.90  140.09
  14  -4  15  166.18  152.08
 -10  14  15   44.70  185.48
  14  -4  15   79.39  102.79
   7   7 -15  206.88  139.39
   7 -14 -15  356.96  110.29
 -14   7 -15  266.77  155.18
  14  -7  15  116.89  104.59
  -7  14  15  145.59  183.78
  -7  -7  15   74.29  271.17
  10   4 -15   92.09  155.18
 -14  10 -15 -181.68  159.38
   4 -14 -15  178.18  129.39
 -10  -4  15 -215.48  226.48
  14 -10  15  203.68  137.99
  -4  14  15  -60.29  191.28
 -14  13 -15   60.19  188.28
   1 -14 -15   43.50  134.09
  -1  14  15  484.25  227.38
  14 -13  15  -53.89  154.58
 -13  -1  15  353.26  254.07
 -14  16 -15  -45.50  246.58
  -2 -14 -15   65.89  160.78
 -16   2  15   54.59  292.97
  15 -15 -15  -39.10  121.19
 -15   0 -15  131.89  236.78
 -15   0 -15 -181.88  137.19
   0  15 -15   -8.70  187.98
 -15  15  15  -56.09  204.78
  15   0  15  -61.89  153.18
  15   0  15  -17.80  165.88
 -15   3 -15 -100.69  196.58
   3  12 -15   13.80  157.08
  12 -15 -15  113.49  116.49
 -15   3 -15  -24.50  129.89
  15  -3  15 -266.67  155.68
  15  -3  15  -49.80  131.29
 -12  15  15  182.58  206.58
   9 -15 -15 -157.08  123.19
   6   9 -15  127.99  150.08
 -15   6 -15 -209.08  181.88
  -9  15  15   -7.90  204.78
  15  -6  15 -131.09  180.68
  15  -6  15   37.10  106.99
 -15   9 -15   85.79  169.58
   6 -15 -15   84.79  129.89
   9   6 -15  -43.20  156.78
  15  -9  15  -88.89  134.89
  -6  15  15 -339.67  199.48
   3 -15 -15  107.39  134.39
 -12  -3  15  -53.89  280.67
  -3  15  15  -18.30  228.78
  15 -12  15  177.88  150.28
 -15  15 -15 -207.48  214.58
   0 -15 -15  -55.09  154.18
  15 -15  15  191.08  169.58
 -15   0  15   11.50  288.27
   2  14 -15   81.79  175.18
  14 -16 -15   14.70  125.89
 -16   2 -15 -119.19  230.68
 -16   2 -15   21.00  141.39
  16  -2  15 -179.08  159.28
  16  -2  15   -2.70  163.88
 -14  16  15 -177.98  212.58
   5  11 -15  -21.80  159.08
 -16   5 -15  185.48  202.68
  11 -16 -15  176.78  119.89
  16  -5  15   47.60  148.89
 -11  16  15  172.18  211.18
  16  -5  15  -38.00  119.09
 -16   8 -15  158.68  180.38
   8 -16 -15   81.29  113.59
   8   8 -15  175.98  162.08
  -8  16  15  -22.60  222.88
  16  -8  15  199.78  120.09
 -16  11 -15  -33.50  172.78
  11   5 -15   57.29  159.78
   5 -16 -15   13.40  141.19
  16 -11  15  171.48  148.99
  -5  16  15  183.88  229.38
 -16  14 -15    6.10  197.08
   2 -16 -15  156.78  161.28
  16 -14  15   65.89  164.38
 -17   7 -15  375.66  206.68
  10 -17 -15  338.37  146.69
   7  10 -15    9.20  177.28
  17  -7  15  -53.89  212.58
 -10  17  15  203.68  239.28
  17  -7  15  101.89  124.69
 -17  10 -15   70.79  188.38
  10   7 -15 -254.47  161.18
   7 -17 -15  385.56  140.59
  -7  17  15   62.49  254.47
  17 -10  15  156.58  151.18
  -1   0 -16 3979.90  367.06
   1  -1 -16 3524.25  351.76
  -1   3 -16  876.71  160.88
  -3   2  16  768.72  158.08
  -2   0  16  718.23  188.78
  -3  -2 -16  237.38  239.38
   5  -3 -16  159.58  217.18
  -3  -2 -16   60.29   84.19
  -2   5 -16  174.98  131.79
   2  -5  16  288.37   97.59
  -5   3  16   56.49  138.79
   3   2  16  380.86  123.89
   2  -3 -16  629.44  155.48
   1   2 -16  891.81  158.28
  -2   3  16  862.11  165.78
  -3   4 -16  102.69  124.19
   4  -1 -16   14.10  130.49
  -1  -3 -16  199.58  139.29
  -1  -3 -16   83.29   83.79
   3  -4  16  111.39   88.79
   1   3  16  278.87  130.09
  -4   1  16  260.67  147.29
  -3   7 -16  142.59  135.89
   7  -4 -16   51.99  138.49
  -4  -3 -16  182.18   88.99
  -4  -3 -16  108.09  197.98
  -7   4  16  139.49  164.08
   4   3  16  203.68  133.59
  -4   0 -16  291.87  160.38
   0   4 -16  273.27  127.49
   4  -4 -16  253.17  139.99
   4   0  16  151.28  143.99
  -4   4  16  261.27  143.49
   1  -4 -16  259.37  147.89
  -4   3 -16  213.58  124.99
   3   1 -16  253.37  120.09
   1  -4 -16  211.18   85.69
  -3  -1  16  174.88  157.18
  -1   4  16  166.38  159.58
  -1   4  16  174.78  133.49
   4  -3  16  279.87   90.89
   6  -2 -16   57.59  129.99
  -2  -4 -16 -177.48  166.58
  -2  -4 -16   89.69   90.09
  -4   6 -16 -235.68  120.79
  -6   2  16  319.97  150.08
   2   4  16  143.49  121.29
  -5  -4 -16  528.65  190.58
  -4   9 -16  517.95  151.18
   5   4  16  628.24  130.99
  -9   5  16  574.14  165.58
  -5  -1 -16 -228.68   95.79
  -1   6 -16  169.28  129.69
  -5  -1 -16   57.89  147.49
  -6   5  16 -170.48  145.89
   5   1  16  107.79  131.29
   5   1  16   32.80   89.19
   3  -5 -16  -26.30  101.69
  -5   2 -16  -93.39  129.19
   3  -5 -16   23.00  140.69
   2   3 -16  177.28  115.89
  -3   5  16  331.57  134.69
   5  -2  16  432.26   95.39
   5   0 -16 -190.58  116.49
   0  -5 -16 -125.09  150.38
   0  -5 -16 -112.49   89.79
  -5   5 -16   13.40  130.29
   0   5  16 -226.58  156.48
   5  -5  16  -32.40   84.99
  -5   0  16  -69.19  152.28
   0   5  16   41.90  121.49
  -5   8 -16 1202.78  167.98
  -3  -5 -16  933.81  139.19
   8  -3 -16  763.32  165.88
  -8   3  16 1039.90  191.38
  -6  -5 -16  124.49  113.29
  11  -6 -16   67.29  171.48
  -6  -5 -16  423.56  195.98
  -5  11 -16  415.36  165.68
 -11   6  16  412.86  183.08
   6   5  16  360.86  130.69
  -2   8 -16   92.19  130.39
  -6  -2 -16  204.78  153.78
   8  -6 -16   58.99  154.68
  -6  -2 -16   36.20   91.09
   8  -6 -16  213.08   93.69
  -8   6  16   84.79  167.38
   6   2  16  -59.89  127.99
   6   2  16  393.76  152.08
   5  -6 -16  -82.49  142.79
  -6   1 -16   47.10  130.79
   1   5 -16  -12.80  115.39
   5  -6 -16   43.50   91.69
   6  -1  16 -133.19  139.39
   6  -1  16   45.30   90.19
  -5   6  16  138.59  141.69
   2  -6 -16   69.29   89.19
   2  -6 -16  -49.10  157.38
   4   2 -16  107.99  126.19
  -6   4 -16   56.19  127.89
  -4  -2  16 -166.18  148.79
  -2   6  16  -91.69  137.99
   6  -4  16  140.49   85.49
  -1  -6 -16  472.15  169.68
  -1  -6 -16  271.57   95.19
  -6   7 -16  344.47  128.79
   7  -1 -16  494.05  132.99
   1   6  16  257.77  163.58
   1   6  16  164.68  125.69
  -7   1  16  545.25  177.88
   6  -7  16   63.59   97.59
  -4  -6 -16  846.42  138.99
  -6  10 -16  388.96  147.09
  10  -4 -16  536.05  158.68
  -4  -6 -16  315.57  218.08
 -10   4  16  481.55  184.18
   4   6  16  602.44  132.79
  -6  13 -16  259.77  189.28
  -7  -6 -16   50.49  131.09
  -7  -6 -16  223.38  219.18
 -13   7  16  -12.80  195.48
   7   6  16  133.29  133.19
  -7  -3 -16   44.20  175.08
  10  -7 -16   33.50   97.39
  -3  10 -16   91.09  149.59
  -7  -3 -16  -11.20  105.89
  10  -7 -16  -66.39  172.08
 -10   7  16  167.78  165.68
   7   3  16  110.79  125.89
   7  -7 -16  107.39   92.69
  -7   0 -16  -92.69  145.69
  -7   0 -16  145.99   93.39
   0   7 -16   86.09  126.29
  -7   7  16   58.99  157.58
   7   0  16  -64.39  133.89
   7   0  16   65.79   93.89
   4  -7 -16  246.08  160.98
   3   4 -16  221.48  121.99
  -7   3 -16  201.08  123.69
   4  -7 -16   24.30   92.19
  -3  -4  16  104.99  162.58
   7  -3  16  177.78   82.39
  -4   7  16   23.40  142.69
   1  -7 -16   92.09  185.68
   6   1 -16  522.15  132.09
  -7   6 -16  436.26  138.29
  -1   7  16  684.83  157.68
  -6  -1  16  801.32  165.68
  -7   9 -16  996.00  167.38
  -2  -7 -16  829.82  224.18
   9  -2 -16  548.45  156.48
  -9   2  16 1158.18  197.78
   2   7  16  740.33  182.28
   2   7  16  348.67  132.79
  12  -5 -16  344.57  174.28
  -5  -7 -16  422.36  253.67
  -5  -7 -16  220.58  122.99
  -7  12 -16   98.79  169.58
 -12   5  16  469.05  183.68
   5   7  16  218.28  127.49
  -7  15 -16   31.00  215.68
  -8  -7 -16  120.99  139.59
 -15   8  16  148.19  220.38
   8   7  16 -120.19  141.59
  -4  12 -16  -26.30  161.78
  12  -8 -16  -84.29  202.28
  -8  -4 -16  -67.99  119.19
  -8  -4 -16  -29.70  184.98
  12  -8 -16  123.09  108.79
 -12   8  16  283.27  172.98
   8   4  16 -265.67  129.79
  -1   9 -16  -31.00  117.49
   9  -8 -16   32.10   92.79
   9  -8 -16  485.95  184.18
  -8  -1 -16  167.48  152.58
  -8  -1 -16   44.30   99.49
  -9   8  16  335.07  165.28
   8   1  16  195.08  136.39
   8   1  16   31.80  102.69
   6  -8 -16  150.98   93.49
   2   6 -16   72.29  123.09
   6  -8 -16   74.59  173.38
  -8   2 -16  165.98  134.39
   8  -2  16    0.60  148.69
   8  -2  16   76.69   97.29
  -2  -6  16  218.78  177.18
  -6   8  16  398.06  163.68
   5   3 -16 1038.80  158.68
   3  -8 -16  747.63  132.89
   3  -8 -16  384.36  190.58
  -3   8  16  910.41  168.48
  -5  -3  16  996.20  174.98
   0  -8 -16  536.05  221.38
  -8   8 -16  523.95  137.29
   0  -8 -16  404.46  103.49
   0   8  16  150.88  122.49
  11  -3 -16   58.59  161.78
  -3  -8 -16  120.19  111.79
  -8  11 -16  289.67  155.38
 -11   3  16  490.05  193.98
   3   8  16  192.38  128.99
   3   8  16  188.88  177.98
  -6  -8 -16  -33.90  137.09
  -8  14 -16  174.58  197.08
   6   8  16  132.49  216.78
 -14   6  16  149.29  224.58
   6   8  16  216.48  136.79
  -5  14 -16  278.57  194.28
  -9  -5 -16  277.27  131.89
  -9  -5 -16 -301.67  213.48
   9   5  16  -88.89  136.09
 -14   9  16 -323.07  206.98
  -9  -2 -16   59.59  112.29
  -9  -2 -16  -49.40  176.08
  11  -9 -16   -1.90  103.79
  11  -9 -16 -358.76  205.68
  -2  11 -16    2.40  135.89
   9   2  16  -29.40  127.29
 -11   9  16  -28.70  166.08
   9   2  16  142.09  131.99
  -9   1 -16  -95.49  151.38
   1   8 -16  182.68  138.69
   8  -9 -16   99.89   94.69
   8  -9 -16  -74.69  250.67
   9  -1  16  -95.29  143.79
  -8   9  16  187.48  161.38
  -1  -8  16   32.20  188.98
   9  -1  16  -24.40  106.89
   4   5 -16  320.97  119.99
   5  -9 -16  269.17  199.58
  -9   4 -16  574.04  137.49
   5  -9 -16  338.07   96.59
  -5   9  16  611.44  179.08
  -4  -5  16  556.24  175.18
   9  -4  16  329.37   98.29
  -9   7 -16  456.65  128.09
   2  -9 -16  377.86  105.89
   7   2 -16  405.46  134.59
   9  -7  16  305.27  108.79
  -2   9  16  808.92  167.98
  -7  -2  16  795.32  186.38
  10  -1 -16   92.09  141.59
  -9  10 -16  150.58  155.28
  -1  -9 -16 -171.28  102.69
   1   9  16   89.29  127.19
 -10   1  16  -49.30  180.88
   9 -10  16   33.10  122.99
   1   9  16  -11.50  172.68
  -4  -9 -16   29.00  125.69
  13  -4 -16  -42.30  183.88
  -9  13 -16  -80.39  174.78
   4   9  16  159.98  135.39
 -13   4  16 -118.79  203.88
  -7  -9 -16 -150.28  157.68
  -9  16 -16  -25.40  232.28
   7   9  16  -23.20  150.48
 -16   7  16  -12.50  227.18
 -10  -6 -16 -147.19  288.17
  -6  16 -16   22.80  211.38
 -10  -6 -16  222.28  146.99
  16 -10 -16 -113.39  132.89
 -16  10  16  111.19  209.58
  10   6  16  128.69  153.48
 -10  -3 -16   66.19  126.09
  -3  13 -16  260.07  165.58
  13 -10 -16  114.59  109.29
 -10  -3 -16  -96.29  189.78
  10   3  16  108.09  134.79
 -13  10  16   34.50  195.98
 -10   0 -16  -64.39  107.79
 -10   0 -16   15.90  167.08
   0  10 -16 -140.79  138.89
  10 -10 -16   87.69  103.19
  10 -10 -16 -307.47  262.97
 -10  10  16   82.59  170.28
  10   0  16 -146.49  132.79
   3   7 -16  101.89  124.19
 -10   3 -16  382.86  148.99
   7 -10 -16   36.00  105.29
  -3  -7  16  -39.90  166.18
  -7  10  16   34.50  160.18
  10  -3  16   81.39   91.69
 -10   6 -16  214.98  133.19
   4 -10 -16  534.65  110.39
   6   4 -16  490.85  129.19
  -4  10  16  393.96  184.78
  10  -6  16  311.17  101.29
  -6  -4  16  505.65  181.98
 -10   9 -16  131.89  133.19
   9   1 -16  293.77  147.49
  10  -9  16  142.79  113.09
  -9  -1  16  262.37  181.48
  -1  10  16  260.07  176.88
 -10  12 -16   85.29  181.98
  -2 -10 -16 -197.78  116.49
  12  -2 -16   64.29  168.28
   2  10  16  213.68  193.08
   2  10  16  107.09  135.19
 -12   2  16  183.38  195.38
 -10  15 -16   16.60  214.98
  -5 -10 -16   74.29  147.09
 -15   5  16  152.28  226.88
   5  10  16  175.78  142.29
   5  10  16   88.79  276.17
  15 -11 -16    8.20  117.49
  -4  15 -16  153.08  205.48
 -11  -4 -16  -66.09  132.89
 -11  -4 -16 -368.46  215.18
 -15  11  16 -379.06  200.98
  11   4  16   14.90  151.78
 -11  -1 -16 -193.88  118.79
  -1  12 -16 -203.08  136.89
 -11  -1 -16 -224.38  187.48
  12 -11 -16  203.68  110.99
  11   1  16  127.89  139.39
  11   1  16  -65.89  138.09
 -12  11  16  277.47  197.58
 -11   2 -16 -149.99  155.68
   2   9 -16  -63.79  130.29
   9 -11 -16  114.59   99.19
  11  -2  16  -24.30  111.09
  -9  11  16 -237.18  170.88
  11  -2  16   30.80  151.68
  -2  -9  16   54.19  179.88
   5   6 -16   14.10  119.49
   6 -11 -16  182.48   94.29
 -11   5 -16  215.08  147.59
  -6  11  16  212.78  170.68
  -5  -6  16  274.87  173.68
  11  -5  16  503.25  150.58
   3 -11 -16  177.88  107.49
 -11   8 -16  155.18  148.99
   8   3 -16   76.59  132.79
  11  -8  16  117.29   98.99
  -8  -3  16  362.96  185.18
  -3  11  16   95.89  176.28
 -11  11 -16 -205.68  156.48
   0 -11 -16  -13.70  117.89
  11   0 -16  353.36  159.98
  11 -11  16  115.49  147.79
   0  11  16  287.27  200.58
 -11   0  16 -296.47  193.18
   0  11  16  221.18  147.19
  -3 -11 -16   59.59  141.69
 -11  14 -16   -5.90  198.98
   3  11  16  177.58  240.18
   3  11  16   54.89  150.58
 -14   3  16  -32.60  239.18
  14 -12 -16 -149.99  114.79
 -12  -2 -16   32.70  132.29
  -2  14 -16 -174.78  170.68
 -12  -2 -16  244.18  216.38
  12   2  16  -41.00  146.99
  12   2  16  -77.89  173.88
 -14  12  16  352.46  207.58
 -12   1 -16  137.39  179.38
   1  11 -16  -27.40  149.59
  11 -12 -16  150.98  105.69
 -12   1 -16   -0.10  118.79
  12  -1  16  187.68  138.39
  12  -1  16 -137.29  143.99
 -11  12  16  150.88  182.18
  -1 -11  16   62.69  227.38
 -12   4 -16   80.79  156.28
   4   8 -16 -133.19  123.69
  12  -4  16  141.79   98.19
  -8  12  16   -1.70  171.58
  12  -4  16  -10.80  212.68
  -4  -8  16  153.78  198.78
 -12   7 -16  111.39  150.98
   5 -12 -16  255.07  110.29
   7   5 -16  190.98  134.89
  -7  -5  16   -2.80  199.48
  -5  12  16  187.38  181.38
   2 -12 -16   43.70  111.59
 -12  10 -16    4.70  158.08
  10   2 -16  122.19  156.18
  -2  12  16 -270.77  194.28
  12 -10  16   35.90  134.59
 -10  -2  16  -18.50  202.08
 -12  13 -16  263.97  198.98
  -1 -12 -16 -239.68  128.99
   1  12  16 -199.98  154.98
 -13   1  16  -59.89  244.38
   1  12  16  167.08  236.18
  12 -13  16  184.08  162.18
  13 -13 -16   26.10  116.29
 -13   0 -16  -80.89  198.88
   0  13 -16  -13.60  165.38
 -13  13  16  377.96  216.28
  13   0  16   96.79  147.69
  13   0  16  -29.40  162.78
 -13   3 -16  116.09  173.98
  10 -13 -16   80.19  108.19
   3  10 -16   52.99  136.09
 -10  13  16  158.88  172.58
  13  -3  16 -187.98  105.29
  13  -3  16   62.09  173.48
   6   7 -16  116.29  137.59
   7 -13 -16  -15.60  118.09
 -13   6 -16  241.58  153.58
  -7  13  16    6.30  181.98
  13  -6  16  171.88  103.39
  -6  -7  16  -40.30  214.68
 -13   9 -16  272.57  156.58
   4 -13 -16  -90.29  122.39
   9   4 -16  -32.10  143.09
  -4  13  16 -187.58  194.38
  -9  -4  16 -136.19  207.08
  13  -9  16  151.58  117.29
  12   1 -16  -25.60  162.28
   1 -13 -16   21.60  134.19
 -13  12 -16 -207.78  162.78
  -1  13  16  424.56  217.68
 -12  -1  16  103.99  231.38
  13 -12  16  121.99  154.98
 -14   2 -16 -131.89  189.48
   2  12 -16  175.38  172.28
  12 -14 -16  174.68  117.09
 -14   2 -16   51.59  134.09
  14  -2  16  -59.59  147.79
  14  -2  16   29.80  167.48
 -12  14  16   29.90  216.28
   5   9 -16   32.70  149.99
 -14   5 -16 -333.27  171.08
   9 -14 -16  -69.79  114.89
  -9  14  16   20.40  194.18
  14  -5  16  149.19  109.89
  14  -5  16  552.44  334.57
   8   6 -16   48.30  147.39
   6 -14 -16   22.90  117.99
 -14   8 -16  -98.59  162.58
  -6  14  16  311.47  194.18
  -8  -6  16  238.68  254.57
  14  -8  16   48.70   99.29
   3 -14 -16   31.60  143.79
  11   3 -16   70.59  169.08
 -14  11 -16 -186.28  163.08
  -3  14  16   71.39  213.48
 -11  -3  16  -78.39  249.88
  14 -11  16  -33.50  148.89
   0 -14 -16  281.27  163.88
 -14  14 -16  -64.69  215.38
  14 -14  16  -63.89  163.48
 -14   0  16 -106.69  268.77
  11 -15 -16  145.19  121.39
 -15   4 -16   36.40  186.18
   4  11 -16    8.00  162.18
  15  -4  16  220.88  126.79
 -11  15  16  -92.49  216.08
  15  -4  16  147.69  191.28
   7   8 -16 -164.38  157.28
 -15   7 -16   -6.60  177.98
   8 -15 -16 -103.29  132.69
  15  -7  16  -93.39  111.19
  -8  15  16  -44.70  209.38
  10   5 -16  132.29  160.38
   5 -15 -16  102.19  140.79
 -15  10 -16  -21.40  182.68
  -5  15  16   55.69  219.38
  15 -10  16  -71.79  133.89
  10 -16 -16  -92.29  130.29
   6  10 -16  -33.10  165.28
 -16   6 -16 -277.37  185.98
 -10  16  16  293.57  229.88
  16  -6  16   68.89  119.99
   9   7 -16 -267.97  170.48
 -16   9 -16  127.99  180.88
   7 -16 -16   49.70  134.79
  16  -9  16  -71.69  113.89
  -7  16  16 -233.98  234.98
   1   0 -17 1495.85  196.38
   0  -1 -17 1252.97  202.28
  -1   1 -17 1594.94  198.58
   2  -2 -17 1507.45  196.68
   0   2 -17 1380.66  190.68
  -2   0 -17 1368.66  195.28
  -2   2  17 1307.67  199.88
   3  -1 -17 1285.17  183.28
  -1  -2 -17 1401.16  201.08
  -2   3 -17 1384.26  187.28
  -3   1  17 1149.48  199.98
  -1   4 -17  682.13  155.18
   4  -3 -17  813.12  162.48
  -3  -1 -17  709.13  163.18
   3   1  17  271.07  167.98
  -4   3  17  669.73  170.88
   1  -3 -17 1238.58  209.08
   2   1 -17 1346.77  174.78
  -3   2 -17 1261.77  185.58
  -2  -1  17 1379.26  205.68
  -1   3  17 1281.57  198.38
  -2  -3 -17  218.38  159.38
   5  -2 -17  -96.69  130.19
  -2  -3 -17   85.99   91.59
  -3   5 -17  -15.10  131.79
  -5   2  17  308.17  147.09
   3  -5  17   76.79   95.09
  -2   6 -17  119.09  139.89
  -4  -2 -17  -92.49  165.08
   6  -4 -17  -13.70  144.09
  -4  -2 -17   33.60   92.09
   4   2  17  482.25  182.78
  -6   4  17  -88.09  160.48
   3  -4 -17  380.86  157.28
   1   3 -17  599.14  139.39
  -4   1 -17  896.01  154.48
  -3   4  17  728.53  160.88
   4   0 -17  524.05  143.19
   0  -4 -17  636.24  173.48
   0  -4 -17  280.07   97.69
  -4   4 -17  337.47  144.99
  -4   0  17  388.86  156.78
   0   4  17  452.45  173.88
   0   4  17  533.95  233.08
  -4   7 -17  114.89  140.19
  -3  -4 -17  183.08   97.79
  -3  -4 -17   75.59  178.68
   7  -3 -17  380.26  151.78
   3   4  17   25.90  138.39
  -7   3  17  -46.60  170.58
  -3   8 -17  413.36  155.98
  -5  -3 -17  410.06  192.78
   8  -5 -17  185.28  156.28
   5   3  17   74.79  137.49
  -8   5  17  591.54  188.28
   5  -5 -17 -129.19  153.38
   0   5 -17   89.09  131.69
  -5   0 -17  -17.60  159.58
   5   0  17  -71.19  120.29
  -5   5  17 -116.39  147.99
   5   0  17  -53.59  185.58
  -5   3 -17   75.59  134.39
   2  -5 -17  117.39   94.99
   3   2 -17  355.86  138.49
   2  -5 -17  128.69  165.58
  -3  -2  17   -8.60  161.48
  -2   5  17  116.79  149.29
   5  -3  17    8.10   90.19
  -5   6 -17  212.48  137.09
   6  -1 -17  334.37  146.39
  -1  -5 -17  182.38   97.49
  -1  -5 -17  342.57  183.38
   1   5  17  214.08  172.58
   1   5  17  233.78  139.49
  -6   1  17  383.46  173.68
   5  -6  17  101.99  111.09
  -5   9 -17  640.44  165.28
   9  -4 -17  576.04  156.68
  -4  -5 -17  323.67  111.59
  -4  -5 -17  535.35  206.18
  -9   4  17  909.51  187.08
   4   5  17  122.19  142.59
  -6  -4 -17  492.35  115.29
  -4  10 -17  178.58  153.38
  10  -6 -17  353.66  189.08
  -6  -4 -17  239.58  206.38
   6   4  17  233.18  143.19
 -10   6  17  378.66  183.08
  -1   7 -17  300.17  138.89
  -6  -1 -17  161.78  172.18
   7  -6 -17  285.37  165.18
  -7   6  17  340.67  176.18
   6   1  17   85.49  155.38
   6   1  17  -74.89  132.79
  -6   2 -17  -44.50  142.69
   4  -6 -17  150.78  165.88
   2   4 -17  183.18  116.89
  -2  -4  17  144.49  172.98
  -4   6  17   -8.10  144.79
   6  -2  17 -119.89   88.99
   5   1 -17  622.14  131.59
  -6   5 -17  298.67  149.09
   1  -6 -17  424.66  191.58
  -5  -1  17  658.93  160.78
  -1   6  17  -52.09  148.19
  -1   6  17  308.97  161.38
  -2  -6 -17  979.30  149.19
   8  -2 -17  738.83  178.78
  -2  -6 -17  689.23  206.88
  -6   8 -17  935.71  167.58
   2   6  17  984.50  195.68
  -8   2  17  990.10  210.88
  11  -5 -17   94.09  186.88
  -5  -6 -17  293.77  120.99
  -5  -6 -17  -72.29  228.48
  -6  11 -17  528.65  175.88
   5   6  17  234.78  144.29
 -11   5  17  600.04  194.38
  -7  -5 -17  212.88  128.79
  12  -7 -17   34.70  206.58
  -5  12 -17  122.89  177.58
  -7  -5 -17  -79.19  225.48
 -12   7  17  -16.50  183.28
   7   5  17   68.99  145.29
  -7  -2 -17  286.47  182.68
   9  -7 -17  299.47  107.39
  -2   9 -17  561.74  154.88
   9  -7 -17  410.36  178.28
  -7  -2 -17  284.77  111.09
   7   2  17  219.18  144.89
  -9   7  17  201.18  181.18
   6  -7 -17  400.06  170.98
   1   6 -17  201.48  120.99
  -7   1 -17  268.17  156.48
   6  -7 -17  169.68  100.49
   7  -1  17  -18.40   94.99
  -6   7  17  508.15  182.08
   3  -7 -17  228.08   97.79
  -7   4 -17  194.98  142.59
   4   3 -17  214.48  119.89
   3  -7 -17   63.29  188.28
  -3   7  17  217.38  146.69
  -4  -3  17  159.88  167.28
   7  -4  17  -26.20  102.49
   0  -7 -17  685.83  218.38
   7   0 -17  684.33  150.18
  -7   7 -17  560.44  147.69
   0  -7 -17  411.86  117.69
   0   7  17  878.31  177.08
   0   7  17  133.29  143.69
  -3  -7 -17  556.24  247.08
  10  -3 -17  829.12  180.08
  -7  10 -17  657.83  167.78
  -3  -7 -17  526.25  126.79
   3   7  17  875.71  200.88
 -10   3  17  890.21  203.48
  -6  -7 -17  210.58  133.49
  -7  13 -17  178.38  201.48
   6   7  17  164.98  211.48
   6   7  17  -21.50  144.99
 -13   6  17  203.88  213.88
  -8  -6 -17 -415.36  290.87
  -6  14 -17   68.29  215.18
  -8  -6 -17  -33.60  143.19
   8   6  17  -99.49  150.68
 -14   8  17  205.28  230.88
  11  -8 -17   48.60  112.19
  11  -8 -17 -104.39  208.68
  -8  -3 -17  118.49  121.99
  -8  -3 -17  421.96  198.58
  -3  11 -17  116.39  170.28
   8   3  17  303.67  146.79
 -11   8  17  247.08  181.68
   8  -8 -17  357.06  104.99
  -8   0 -17  474.55  168.08
   0   8 -17   74.09  139.09
   8  -8 -17  285.07  188.58
  -8   8  17  384.96  173.48
   8   0  17   64.79  111.69
   8   0  17   23.50  153.88
   5  -8 -17   -5.20  184.98
   3   5 -17  207.58  127.79
  -8   3 -17  121.89  138.09
   5  -8 -17  198.98  107.89
   8  -3  17  -52.19  105.29
  -3  -5  17  115.49  168.28
  -5   8  17  486.05  181.28
  -8   6 -17  461.65  159.28
   2  -8 -17  706.13  124.59
   6   2 -17  992.10  167.38
   2  -8 -17  581.64  253.77
  -6  -2  17 1010.10  195.98
  -2   8  17  741.63  169.18
  -8   9 -17  344.17  150.78
   9  -1 -17  103.49  162.68
  -1  -8 -17  211.58  115.99
   8  -9  17   57.99  111.09
   1   8  17  172.78  139.39
  -9   1  17  639.24  194.98
   1   8  17  198.48  173.38
  12  -4 -17 -199.78  186.68
  -4  -8 -17  284.27  134.29
  -8  12 -17  344.77  181.58
 -12   4  17  -27.00  196.38
   4   8  17  -91.09  143.99
   4   8  17   69.69  204.68
  -9  -4 -17  241.58  140.89
  -4  13 -17  -17.40  174.18
  13  -9 -17  -93.69  119.89
  -9  -4 -17  360.96  223.88
   9   4  17  -62.69  152.98
 -13   9  17 -123.59  205.98
  -9  -1 -17  185.98  117.49
  -1  10 -17  171.68  142.59
  10  -9 -17   73.89  110.49
  10  -9 -17  159.68  217.28
  -9  -1 -17   43.60  186.98
   9   1  17 -120.49  130.39
   9   1  17  -85.19  150.68
 -10   9  17  127.79  179.68
   7  -9 -17  156.98  103.19
   2   7 -17  183.28  118.09
  -9   2 -17  166.88  166.98
   7  -9 -17  352.46  210.08
  -7   9  17  201.88  172.88
   9  -2  17   48.20  107.39
  -2  -7  17  115.69  188.38
  -9   5 -17  273.07  138.99
   5   4 -17  657.43  148.69
   4  -9 -17  589.84  115.29
  -5  -4  17  560.84  183.38
  -4   9  17  436.86  196.28
   8   1 -17  377.36  151.58
  -9   8 -17   29.00  149.19
   1  -9 -17  134.99  114.49
  -1   9  17  -75.29  174.98
   9  -8  17   32.60  100.89
  -8  -1  17  287.57  191.38
  -9  11 -17 -107.19  172.58
  -2  -9 -17  -56.49  119.99
  11  -2 -17   40.30  172.08
   2   9  17    6.80  147.99
 -11   2  17  289.47  198.68
   2   9  17  108.99  199.08
  -9  14 -17  426.66  219.58
  -5  -9 -17  -10.90  145.99
   5   9  17  180.28  239.58
   5   9  17  184.48  154.98
 -14   5  17  390.36  243.08
  -2  12 -17   -1.70  173.08
  12 -10 -17   63.39  115.89
 -10  -2 -17  -58.99  134.89
 -10  -2 -17   92.89  202.08
  10   2  17  112.49  158.18
 -12  10  17 -203.28  187.78
   1   9 -17  137.79  127.79
 -10   1 -17   37.40  167.18
   9 -10 -17  185.18  107.59
  -9  10  17 -106.29  172.28
  10  -1  17 -104.09  160.28
  10  -1  17  174.58  119.79
  -1  -9  17  124.19  207.18
   4   6 -17  598.84  149.59
 -10   4 -17  569.64  175.78
   6 -10 -17  630.24  128.19
  -4  -6  17  425.46  183.48
  -6  10  17  583.64  186.38
   3 -10 -17  472.35  131.59
   7   3 -17  796.22  165.78
 -10   7 -17  470.05  146.39
  -7  -3  17  863.21  213.28
  -3  10  17  669.63  200.18
   0 -10 -17  -22.60  113.89
 -10  10 -17  346.27  166.98
  10   0 -17  -10.50  157.18
  10 -10  17 -188.78  118.09
 -10   0  17  -58.49  193.98
   0  10  17  529.25  196.18
 -10  13 -17  176.88  197.08
  -3 -10 -17  104.59  134.59
   3  10  17   30.30  229.38
   3  10  17  234.58  160.78
 -13   3  17  -85.29  227.28
 -11   0 -17  -50.39  194.38
 -11   0 -17 -120.79  132.39
  11 -11 -17 -146.49  111.39
   0  11 -17   44.20  146.09
   0 -11  17  133.59  231.58
  11   0  17   79.99  158.38
  11   0  17 -102.89  136.89
 -11  11  17 -133.49  179.08
   3   8 -17  107.39  142.99
   8 -11 -17   38.10  110.99
 -11   3 -17  259.97  163.08
  11  -3  17 -139.29  116.09
  -3  -8  17  371.56  192.98
  -8  11  17  161.78  179.18
   5 -11 -17  294.17  112.79
   6   5 -17  449.46  150.68
 -11   6 -17  389.16  172.08
  -6  -5  17  483.05  223.18
  -5  11  17  293.47  185.38
   9   2 -17    2.50  154.38
 -11   9 -17   85.59  151.38
   2 -11 -17   75.29  121.69
  11  -9  17 -114.49  107.09
  -9  -2  17  162.68  209.08
  -2  11  17  -55.49  200.78
  -1 -11 -17  104.99  136.99
 -11  12 -17  189.58  196.88
  12  -1 -17   83.59  180.08
   1  11  17   34.10  230.28
 -12   1  17 -105.79  214.98
  11 -12  17  -51.79  133.59
   1  11  17 -112.29  163.58
 -12  -1 -17   71.69  213.78
  13 -12 -17  257.17  118.79
 -12  -1 -17   95.99  143.99
  -1  13 -17   57.99  183.78
  12   1  17   37.60  161.38
  12   1  17  249.78  183.78
 -13  12  17  382.56  222.88
   2  10 -17  -31.60  154.58
  10 -12 -17  -90.39  118.79
 -12   2 -17 -125.19  187.18
  -2 -10  17   51.29  216.38
 -10  12  17 -134.69  180.58
  12  -2  17   62.79  133.09
  12  -2  17 -138.89  171.88
 -12   5 -17 -105.09  159.58
   5   7 -17  219.08  145.89
   7 -12 -17   57.89  126.89
  12  -5  17  -30.40   98.89
  -5  -7  17  132.59  218.38
  -7  12  17   38.60  189.78
   4 -12 -17  245.88  124.89
 -12   8 -17  244.78  163.78
   8   4 -17   76.39  157.58
  12  -8  17  -20.90  101.79
  -8  -4  17   30.80  210.28
  -4  12  17  -64.99  192.48
  11   1 -17 -200.18  172.58
   1 -12 -17  -77.99  126.49
 -12  11 -17  148.89  177.88
 -11  -1  17 -116.79  219.58
  -1  12  17 -147.29  215.68
  12 -11  17  161.88  120.79
  12 -13 -17  466.35  127.79
 -13   1 -17  454.65  209.28
 -13   1 -17  188.48  150.08
   1  12 -17  133.59  167.48
 -12  13  17  257.57  221.08
  13  -1  17 -121.59  165.98
  13  -1  17   46.90  162.28
   9 -13 -17   87.89  119.19
   4   9 -17 -150.18  143.19
 -13   4 -17  126.19  179.88
  -4  -9  17 -554.84  487.15
  13  -4  17  -84.99  110.29
  -9  13  17   -3.30  183.38
   6 -13 -17   87.19  118.89
 -13   7 -17 -176.68  158.28
   7   6 -17  -47.40  158.08
  -7  -6  17  160.28  231.18
  -6  13  17  136.69  193.98
  13  -7  17   -8.40  103.09
 -13  10 -17 -280.87  154.68
  10   3 -17  182.38  170.28
   3 -13 -17  -30.00  136.49
  -3  13  17  107.89  210.48
 -10  -3  17 -321.67  229.98
  13 -10  17   59.29  113.99
 -14   6 -17  249.48  180.58
   8 -14 -17    8.60  135.39
   6   8 -17   23.60  162.68
  -8  14  17  126.09  200.18
  14  -6  17   42.90  112.39
   5 -14 -17  284.67  137.49
 -14   9 -17  160.68  170.08
   9   5 -17 -166.48  163.28
  -9  -5  17 -404.96  266.27
  -5  14  17  123.89  213.58
  14  -9  17  -64.89  113.89
   0   0 -18 1963.80  235.88
  -1   2 -18 1479.75  210.48
   2  -1 -18 1302.97  200.18
  -1  -1 -18 1563.34  218.28
  -2   1  18 1418.46  218.28
  -2   1 -18 1828.82  217.68
   1   1 -18 1400.16  207.18
   1  -2 -18 1571.94  221.88
  -1  -1  18 1655.63  242.28
  -1   2  18 1361.66  221.88
   4  -2 -18  202.18  146.69
  -2   4 -18  230.78  151.68
  -2  -2 -18  249.48  169.68
  -4   2  18  184.58  174.88
   3  -3 -18   71.29  161.18
  -3   0 -18  -44.80  152.48
   0   3 -18  455.75  149.49
  -3   3  18  274.57  159.48
  -3   3 -18  643.44  158.18
   3   0 -18  562.94  161.98
   0  -3 -18  667.03  185.18
   0   3  18  464.15  195.38
  -3   0  18  440.36  174.68
  -3   6 -18 -135.09  146.09
   6  -3 -18   -2.50  159.48
  -3  -3 -18   60.99  178.68
   3   3  18  -40.30  164.28
  -6   3  18 -371.36  184.48
   5  -4 -18  259.87  161.98
  -4  -1 -18  -43.40  176.08
  -1   5 -18   91.19  144.19
  -5   4  18  118.49  172.38
   2  -4 -18  364.16  165.98
  -4   2 -18  308.87  152.98
   2   2 -18  132.69  130.19
  -2   4  18  109.39  163.58
  -2  -2  18  236.98  177.38
  -1  -4 -18  200.48  184.28
  -4   5 -18  -10.20  144.59
   5  -1 -18  -30.50  150.08
  -5   1  18  -80.19  164.78
   1   4  18 -212.28  184.18
   4  -5  18   16.30  136.69
   1   4  18  255.17  157.28
  -4  -4 -18  418.56  117.59
   8  -4 -18  455.15  177.48
  -4  -4 -18  315.97  207.38
  -4   8 -18  417.86  165.68
  -8   4  18  190.18  192.78
   4   4  18  204.88  161.68
  -2   7 -18  313.57  151.68
  -5  -2 -18  262.47  189.98
   7  -5 -18  304.17  174.28
  -7   5  18   47.40  185.38
   5   2  18   14.00  166.58
   1   4 -18  120.09  126.49
  -5   1 -18    5.40  164.68
  -4   5  18 -116.29  156.38
  -1  -4  18  -13.40  199.68
   1  -5 -18  -30.40  103.39
  -5   4 -18  -92.79  151.18
   1  -5 -18  126.49  182.58
   4   1 -18 -108.99  132.19
  -4  -1  18   58.19  174.38
  -1   5  18   39.70  166.18
   5  -4  18   22.40   99.09
  -2  -5 -18 -267.87  195.98
   7  -2 -18   51.69  151.18
  -5   7 -18  149.88  148.39
  -2  -5 -18   90.89  109.19
   2   5  18   48.10  154.28
  -7   2  18  203.78  204.68
   5  -7  18   80.29  108.79
   2   5  18  -12.90  189.98
  -5  10 -18 -115.79  178.68
  -5  -5 -18   47.80  123.09
  -5  -5 -18  365.16  231.18
  10  -5 -18   44.10  184.18
 -10   5  18  160.78  194.48
   5   5  18   86.49  160.78
  -6  -3 -18  526.35  127.99
   9  -6 -18  615.54  192.68
  -3   9 -18  540.95  163.38
  -6  -3 -18  373.76  220.98
   6   3  18  262.17  167.68
  -9   6  18  443.56  199.48
  -6   0 -18  -80.69  188.18
   6  -6 -18  193.08  174.78
   0   6 -18    6.50  126.39
  -6   6  18   11.50  195.78
  -6   3 -18   81.39  152.98
   3  -6 -18   -9.10  174.48
   3  -6 -18  222.48  107.49
   3   3 -18 -101.49  127.79
  -3  -3  18   63.59  171.98
   6  -3  18  192.68  100.99
  -3   6  18 -291.37  147.19
   0  -6 -18 -391.76  201.58
   0  -6 -18  -14.20  103.79
   6   0 -18   32.80  145.79
  -6   6 -18   58.99  148.19
   0   6  18 -286.37  162.98
  -6   0  18 -251.37  189.38
   0   6  18  -29.00  171.58
   6  -6  18    0.30  109.59
   9  -3 -18    6.80  177.28
  -3  -6 -18  276.07  229.68
  -3  -6 -18  130.79  117.19
  -6   9 -18  184.58  172.68
  -9   3  18  654.73  202.08
   3   6  18  374.16  204.08
   3   6  18   84.49  158.18
  -6  -6 -18  544.55  146.79
  -6  -6 -18 -317.17  291.17
  -6  12 -18  679.43  210.68
  12  -6 -18  -42.20  218.48
 -12   6  18  232.98  202.88
   6   6  18  589.94  172.08
   6   6  18  348.57  221.58
  -7  -4 -18  666.73  140.79
  -4  11 -18  629.44  183.08
  -7  -4 -18  622.64  245.48
  11  -7 -18  301.27  222.28
 -11   7  18  295.57  199.48
   7   4  18  268.07  160.48
  -1   8 -18  379.16  149.49
  -7  -1 -18  165.28  207.08
   8  -7 -18  216.18  178.78
   7   1  18  169.68  174.58
  -8   7  18  153.68  177.88
   5  -7 -18  125.89  112.29
   2   5 -18  142.09  151.78
  -7   2 -18  213.68  179.18
   5  -7 -18 -119.19  178.68
   7  -2  18   53.39  106.19
  -5   7  18   66.19  185.88
  -2  -5  18  651.53  197.78
   2  -7 -18  160.88  110.09
   2  -7 -18  -15.40  190.98
   5   2 -18   89.99  147.39
  -7   5 -18  150.38  149.49
  -5  -2  18  124.29  177.58
   7  -5  18  149.99  106.39
  -2   7  18  -83.99  158.88
  -7   8 -18  218.78  164.98
  -1  -7 -18  158.28  118.79
  -1  -7 -18   28.20  253.97
   8  -1 -18    7.80  153.18
   1   7  18  205.98  185.68
   7  -8  18  148.19  126.59
  -8   1  18  380.86  203.68
   1   7  18  190.38  162.98
  11  -4 -18  290.37  196.98
  -7  11 -18  156.98  191.18
  -4  -7 -18  -75.29  130.59
 -11   4  18  171.78  199.28
   4   7  18  -83.89  160.48
   4   7  18 -131.39  205.28
  -8  -2 -18  318.47  133.39
  10  -8 -18  251.17  217.88
  -2  10 -18  125.29  147.69
  -8  -2 -18  -24.70  223.28
   8   2  18  168.98  173.68
 -10   8  18  470.55  193.48
   7  -8 -18  265.07  115.29
   1   7 -18  451.75  165.28
  -8   1 -18  395.16  181.78
   7  -8 -18  391.26  200.78
  -1  -7  18   43.00  204.08
  -7   8  18  308.67  186.98
   4  -8 -18  365.96  120.99
  -8   4 -18  298.77  164.28
   4   4 -18  255.37  136.59
   4  -8 -18  101.59  213.98
  -4   8  18  539.95  205.48
   8  -4  18  112.79  107.79
  -4  -4  18  290.77  177.58
  -8   7 -18  316.97  150.58
   1  -8 -18    3.60  116.09
   7   1 -18  199.18  157.88
  -7  -1  18   54.19  201.88
  -1   8  18  -44.60  167.28
   8  -7  18   49.50  117.49
  -2  -8 -18   27.20  119.69
  10  -2 -18   99.59  171.88
  -8  10 -18   12.60  170.18
   2   8  18  328.97  160.28
 -10   2  18  208.38  202.48
   2   8  18 -244.08  197.18
  -9  -3 -18   78.69  143.79
  -3  12 -18  170.68  181.68
  -9  -3 -18  298.17  236.28
 -12   9  18  -21.20  188.58
   9   3  18 -194.98  168.48
   9  -9 -18  533.05  124.99
   9  -9 -18  282.07  268.87
   0   9 -18  433.46  161.08
  -9   0 -18 -114.79  193.58
   9   0  18   32.20  182.78
   9   0  18  -42.30  168.08
  -9   9  18  287.77  188.58
   0  -9  18  354.86  222.88
  -9   3 -18  496.25  166.68
   3   6 -18  303.37  139.59
  -3  -6  18  -15.80  195.78
  -6   9  18  499.55  196.98
   9  -3  18  241.58  118.19
   6   3 -18  120.39  140.99
  -9   6 -18   45.60  156.38
   9  -6  18    0.10  113.29
  -6  -3  18   51.99  202.48
  -3   9  18  496.55  213.28
  -9   9 -18  544.35  173.78
   0  -9 -18  854.31  137.59
   9   0 -18  596.34  179.88
  -9   0  18  198.48  221.08
   0   9  18  837.32  207.68
  -3  -9 -18   68.79  138.79
  -9  12 -18  134.79  182.98
  12  -3 -18 -122.39  200.98
   3   9  18  170.18  169.68
 -12   3  18 -159.98  210.88
   3   9  18  -96.59  220.68
 -10  -1 -18  157.48  208.88
 -10  -1 -18  144.89  144.39
  -1  11 -18   76.49  150.18
   1 -11  18  193.98  238.18
  10   1  18 -211.38  177.28
 -11  10  18   69.49  184.38
 -10   2 -18   83.09  176.08
   2   8 -18  194.88  147.49
   8 -10 -18  334.57  122.09
  -2  -8  18   -4.20  200.38
  -8  10  18  197.98  191.18
  10  -2  18  261.87  117.79
   5 -10 -18  163.48  127.99
   5   5 -18  184.58  130.99
 -10   5 -18  276.37  161.58
  -5  10  18  191.88  195.58
  10  -5  18  -72.49  114.89
  -5  -5  18 -328.27  197.98
   8   2 -18   15.80  150.88
   2 -10 -18  106.19  124.69
 -10   8 -18  234.78  168.68
  10  -8  18 -187.18  101.69
  -2  10  18   74.99  212.58
  -8  -2  18  221.98  212.38
  11  -1 -18   63.39  182.68
 -10  11 -18 -226.48  185.68
  -1 -10 -18  109.19  132.29
   1  10  18  299.57  217.28
  10 -11  18  -24.40  134.59
 -11   1  18 -230.58  214.48
  10 -11 -18   19.80  122.89
   1  10 -18   93.99  163.28
 -11   1 -18  232.48  207.78
 -10  11  18   36.30  181.08
  11  -1  18  117.59  137.19
  -1 -10  18   14.50  219.08
  11  -1  18  -30.00  205.28
   7 -11 -18  609.64  132.09
   4   7 -18  342.37  154.28
 -11   4 -18  497.85  169.98
  -4  -7  18  364.46  214.18
  -7  11  18  119.89  197.18
  11  -4  18  133.09  127.69
   4 -11 -18  272.67  126.39
 -11   7 -18 -121.19  154.48
   7   4 -18  -39.80  154.08
  11  -7  18   -6.20  103.39
  -4  11  18  165.18  201.88
  -7  -4  18   92.59  215.58
 -11  10 -18   50.79  181.48
  10   1 -18   81.09  170.48
   1 -11 -18   17.60  132.29
  -1  11  18 -121.99  222.78
  11 -10  18   67.89  117.09
 -10  -1  18 -470.85  230.18
   3   9 -18  -88.49  153.48
   9 -12 -18  150.98  128.29
 -12   3 -18  262.17  205.68
  12  -3  18  182.28  135.19
  -3  -9  18  588.14  233.28
  -9  12  18  101.59  197.88
   6 -12 -18  554.64  137.19
   6   6 -18 -165.18  155.38
 -12   6 -18  262.57  155.88
  12  -6  18  175.18  112.59
  -6  -6  18  195.88  235.68
  -6  12  18   -6.80  197.28
   3 -12 -18  152.28  133.69
   9   3 -18  102.39  164.88
 -12   9 -18  222.88  172.78
  -9  -3  18  -50.49  228.88
  -3  12  18   -7.80  211.28
  12  -9  18   75.69  112.49
  -1   0 -19  783.22  185.58
   1  -1 -19  714.13  171.88
   0   1 -19  737.23  179.88
   0  -1  19  437.46  214.38
  -1   1  19  615.94  193.78
  -2  -1 -19  -27.40  188.38
  -1   3 -19   84.19  156.98
   3  -2 -19  -16.30  173.98
  -3   2  19   56.09  181.88
   2   0 -19  279.47  160.38
  -2   2 -19  123.89  167.18
   0  -2 -19  305.47  182.28
  -2   0  19  292.77  181.88
   0   2  19  391.06  192.78
  -2   5 -19  278.97  164.78
  -3  -2 -19   18.90  193.78
   5  -3 -19 -163.78  169.78
  -5   3  19  -10.30  196.78
  -3   1 -19  458.15  189.08
   1   2 -19   73.59  141.19
   2  -3 -19  -93.79  162.88
  -1  -2  19  188.18  188.38
  -2   3  19  -64.99  165.08
  -1  -3 -19  -88.79  194.78
   4  -1 -19  -46.60  161.88
  -3   4 -19   74.29  163.48
  -4   1  19   -4.20  171.08
   1   3  19  397.96  194.68
   7  -4 -19 -254.77  173.68
  -3   7 -19  560.74  173.78
  -4  -3 -19  217.38  205.58
  -7   4  19  183.68  210.68
   4   3  19  106.39  193.78
   4  -4 -19 -130.99  173.28
  -4   0 -19 -152.58  174.58
   0   4 -19  270.97  149.99
  -4   4  19 -196.48  174.28
   0  -4  19  -11.00  215.78
   1  -4 -19  252.57  188.18
  -4   3 -19  131.79  164.18
   3   1 -19  -62.59  145.29
  -1   4  19  167.68  175.68
  -3  -1  19   25.00  173.58
  -2  -4 -19  220.28  208.28
   6  -2 -19  -51.69  168.18
  -4   6 -19 -161.68  163.28
  -6   2  19  264.07  226.08
   2   4  19  179.48  181.38
   2   4  19  -93.19  197.38
  -4   9 -19  500.95  187.98
   9  -5 -19 -174.68  190.98
  -5  -4 -19  362.26  227.38
  -9   5  19   32.70  210.48
   5   4  19  270.77  190.68
   6  -5 -19   32.90  182.78
  -5  -1 -19 -282.57  193.78
  -1   6 -19  254.67  139.29
  -6   5  19  182.78  212.58
   2   3 -19  181.88  164.38
   3  -5 -19  148.99  187.58
  -5   2 -19   55.19  172.38
  -3   5  19   15.20  162.88
  -2  -3  19  110.09  184.18
  -5   5 -19   51.99  163.08
   0  -5 -19  278.47  213.38
   5   0 -19  140.09  164.78
   0   5  19  -29.60  184.28
  -5   0  19   75.69  196.68
   8  -3 -19   98.79  174.08
  -3  -5 -19   78.09  231.38
  -5   8 -19  237.98  175.98
  -3  -5 -19 -171.88  127.49
   3   5  19  468.25  215.18
   3   5  19  -21.80  173.28
  -8   3  19  104.19  204.38
   8  -6 -19  -12.10  203.48
  -2   8 -19  172.78  140.49
  -6  -2 -19  162.38  222.08
   6   2  19 -408.36  206.58
  -8   6  19  123.79  193.88
   5  -6 -19  -99.89  185.58
  -6   1 -19   71.79  192.58
   1   5 -19  196.38  153.88
  -5   6  19   72.99  207.78
  -1  -5  19 -120.19  201.38
  -6   4 -19  -36.20  167.98
   4   2 -19 -114.89  144.09
   2  -6 -19   -5.00  196.38
  -4  -2  19 -210.98  170.98
  -2   6  19 -332.87  165.58
   6  -4  19  226.58  144.09
  -1  -6 -19 -157.78  240.78
  -1  -6 -19  146.09  123.09
   7  -1 -19  115.19  169.18
  -6   7 -19  -22.30  162.58
   1   6  19   85.49  186.88
   6  -7  19  141.69  114.59
  -7   1  19 -197.28  212.28
   1   6  19  183.58  188.48
  -6  10 -19  122.99  192.98
  -4  -6 -19  156.68  137.59
  10  -4 -19   22.90  197.88
  -4  -6 -19  283.37  296.57
 -10   4  19  -29.50  211.28
   4   6  19  321.37  180.48
   4   6  19  188.88  217.98
  10  -7 -19  -90.89  222.58
  -3  10 -19  226.88  168.28
  -7  -3 -19   48.00  237.68
  -7  -3 -19  -86.39  139.09
 -10   7  19   94.19  208.18
   7   3  19  389.36  194.08
  -7   0 -19  377.06  204.08
   7  -7 -19  647.64  202.68
   0   7 -19  157.48  169.78
   0  -7  19  245.58  215.88
  -7   7  19  -58.69  194.68
   3   4 -19 -108.19  145.99
   4  -7 -19 -115.19  203.38
  -7   3 -19   52.19  171.18
   7  -3  19 -163.48  154.58
  -4   7  19 -100.69  206.18
  -3  -4  19  -90.99  195.58
  -7   6 -19  174.68  173.88
   1  -7 -19  150.68  126.09
   6   1 -19  120.59  148.89
   1  -7 -19   40.40  236.78
   7  -6  19   69.89  110.89
  -6  -1  19  366.06  216.88
  -1   7  19 -150.58  170.18
  -7   9 -19   57.09  171.08
   9  -2 -19  252.07  181.98
  -2  -7 -19  -99.29  128.89
   2   7  19 -293.87  183.18
  -9   2  19  -37.20  220.38
   2   7  19  218.98  197.98
   7  -9  19   -9.50  130.89
   9  -8 -19  108.59  248.28
  -1   9 -19  239.08  181.38
  -8  -1 -19   55.49  227.38
   8   1  19  294.77  217.78
  -9   8  19   20.30  195.88
   1  -9  19  195.18  242.48
  -8   2 -19  430.86  205.98
   6  -8 -19 -184.68  238.48
   2   6 -19   46.00  153.88
  -6   8  19  -23.10  201.68
   8  -2  19   85.39  152.88
  -2  -6  19   44.40  192.48
   3  -8 -19 -114.89  125.99
   5   3 -19  194.28  149.29
  -8   5 -19  299.37  165.58
  -5  -3  19   96.69  205.18
  -3   8  19  286.67  209.28
   8   0 -19   22.30  160.58
   0  -8 -19   72.69  127.19
  -8   8 -19 -129.19  172.98
   0   8  19 -108.89  199.98
  -8   0  19 -115.99  210.68
   8  -8  19    2.40  125.39
   1   8 -19  103.29  152.48
  -9   1 -19  150.38  219.78
  -1  -8  19   52.79  205.98
  -8   9  19 -155.38  198.68
   5  -9 -19  102.19  130.09
  -9   4 -19  145.69  189.28
   4   5 -19   65.59  156.78
  -5   9  19  232.38  213.18
   9  -4  19   28.60  111.39
  -4  -5  19  125.59  206.28
   7   2 -19  -79.49  167.08
   2  -9 -19  301.47  131.39
  -9   7 -19  384.86  175.38
  -2   9  19 -313.47  225.78
  -7  -2  19 -140.39  222.28
   9  -7  19    7.40  124.39
   7 -10 -19   98.59  133.09
   3   7 -19  269.47  162.68
 -10   3 -19  157.88  200.78
  -7  10  19  227.48  211.88
  10  -3  19  217.48  121.29
  -3  -7  19 -297.97  212.58
   4 -10 -19  114.99  134.79
 -10   6 -19  306.97  188.18
   6   4 -19   36.60  169.18
  -4  10  19   66.79  213.38
  -6  -4  19 -134.29  231.78
  10  -6  19  148.09  121.99
   1   0 -20  157.98  164.88
   0  -1 -20  -35.50  186.98
  -1   1 -20  182.38  180.68
   0   1  20 -116.89  194.98
   1  -1  20 -122.19  226.88
  -1   0  20   80.89  200.98
   0   2 -20 -270.47  160.58
   2  -2 -20  148.79  184.68
  -2   0 -20  125.19  195.48
  -2   2  20  281.77  198.68
   0  -2  20    8.30  211.58
  -2   3 -20  322.87  178.48
  -1  -2 -20  127.19  200.98
   3  -1 -20 -205.38  173.48
  -3   1  20   28.10  191.28
   1   2  20   90.09  208.08
   4  -3 -20  -47.40  187.88
  -3  -1 -20 -297.57  201.78
  -1   4 -20  245.88  155.08
  -4   3  20   68.79  196.18
   1  -4  20  -55.89  229.98
   2   1 -20   17.60  183.18
   1  -3 -20  308.27  194.58
  -3   2 -20 -214.68  184.98
  -1   3  20  126.29  186.38
  -2  -1  20   45.80  192.38
   5  -2 -20 -180.38  177.38
  -2  -3 -20  187.58  223.48
  -3   5 -20  168.28  174.58
   2   3  20  467.25  213.08
  -5   2  20 -317.57  220.98
   6  -4 -20  248.38  202.48
  -4  -2 -20  -12.60  221.78
  -2   6 -20  149.59  176.38
  -6   4  20  -42.50  222.48
   1   3 -20  -14.00  177.08
  -4   1 -20   88.09  195.68
   3  -4 -20 -247.68  195.08
  -1  -3  20   35.00  207.48
  -3   4  20 -112.99  187.08
   4   0 -20 -133.39  166.38
  -4   4 -20   14.30  176.38
   0  -4 -20 -173.58  208.68
   0   4  20   76.29  198.68
  -4   0  20  -48.80  195.48
  -5   0 -20   53.09  207.58
   0   5 -20  187.28  156.98
   5  -5 -20  100.59  197.88
   0  -5  20  140.69  220.58
  -5   5  20   10.00  211.48
   2  -5 -20 -222.68  210.88
  -5   3 -20   81.39  193.68
   3   2 -20  111.09  170.38
  -2   5  20  225.18  179.08
  -3  -2  20  170.08  200.18
  -5   6 -20  368.86  186.58
   6  -1 -20 -184.18  172.88
  -1  -5 -20  487.45  247.18
  -6   1  20  275.47  235.08
   1   5  20  163.28  204.38
   4  -6 -20  -87.09  207.38
   2   4 -20  200.68  149.39
  -6   2 -20 -113.69  191.78
  -4   6  20  146.29  232.28
  -2  -4  20  -52.19  198.58
  -6   5 -20  222.38  182.98
   1  -6 -20  193.88  232.58
   5   1 -20  175.78  167.68
  -1   6  20  -36.70  183.18
  -5  -1  20 -137.29  223.38
   0   0   0    0.00    0.00

_computing_structure_solution     'SHELXT 2018/2 (Sheldrick, 2018)'
;
_shelx_hkl_checksum              24959
_shelx_fab_file
;
-21 -2 -1 -39.4482 103.5351
-21 -1 -2 -15.0932 -20.1778
-21 -1 1 -3.1556 -14.6818
-21 -1 4 119.7295 105.2092
-20 -3 -2 -45.0827 -5.7628
-20 -3 1 76.7881 -65.9591
-20 -3 4 -10.3849 -13.0235
-20 -2 -6 -42.2003 -43.9447
-20 -2 -3 109.9115 -60.0281
-20 -2 0 55.6050 -44.4497
-20 -2 3 -36.0609 49.8194
-20 -2 6 27.3213 -91.0508
-20 -1 -7 -1.9136 -5.6959
-20 -1 -4 62.8192 17.0696
-20 -1 -1 141.9346 -56.6235
-20 -1 2 13.8480 -30.4414
-20 -1 5 12.0683 30.7262
-19 -5 -2 15.9817 -28.1747
-19 -5 1 -18.9558 -16.8660
-19 -4 -3 -7.4551 -34.0311
-19 -4 0 36.7109 25.7002
-19 -4 3 14.4692 -29.1659
-19 -3 -7 88.6357 -122.3141
-19 -3 -4 -65.2269 -34.3224
-19 -3 -1 -35.4827 -84.0750
-19 -3 2 12.7751 9.9449
-19 -3 5 -34.2655 -17.3975
-19 -2 -8 1.3497 1.0454
-19 -2 -5 -63.2974 -1.7142
-19 -2 -2 -101.1926 138.5743
-19 -2 1 -113.4171 105.7514
-19 -2 4 -7.2191 -61.8700
-19 -2 7 -19.3878 3.2541
-19 -1 -9 101.5538 -175.5241
-19 -1 -6 5.7384 30.1159
-19 -1 -3 2.0718 -16.2408
-19 -1 0 -64.9893 23.7069
-19 -1 3 -58.3229 -79.8965
-19 -1 6 22.5867 -111.2202
-19 -1 9 -3.5532 129.4088
-18 -6 -3 -54.0438 -65.6772
-18 -6 0 -15.9249 51.1359
-18 -6 3 -75.5831 12.3751
-18 -5 -4 24.0009 13.4719
-18 -5 -1 2.0382 -55.4237
-18 -5 2 -31.2255 34.0972
-18 -5 5 -131.3754 5.9256
-18 -4 -8 -29.9517 -28.4908
-18 -4 -5 -3.0246 58.3700
-18 -4 -2 112.1573 -6.4535
-18 -4 1 20.3684 50.1862
-18 -4 4 -22.2602 -17.3863
-18 -4 7 18.0166 42.3463
-18 -3 -9 -89.4541 28.6352
-18 -3 -6 45.6789 -32.1840
-18 -3 -3 -13.7512 24.6161
-18 -3 0 -158.6680 43.0760
-18 -3 3 -70.5145 -49.7930
-18 -3 6 43.6158 66.6791
-18 -3 9 78.3815 -6.6249
-18 -2 -10 -38.5283 4.5338
-18 -2 -7 50.6761 -23.1337
-18 -2 -4 -72.0853 41.7628
-18 -2 -1 94.7754 80.1435
-18 -2 2 -72.3735 96.8733
-18 -2 5 76.2989 158.3985
-18 -2 8 -53.0343 20.8997
-18 -1 -11 84.9284 -23.5055
-18 -1 -8 -227.2032 276.0432
-18 -1 -5 36.5630 27.8465
-18 -1 -2 -126.2971 113.8209
-18 -1 1 -24.9164 -269.4234
-18 -1 4 0.0924 -47.9020
-18 -1 7 -27.5144 -144.0756
-18 -1 10 -128.1006 55.8652
-17 -8 0 -32.6679 -118.4979
-17 -7 -4 69.3921 35.6550
-17 -7 -1 -48.9400 62.3937
-17 -7 2 -44.9039 48.8747
-17 -7 5 81.7639 -35.8441
-17 -6 -5 -19.8669 26.7538
-17 -6 -2 28.4164 43.4481
-17 -6 1 111.6011 126.9598
-17 -6 4 78.3465 -62.7142
-17 -6 7 97.8170 -18.2626
-17 -5 -6 42.2664 -31.2766
-17 -5 -3 -27.1318 111.8581
-17 -5 0 -23.4200 62.8287
-17 -5 3 145.6253 86.2528
-17 -5 6 -35.8768 6.7231
-17 -4 -10 109.0439 -103.0045
-17 -4 -7 2.0060 74.1936
-17 -4 -4 11.6575 -35.0940
-17 -4 -1 -12.3277 47.3223
-17 -4 2 173.0090 66.4736
-17 -4 5 20.6680 -39.5228
-17 -4 8 -14.7040 25.0965
-17 -3 -11 -21.1780 23.8340
-17 -3 -8 -14.6006 52.6357
-17 -3 -5 -83.7198 -16.2853
-17 -3 -2 3.2565 6.6078
-17 -3 1 28.6262 110.0426
-17 -3 4 29.3436 -33.0412
-17 -3 7 70.3205 103.2932
-17 -3 10 -41.6600 22.6949
-17 -2 -9 19.2517 158.6512
-17 -2 -6 -116.5691 122.1675
-17 -2 -3 6.1357 39.2996
-17 -2 0 67.6895 -256.1315
-17 -2 3 18.5626 -82.0992
-17 -2 6 -2.7300 103.7732
-17 -2 9 -57.9320 -202.4119
-17 -1 -10 -264.3218 -143.6710
-17 -1 -7 -156.2827 -226.3727
-17 -1 -4 56.9403 0.2026
-17 -1 -1 169.5471 -79.3769
-17 -1 2 -48.4545 -148.9528
-17 -1 5 -5.2582 -73.0453
-17 -1 8 -379.4304 -212.0425
-17 -1 11 25.3958 -70.0037
-16 -9 -1 26.3866 79.8016
-16 -9 2 -86.0837 -25.8825
-16 -8 -5 17.5009 -86.6712
-16 -8 -2 -52.4137 -57.4928
-16 -8 1 -13.6631 -182.1547
-16 -8 4 -14.3250 -58.1361
-16 -7 -6 -9.6424 24.2653
-16 -7 -3 71.7175 -7.3618
-16 -7 0 -71.5755 -8.7660
-16 -7 3 111.3684 16.4404
-16 -7 6 78.6071 54.1516
-16 -6 -7 -24.1760 -61.5631
-16 -6 -4 36.5828 -44.7495
-16 -6 -1 30.6302 -99.3544
-16 -6 2 -60.4125 -37.0313
-16 -6 5 14.0897 -63.0135
-16 -6 8 105.8122 -94.9425
-16 -5 -8 128.8337 183.0499
-16 -5 -5 22.4757 -58.6950
-16 -5 -2 -4.6217 -16.1798
-16 -5 1 117.6289 -265.0424
-16 -5 4 -96.8565 -36.3962
-16 -5 7 -187.7741 6.5463
-16 -5 10 50.6914 -149.6316
-16 -4 -9 64.0709 -85.1920
-16 -4 -6 62.9875 48.5049
-16 -4 -3 44.7564 -35.9653
-16 -4 0 130.7648 38.5314
-16 -4 3 119.5469 38.5488
-16 -4 6 62.5680 130.8500
-16 -4 9 53.9310 133.5761
-16 -3 -10 50.0104 91.7856
-16 -3 -7 102.0960 -7.9091
-16 -3 -4 126.8410 -56.2565
-16 -3 -1 -137.8770 -194.1475
-16 -3 2 -187.3768 85.2343
-16 -3 5 140.9009 44.7757
-16 -3 8 214.6427 69.9423
-16 -3 11 -42.9167 -38.0468
-16 -2 -11 49.8407 81.8324
-16 -2 -8 114.7762 -103.2628
-16 -2 -5 -8.8085 110.3077
-16 -2 -2 106.0460 -134.2903
-16 -2 1 169.7374 72.8497
-16 -2 4 8.8857 58.6956
-16 -2 7 175.2642 -72.3883
-16 -2 10 -23.4837 186.7429
-16 -2 13 -47.9041 21.0250
-16 -1 -12 -17.9456 4.8779
-16 -1 -9 134.5885 339.8053
-16 -1 -6 -76.4763 -66.6881
-16 -1 -3 -45.9575 114.3470
-16 -1 0 -659.1291 679.1857
-16 -1 3 -47.8039 163.0224
-16 -1 6 -186.1053 -35.6236
-16 -1 9 115.7529 224.1720
-16 -1 12 -62.8154 57.1766
-15 -10 -2 -1.4880 -106.0697
-15 -10 1 -16.7412 125.4489
-15 -9 -6 36.7903 38.0104
-15 -9 -3 -27.3254 3.7838
-15 -9 0 62.4224 -5.7978
-15 -9 3 9.1207 -74.1456
-15 -9 6 0.9842 4.8409
-15 -8 -7 -4.9953 -108.8209
-15 -8 -4 -69.7151 31.0759
-15 -8 -1 -0.0612 67.5317
-15 -8 2 -39.0987 -197.5306
-15 -8 5 -50.4396 16.7432
-15 -8 8 -159.8786 19.4672
-15 -7 -8 89.1291 -13.6378
-15 -7 -5 28.4998 108.2657
-15 -7 -2 -75.6182 24.2811
-15 -7 1 -138.4660 54.2891
-15 -7 4 118.1812 65.6289
-15 -7 7 -35.0263 57.2095
-15 -6 -9 53.5618 7.1007
-15 -6 -6 -78.7909 56.4386
-15 -6 -3 -77.9174 56.3705
-15 -6 0 -48.4064 68.0975
-15 -6 3 -139.9950 -53.8796
-15 -6 6 -33.4680 -72.2656
-15 -6 9 -54.0847 -75.6587
-15 -5 -10 -28.6853 100.8365
-15 -5 -7 -102.7252 -69.6352
-15 -5 -4 26.1728 -95.8299
-15 -5 -1 63.9875 52.5635
-15 -5 2 -142.9982 30.7444
-15 -5 5 -2.7247 10.1250
-15 -5 8 -121.3419 -70.6700
-15 -5 11 131.5174 123.7312
-15 -4 -11 -32.8917 68.6426
-15 -4 -8 6.7347 45.6254
-15 -4 -5 121.6390 138.2047
-15 -4 -2 -365.2604 -76.6527
-15 -4 1 -137.0992 -217.2538
-15 -4 4 -221.4060 12.3164
-15 -4 7 12.1910 -223.9008
-15 -4 10 -50.7266 48.8877
-15 -3 -12 -18.7005 -67.4655
-15 -3 -9 -343.0403 -357.5146
-15 -3 -6 129.5854 -71.6835
-15 -3 -3 75.4435 6.3917
-15 -3 0 179.4902 355.6602
-15 -3 3 161.6897 -85.8381
-15 -3 6 -120.6354 -109.6986
-15 -3 9 185.9176 -235.4536
-15 -3 12 53.7904 -20.6511
-15 -2 -13 -61.0091 68.5840
-15 -2 -10 99.0736 -128.3129
-15 -2 -7 31.7389 -247.1101
-15 -2 -4 42.4881 57.6951
-15 -2 -1 163.1741 -129.3185
-15 -2 2 -1.3045 -299.0890
-15 -2 5 41.4805 -2.5095
-15 -2 8 270.1915 374.6759
-15 -2 11 62.2340 -95.5561
-15 -2 14 34.4392 -17.6999
-15 -1 -14 37.9815 -53.9874
-15 -1 -11 -74.3654 -244.3674
-15 -1 -8 197.1322 110.3686
-15 -1 -5 65.8567 -26.4560
-15 -1 -2 -366.0450 -440.6656
-15 -1 1 -162.6899 -667.3299
-15 -1 4 -32.2683 33.7029
-15 -1 7 -253.4016 -511.5519
-15 -1 10 101.9021 -175.0951
-15 -1 13 35.5159 -5.7094
-14 -11 -3 -16.1229 -11.8728
-14 -11 0 -42.4274 28.4852
-14 -11 3 8.1859 -81.4145
-14 -10 -4 -24.6509 -55.3045
-14 -10 -1 -1.8242 121.4294
-14 -10 2 82.5680 110.1887
-14 -10 5 -61.4458 -49.1090
-14 -9 -8 -27.0732 68.8835
-14 -9 -5 33.0537 29.3749
-14 -9 -2 -28.3259 -33.5728
-14 -9 1 288.3368 277.5879
-14 -9 4 -116.2998 31.2899
-14 -9 7 97.9002 -51.8579
-14 -8 -9 -62.1563 -88.2292
-14 -8 -6 -9.6079 -213.2763
-14 -8 -3 47.0506 8.8125
-14 -8 0 -35.2378 -223.4167
-14 -8 3 -160.5559 -16.0094
-14 -8 6 12.3769 -10.6647
-14 -8 9 -7.3265 296.9938
-14 -7 -10 -50.2367 12.3603
-14 -7 -7 -48.0943 -80.7563
-14 -7 -4 66.4575 11.1234
-14 -7 -1 132.6253 69.6245
-14 -7 2 -210.0052 -185.0005
-14 -7 5 78.9076 3.1048
-14 -7 8 86.2155 37.2009
-14 -7 11 -124.4192 -94.4229
-14 -6 -11 -8.1411 50.2249
-14 -6 -8 61.1730 -45.2822
-14 -6 -5 -65.6527 -334.8186
-14 -6 -2 18.0891 -10.4334
-14 -6 1 278.5088 89.1251
-14 -6 4 -205.0343 89.5865
-14 -6 7 -165.7950 -64.7155
-14 -6 10 -112.0899 -73.6916
-14 -5 -12 28.8522 -104.5051
-14 -5 -9 -58.1846 114.0371
-14 -5 -6 88.2055 174.9137
-14 -5 -3 48.0381 39.0216
-14 -5 0 31.6267 -65.1016
-14 -5 3 416.0882 8.8281
-14 -5 6 76.7168 14.2278
-14 -5 9 -138.2508 288.5458
-14 -5 12 228.2123 3.6772
-14 -4 -13 8.9555 -162.8303
-14 -4 -10 -43.4437 -144.7265
-14 -4 -7 1.2312 136.4847
-14 -4 -4 -110.6725 0.1535
-14 -4 -1 0.7440 -275.1836
-14 -4 2 -351.9669 1.0428
-14 -4 5 -128.1740 37.7775
-14 -4 8 -491.2012 -318.7705
-14 -4 11 -16.9926 37.5426
-14 -3 -14 118.9636 -31.1633
-14 -3 -11 87.8251 195.9418
-14 -3 -8 151.1260 -297.4838
-14 -3 -5 -17.3705 -233.0751
-14 -3 -2 187.6737 259.8227
-14 -3 1 138.2805 172.1856
-14 -3 4 193.3938 -18.5944
-14 -3 7 130.1836 518.9093
-14 -3 10 -393.5124 -377.2251
-14 -3 13 19.5678 -54.3484
-14 -2 -15 50.4982 -55.3180
-14 -2 -12 25.2437 -21.2435
-14 -2 -9 -234.3093 620.0222
-14 -2 -6 -125.0950 11.2687
-14 -2 -3 -66.4847 -125.7527
-14 -2 0 17.7677 -447.0453
-14 -2 3 63.7103 85.3927
-14 -2 6 -74.9359 -26.6401
-14 -2 9 208.2287 159.5913
-14 -2 12 -90.6696 98.4136
-14 -2 15 -28.1437 -51.4568
-14 -1 -13 9.8857 0.7150
-14 -1 -10 -393.8482 -535.7805
-14 -1 -7 -318.4895 434.6960
-14 -1 -4 26.5995 137.7860
-14 -1 -1 -476.8447 900.0858
-14 -1 2 -128.8803 525.1633
-14 -1 5 48.7045 -44.9359
-14 -1 8 -693.3698 -556.5445
-14 -1 11 10.0639 234.5326
-14 -1 14 -14.3550 -4.1137
-13 -12 -4 57.6780 -4.0559
-13 -12 -1 -40.6970 2.3828
-13 -12 2 -20.8961 -31.7139
-13 -11 -5 -38.0207 2.0612
-13 -11 -2 7.4198 -41.6026
-13 -11 1 38.4185 -88.2135
-13 -11 4 36.1193 69.1689
-13 -11 7 2.8581 13.3674
-13 -10 -6 78.8965 31.3859
-13 -10 -3 -118.9995 51.3525
-13 -10 0 15.0702 -120.3891
-13 -10 3 91.1465 82.8417
-13 -10 6 -68.0329 -79.6939
-13 -9 -10 -51.4815 70.3454
-13 -9 -7 49.8129 92.7755
-13 -9 -4 -76.1782 59.3009
-13 -9 -1 104.8249 115.3044
-13 -9 2 51.0918 152.8231
-13 -9 5 -83.6004 80.7695
-13 -9 8 84.9218 -121.2706
-13 -8 -11 102.0581 -6.4901
-13 -8 -8 157.9456 82.6879
-13 -8 -5 -216.2824 -8.2853
-13 -8 -2 -21.5111 19.6834
-13 -8 1 -121.4673 -234.4713
-13 -8 4 137.3130 129.0261
-13 -8 7 44.7051 -4.0624
-13 -8 10 29.2287 245.2163
-13 -7 -12 -149.0758 113.9904
-13 -7 -9 -25.3079 -76.0739
-13 -7 -6 -4.3816 159.3288
-13 -7 -3 47.7178 13.5393
-13 -7 0 -140.8601 120.6447
-13 -7 3 474.2112 84.0982
-13 -7 6 -6.2657 47.7850
-13 -7 9 280.9204 -146.4008
-13 -7 12 -185.7305 -197.1988
-13 -6 -13 55.3184 115.7751
-13 -6 -10 31.7925 -18.4420
-13 -6 -7 -203.5933 -246.1097
-13 -6 -4 -190.5354 92.0290
-13 -6 -1 -35.1193 23.3472
-13 -6 2 -276.0287 114.2335
-13 -6 5 -22.2745 98.8421
-13 -6 8 121.6698 51.5781
-13 -6 11 -14.7935 110.3893
-13 -5 -14 -219.5935 17.2125
-13 -5 -11 -45.9016 -53.3461
-13 -5 -8 -18.9603 133.8284
-13 -5 -5 -275.1385 0.6772
-13 -5 -2 -172.2716 274.8678
-13 -5 1 -60.1687 -109.3811
-13 -5 4 -384.2195 35.8036
-13 -5 7 79.8374 -70.5909
-13 -5 10 21.5846 28.4514
-13 -5 13 -88.2767 58.8683
-13 -4 -12 61.7982 82.4468
-13 -4 -9 -20.8084 -163.2381
-13 -4 -6 -52.1991 107.0983
-13 -4 -3 44.4935 -112.8792
-13 -4 0 -97.7148 499.1842
-13 -4 3 54.6533 175.5020
-13 -4 6 122.2040 30.7230
-13 -4 9 219.5781 23.8673
-13 -4 12 -114.5222 33.1938
-13 -3 -13 -26.9556 5.6850
-13 -3 -10 149.6466 308.8404
-13 -3 -7 84.4612 -314.5877
-13 -3 -4 -71.2977 -6.5092
-13 -3 -1 274.2066 -80.0388
-13 -3 2 80.6817 134.8818
-13 -3 5 -42.4489 -244.9871
-13 -3 8 241.0550 491.4712
-13 -3 11 103.1474 -120.6148
-13 -3 14 -112.4597 -66.9333
-13 -2 -14 -52.6626 55.3091
-13 -2 -11 212.4748 3.5004
-13 -2 -8 263.2925 -266.9170
-13 -2 -5 11.9543 80.8761
-13 -2 -2 166.1675 475.3567
-13 -2 1 280.7702 162.0492
-13 -2 4 39.8637 -85.6509
-13 -2 7 315.9037 -40.9744
-13 -2 10 -313.0590 551.5012
-13 -2 13 63.0484 15.0501
-13 -1 -15 3.9849 11.3231
-13 -1 -12 -25.3910 33.1241
-13 -1 -9 -288.7804 -641.6828
-13 -1 -6 36.6281 60.8777
-13 -1 -3 -108.6307 -249.0294
-13 -1 0 -87.6992 -807.3844
-13 -1 3 -120.4888 -1.2006
-13 -1 6 -137.8033 140.9232
-13 -1 9 -234.2452 -659.4832
-13 -1 12 -19.5459 -25.9702
-13 -1 15 99.7605 55.6193
-12 -12 -6 -15.7006 -34.7368
-12 -12 -3 112.1260 13.5788
-12 -12 0 -62.1749 -47.6220
-12 -11 -7 21.1136 27.2460
-12 -11 -4 -216.1521 -59.9572
-12 -11 -1 37.7819 118.1260
-12 -11 2 -43.1060 -37.4129
-12 -11 5 -122.6528 -47.7410
-12 -11 8 20.4663 68.1597
-12 -10 -8 -26.7960 -113.7185
-12 -10 -5 125.0482 13.2270
-12 -10 -2 -21.3881 -117.0635
-12 -10 1 -48.4745 -100.7361
-12 -10 4 261.8712 -66.0984
-12 -10 7 -37.4963 80.7208
-12 -10 10 56.9821 -66.4039
-12 -9 -9 73.8553 -71.6637
-12 -9 -6 -127.7020 -17.3724
-12 -9 -3 169.1527 8.1840
-12 -9 0 -58.5402 -86.4434
-12 -9 3 -406.2256 -25.5887
-12 -9 6 51.5649 -22.0697
-12 -9 9 -42.8396 -297.4060
-12 -8 -10 53.8989 -95.4227
-12 -8 -7 70.4544 114.1952
-12 -8 -4 207.1554 35.5195
-12 -8 -1 113.2011 -119.1550
-12 -8 2 360.8877 318.3528
-12 -8 5 -160.0741 136.6300
-12 -8 8 -19.6378 127.0356
-12 -8 11 255.5855 201.3873
-12 -7 -11 -13.4838 -0.7913
-12 -7 -8 -64.6232 -32.9586
-12 -7 -5 278.4922 120.6667
-12 -7 -2 -139.7974 -28.3400
-12 -7 1 -93.1567 72.9608
-12 -7 4 368.3200 -797.3356
-12 -7 7 18.6506 62.2446
-12 -7 10 -121.4195 -52.3379
-12 -7 13 168.9654 107.8756
-12 -6 -12 33.3741 -91.3863
-12 -6 -9 0.7753 97.1586
-12 -6 -6 -7.2989 328.3115
-12 -6 -3 -68.4474 93.1613
-12 -6 0 14.4777 -91.2418
-12 -6 3 -144.3016 312.8087
-12 -6 6 -89.5667 100.1580
-12 -6 9 41.4381 -69.1281
-12 -6 12 -198.6055 33.9449
-12 -5 -13 -29.1665 124.3268
-12 -5 -10 27.5589 4.4714
-12 -5 -7 -65.8901 148.3970
-12 -5 -4 252.7227 -165.6296
-12 -5 -1 212.5725 -10.6383
-12 -5 2 186.0400 -263.0604
-12 -5 5 240.8547 156.5454
-12 -5 8 -138.4513 -208.2533
-12 -5 11 218.2623 -150.1875
-12 -5 14 -1.6396 10.5909
-12 -4 -14 -116.9952 61.5073
-12 -4 -11 -62.1796 -136.4026
-12 -4 -8 147.9910 106.1257
-12 -4 -5 -125.6904 144.8861
-12 -4 -2 -315.0420 -271.8169
-12 -4 1 181.5224 -220.9016
-12 -4 4 -135.5761 187.2612
-12 -4 7 -15.1357 -193.1855
-12 -4 10 137.5936 -147.3116
-12 -4 13 1.4645 38.3785
-12 -3 -15 -20.9530 -32.9486
-12 -3 -12 -35.2308 -67.2786
-12 -3 -9 -171.1557 426.4466
-12 -3 -6 20.4884 35.2920
-12 -3 -3 -71.4502 -17.8072
-12 -3 0 283.5274 317.8268
-12 -3 3 145.1284 -237.5153
-12 -3 6 -152.1360 -109.9979
-12 -3 9 145.9167 286.0713
-12 -3 12 -25.2653 -74.7817
-12 -3 15 79.1161 29.4749
-12 -2 -16 -15.5432 -2.1654
-12 -2 -13 -62.3211 15.5504
-12 -2 -10 147.3886 -264.7621
-12 -2 -7 51.1521 78.1512
-12 -2 -4 19.2566 -7.8981
-12 -2 -1 96.8485 -660.0770
-12 -2 2 -634.2625 229.9079
-12 -2 5 27.7926 -74.8995
-12 -2 8 110.6860 -266.4878
-12 -2 11 115.4572 41.5708
-12 -2 14 -123.2556 -26.2703
-12 -1 -17 17.5033 -81.9167
-12 -1 -14 -4.2369 102.3971
-12 -1 -11 -57.9888 139.6939
-12 -1 -8 75.3240 -207.6929
-12 -1 -5 16.8348 -127.1589
-12 -1 -2 -43.5448 524.1160
-12 -1 1 -27.0271 -699.6406
-12 -1 4 -95.0868 -40.6123
-12 -1 7 152.0393 206.9594
-12 -1 10 37.3881 368.7320
-12 -1 13 50.5553 -9.5943
-12 -1 16 -34.7817 4.8926
-11 -11 -9 -85.0541 -11.5130
-11 -11 -6 -40.5321 41.9351
-11 -11 -3 -45.6496 126.0764
-11 -11 0 86.5332 -192.9674
-11 -10 -10 -51.3500 93.5617
-11 -10 -7 -98.7372 -90.8612
-11 -10 -4 320.6099 -103.3689
-11 -10 -1 -196.1728 176.6075
-11 -10 2 -202.2231 -93.7809
-11 -10 5 340.9356 -92.1380
-11 -10 8 -37.4260 -105.8784
-11 -10 11 -90.0044 -50.1550
-11 -9 -11 75.5695 85.1985
-11 -9 -8 1.7624 231.8590
-11 -9 -5 -311.1029 116.3157
-11 -9 -2 -36.0264 -103.0881
-11 -9 1 291.3632 486.7667
-11 -9 4 -485.5156 140.9393
-11 -9 7 1.2465 -23.7786
-11 -9 10 19.4559 -271.1892
-11 -8 -12 127.3374 -72.3673
-11 -8 -9 28.8954 -121.9368
-11 -8 -6 187.9289 174.1068
-11 -8 -3 31.4710 135.8349
-11 -8 0 263.5346 -189.3374
-11 -8 3 77.6217 315.9794
-11 -8 6 -155.7312 96.1200
-11 -8 9 -53.9045 89.4938
-11 -8 12 199.0262 114.5287
-11 -7 -13 -104.2784 198.0652
-11 -7 -10 -5.5179 32.5775
-11 -7 -7 -72.4791 -242.8311
-11 -7 -4 388.0853 -171.0097
-11 -7 -1 98.6004 17.9080
-11 -7 2 -302.9254 -358.2190
-11 -7 5 457.6497 -187.1459
-11 -7 8 118.5642 5.8143
-11 -7 11 -166.8695 -44.4483
-11 -7 14 -139.8303 2.9795
-11 -6 -14 243.1497 -45.9129
-11 -6 -11 -39.3987 -79.7015
-11 -6 -8 9.4870 -60.1557
-11 -6 -5 -175.2593 -649.0830
-11 -6 -2 105.3454 33.2794
-11 -6 1 -11.2871 -342.9959
-11 -6 4 -285.8886 -605.4357
-11 -6 7 -22.7400 -44.3248
-11 -6 10 105.3777 65.9015
-11 -6 13 189.3380 -165.3592
-11 -5 -15 48.6737 71.9065
-11 -5 -12 -31.0701 -34.4910
-11 -5 -9 16.4339 72.6696
-11 -5 -6 284.9108 131.2986
-11 -5 -3 -55.2553 158.5515
-11 -5 0 -394.8556 334.0087
-11 -5 3 163.9697 193.0922
-11 -5 6 -27.3918 96.9564
-11 -5 9 -117.0786 232.0023
-11 -5 12 7.5260 74.8251
-11 -5 15 33.9785 30.7431
-11 -4 -16 10.4467 10.6387
-11 -4 -13 38.4720 27.3694
-11 -4 -10 -11.7946 -130.3433
-11 -4 -7 -154.2881 190.7458
-11 -4 -4 357.4701 384.5810
-11 -4 -1 -301.9279 -424.7002
-11 -4 2 111.1316 81.5820
-11 -4 5 38.1107 -51.4919
-11 -4 8 -249.3276 13.8830
-11 -4 11 -35.2192 16.6321
-11 -4 14 -19.3355 0.1893
-11 -3 -14 -66.1326 -74.8692
-11 -3 -11 -57.7377 327.7535
-11 -3 -8 58.3045 113.3518
-11 -3 -5 2.7448 117.1834
-11 -3 -2 -214.4834 -284.0681
-11 -3 1 -55.5779 508.1796
-11 -3 4 -211.6807 62.9775
-11 -3 7 -177.5609 4.2518
-11 -3 10 -191.5816 -336.7214
-11 -3 13 -122.4254 -76.9891
-11 -3 16 -22.1301 6.6431
-11 -2 -15 43.6435 1.9894
-11 -2 -12 74.8817 -19.8510
-11 -2 -9 63.9649 295.2736
-11 -2 -6 -35.7525 -27.2980
-11 -2 -3 -205.1221 37.9769
-11 -2 0 346.4227 18.4219
-11 -2 3 223.9287 -101.6365
-11 -2 6 -176.7768 81.6837
-11 -2 9 251.7952 82.4281
-11 -2 12 119.4487 -143.6819
-11 -2 15 -8.1075 13.6577
-11 -1 -16 -24.6392 -31.6134
-11 -1 -13 -20.9704 20.4731
-11 -1 -10 -59.0068 -145.4798
-11 -1 -7 -176.2388 -189.5718
-11 -1 -4 79.6339 -249.8973
-11 -1 -1 34.3910 -181.6315
-11 -1 2 -208.7940 -156.7403
-11 -1 5 58.7402 24.5777
-11 -1 8 -434.0939 -350.1338
-11 -1 11 -284.5974 -99.2536
-11 -1 14 -83.4094 242.4701
-11 -1 17 -15.7029 42.0377
-10 -10 -12 -225.4293 48.9993
-10 -10 -9 74.6540 223.2336
-10 -10 -6 403.0295 -129.0357
-10 -10 -3 438.0675 -411.2757
-10 -10 0 -118.5088 199.3034
-10 -9 -13 252.0457 1.2157
-10 -9 -10 -51.6844 68.3562
-10 -9 -7 -128.7779 -5.6728
-10 -9 -4 -623.0465 55.4053
-10 -9 -1 -25.1127 -240.3502
-10 -9 2 -245.2543 -227.4945
-10 -9 5 -568.3157 -91.8892
-10 -9 8 -49.2646 78.8039
-10 -9 11 -150.1304 -41.0497
-10 -8 -14 -48.1594 127.0181
-10 -8 -11 94.3266 88.5666
-10 -8 -8 64.2340 -112.4343
-10 -8 -5 372.1315 155.0641
-10 -8 -2 -78.4444 -114.2845
-10 -8 1 -56.8974 145.6863
-10 -8 4 433.1781 98.6881
-10 -8 7 38.6137 -71.9745
-10 -8 10 -147.4130 -106.9765
-10 -8 13 -79.5053 130.3147
-10 -7 -15 96.2422 71.4293
-10 -7 -12 -33.3437 59.4582
-10 -7 -9 -31.5677 -44.8625
-10 -7 -6 -365.8110 -350.7623
-10 -7 -3 -48.7515 87.8774
-10 -7 0 76.5495 25.5900
-10 -7 3 112.6612 248.0329
-10 -7 6 -23.6728 -64.0759
-10 -7 9 -59.3892 -13.8975
-10 -7 12 -158.4390 49.1872
-10 -7 15 83.4509 -30.9266
-10 -6 -16 -18.5044 -30.2917
-10 -6 -13 70.4183 -206.3711
-10 -6 -10 -6.5900 -76.8236
-10 -6 -7 158.2382 57.4264
-10 -6 -4 -17.6997 -43.0896
-10 -6 -1 76.8419 -87.0874
-10 -6 2 10.4369 -196.2182
-10 -6 5 27.3341 79.3094
-10 -6 8 106.3426 -55.5860
-10 -6 11 78.2711 -20.6972
-10 -6 14 -33.2665 -40.1617
-10 -5 -14 56.7474 14.6765
-10 -5 -11 126.5763 16.0868
-10 -5 -8 -19.7464 -94.5307
-10 -5 -5 51.8833 -65.2611
-10 -5 -2 349.6759 11.0365
-10 -5 1 -245.7757 101.7563
-10 -5 4 -249.4244 129.1074
-10 -5 7 261.9080 152.5295
-10 -5 10 -107.9548 45.8498
-10 -5 13 37.6163 -9.3209
-10 -5 16 -49.3352 -59.8054
-10 -4 -15 -59.5970 -42.6189
-10 -4 -12 170.4038 -71.4975
-10 -4 -9 -347.2858 12.8288
-10 -4 -6 -3.6633 33.3425
-10 -4 -3 341.5254 -259.7638
-10 -4 0 -189.6632 415.3328
-10 -4 3 170.4525 -136.2233
-10 -4 6 -237.2306 54.0759
-10 -4 9 28.5876 -123.9629
-10 -4 12 -108.0832 3.1543
-10 -4 15 123.4805 147.7970
-10 -3 -16 29.5891 41.7868
-10 -3 -13 8.2899 -179.2371
-10 -3 -10 -87.9374 104.8655
-10 -3 -7 179.5917 -26.2420
-10 -3 -4 129.0485 -270.6696
-10 -3 -1 18.6154 2.2000
-10 -3 2 79.4583 -102.2341
-10 -3 5 -2.1866 127.1112
-10 -3 8 223.7995 153.6838
-10 -3 11 -114.7513 41.5457
-10 -3 14 -63.1846 -145.7253
-10 -3 17 -67.4280 116.2746
-10 -2 -17 -28.3907 -47.9919
-10 -2 -14 138.2674 52.1092
-10 -2 -11 170.1887 23.2935
-10 -2 -8 -37.2055 6.0114
-10 -2 -5 167.9987 -31.0339
-10 -2 -2 19.0120 520.6392
-10 -2 1 -264.5156 -82.2608
-10 -2 4 260.1697 316.7385
-10 -2 7 123.7044 102.9402
-10 -2 10 -227.6949 21.4257
-10 -2 13 331.5022 308.0734
-10 -2 16 17.7241 -51.4817
-10 -1 -18 50.4840 -130.1994
-10 -1 -15 -29.5711 79.9351
-10 -1 -12 -37.6651 33.4176
-10 -1 -9 -19.4301 9.0182
-10 -1 -6 88.6648 -7.7948
-10 -1 -3 47.8808 196.2527
-10 -1 0 -128.8547 48.5603
-10 -1 3 58.3633 -43.9632
-10 -1 6 80.1912 100.6665
-10 -1 9 -34.4205 142.1194
-10 -1 12 141.9039 -23.2770
-10 -1 15 76.5995 -49.1034
-10 -1 18 -11.9658 -59.7983
-9 -9 -12 190.9956 -361.6420
-9 -9 -9 -103.1926 42.7886
-9 -9 -6 13.7367 183.6037
-9 -9 -3 -241.3253 140.5746
-9 -9 0 -9.2890 114.1138
-9 -8 -13 -287.2465 -56.2891
-9 -8 -10 68.6862 127.0908
-9 -8 -7 96.6186 -269.5910
-9 -8 -4 263.9070 107.1087
-9 -8 -1 -92.8298 31.9623
-9 -8 2 -3.5864 128.2646
-9 -8 5 -293.8168 191.6881
-9 -8 8 -11.9648 -19.1649
-9 -8 11 25.7863 56.3338
-9 -8 14 -42.7158 59.5974
-9 -7 -14 -9.4644 -262.2417
-9 -7 -11 -28.5306 -24.5461
-9 -7 -8 -43.8970 107.7000
-9 -7 -5 -258.2129 2.6662
-9 -7 -2 49.7866 -105.5695
-9 -7 1 -40.9348 -25.9677
-9 -7 4 304.3254 35.8068
-9 -7 7 -42.4322 21.5587
-9 -7 10 45.7823 -127.3824
-9 -7 13 15.1529 50.8811
-9 -7 16 -6.0024 27.4954
-9 -6 -15 -33.4943 1.1628
-9 -6 -12 37.4836 -89.9050
-9 -6 -9 177.6588 -157.5419
-9 -6 -6 57.7088 103.5733
-9 -6 -3 -219.0343 -248.0195
-9 -6 0 39.5212 -68.3180
-9 -6 3 186.0920 26.2300
-9 -6 6 94.9894 150.4533
-9 -6 9 -155.8155 59.2406
-9 -6 12 66.6037 36.0176
-9 -6 15 -16.3934 74.0522
-9 -5 -16 -35.9067 21.6836
-9 -5 -13 30.8606 475.5417
-9 -5 -10 -38.8860 85.3765
-9 -5 -7 27.0179 -44.7552
-9 -5 -4 -434.9709 -98.5071
-9 -5 -1 -29.3409 154.1691
-9 -5 2 -215.0400 23.7687
-9 -5 5 6.9159 -177.9834
-9 -5 8 -231.1238 59.0491
-9 -5 11 2.2437 -15.3529
-9 -5 14 198.1307 101.9325
-9 -5 17 -27.4801 -120.2598
-9 -4 -17 -6.6418 -33.3440
-9 -4 -14 94.0092 -101.7069
-9 -4 -11 -10.4428 -80.1323
-9 -4 -8 30.7466 -95.2267
-9 -4 -5 -457.4170 20.9473
-9 -4 -2 -103.0290 326.7718
-9 -4 1 29.0337 -211.7400
-9 -4 4 -22.5831 -226.0199
-9 -4 7 370.7802 -183.2170
-9 -4 10 -112.4843 -67.8963
-9 -4 13 119.2353 -177.7641
-9 -4 16 31.0856 14.3221
-9 -3 -18 -85.1109 46.6274
-9 -3 -15 144.9006 13.2249
-9 -3 -12 -175.3236 -104.5077
-9 -3 -9 186.0184 -8.7574
-9 -3 -6 -120.1476 -218.8596
-9 -3 -3 248.2346 -259.9055
-9 -3 0 84.4240 -165.4299
-9 -3 3 155.9655 184.2539
-9 -3 6 -314.1542 -199.5173
-9 -3 9 85.9921 -89.2447
-9 -3 12 -56.0908 418.4074
-9 -3 15 -210.3074 -35.9260
-9 -3 18 30.0329 53.5270
-9 -2 -16 -56.7357 26.8945
-9 -2 -13 -200.4917 347.4141
-9 -2 -10 348.6379 -282.8823
-9 -2 -7 -18.7313 -225.6402
-9 -2 -4 204.7601 503.9887
-9 -2 -1 5.3587 -266.4025
-9 -2 2 -80.1819 -65.3635
-9 -2 5 -266.8759 32.7417
-9 -2 8 102.2645 -124.4462
-9 -2 11 -40.9681 -129.7122
-9 -2 14 71.1858 -144.9027
-9 -2 17 88.9714 -88.2890
-9 -1 -17 62.1174 104.6201
-9 -1 -14 57.4831 53.5970
-9 -1 -11 -36.3727 -215.4421
-9 -1 -8 254.6537 4.1772
-9 -1 -5 291.0871 379.8269
-9 -1 -2 37.5442 182.0652
-9 -1 1 -39.6695 -73.6428
-9 -1 4 -33.4503 36.5664
-9 -1 7 13.3064 31.1640
-9 -1 10 236.2780 -92.3937
-9 -1 13 -51.0157 -66.5981
-9 -1 16 -15.7241 77.4292
-8 -8 -15 85.0859 -63.9860
-8 -8 -12 -106.1574 -53.0855
-8 -8 -9 104.7806 354.1152
-8 -8 -6 40.5028 -78.6690
-8 -8 -3 -28.5815 -2.3858
-8 -8 0 38.9325 52.1974
-8 -7 -16 13.8179 35.1094
-8 -7 -13 72.5424 214.0082
-8 -7 -10 -53.9331 -40.3552
-8 -7 -7 -23.6311 125.5678
-8 -7 -4 331.2209 147.7913
-8 -7 -1 115.7876 230.1068
-8 -7 2 161.8023 -178.7227
-8 -7 5 -140.1024 35.7034
-8 -7 8 223.2930 -394.3724
-8 -7 11 49.4560 25.5926
-8 -7 14 -97.8773 -43.7894
-8 -6 -17 38.5822 72.9438
-8 -6 -14 -20.0038 -169.8718
-8 -6 -11 -64.9304 -24.3376
-8 -6 -8 261.3522 102.2150
-8 -6 -5 200.3488 -283.5838
-8 -6 -2 -235.6231 509.8304
-8 -6 1 370.0362 -173.6042
-8 -6 4 -160.3732 -217.3716
-8 -6 7 -169.9030 142.3117
-8 -6 10 227.4303 -4.8602
-8 -6 13 181.2747 -6.2777
-8 -6 16 123.1521 -9.2986
-8 -5 -15 37.9746 -49.3076
-8 -5 -12 -416.0905 134.7648
-8 -5 -9 -170.1930 -281.6191
-8 -5 -6 -89.2872 -82.5336
-8 -5 -3 -369.9158 818.4624
-8 -5 0 -66.0791 -200.1940
-8 -5 3 -471.7202 190.8113
-8 -5 6 405.7401 -117.7770
-8 -5 9 139.9110 268.2338
-8 -5 12 307.3390 -34.1588
-8 -5 15 -203.5231 18.4368
-8 -4 -16 -73.9717 -35.9976
-8 -4 -13 143.1576 -190.6032
-8 -4 -10 -130.9202 -152.5975
-8 -4 -7 81.4436 19.6681
-8 -4 -4 555.0673 66.3233
-8 -4 -1 -33.7521 30.3998
-8 -4 2 73.2581 -179.1346
-8 -4 5 120.4620 -146.6045
-8 -4 8 -182.8609 -566.8385
-8 -4 11 178.2950 -21.8613
-8 -4 14 -38.9694 -204.0814
-8 -4 17 -37.6949 24.1319
-8 -3 -17 157.0741 21.1428
-8 -3 -14 -393.7490 -9.0217
-8 -3 -11 -11.2234 -78.6643
-8 -3 -8 32.8128 -297.9421
-8 -3 -5 -735.6705 334.0414
-8 -3 -2 -212.8568 -233.0931
-8 -3 1 -75.1521 68.5361
-8 -3 4 498.6913 233.6952
-8 -3 7 -123.1620 449.5069
-8 -3 10 259.2210 -55.1702
-8 -3 13 -730.7025 229.3780
-8 -3 16 2.3664 -102.5434
-8 -2 -18 118.2640 126.3570
-8 -2 -15 -0.2082 35.7798
-8 -2 -12 149.9470 -76.5802
-8 -2 -9 -357.5866 126.6665
-8 -2 -6 -169.4455 -114.8327
-8 -2 -3 17.1211 -272.5969
-8 -2 0 308.2685 397.7501
-8 -2 3 13.4183 -50.0443
-8 -2 6 -264.9754 224.9488
-8 -2 9 -188.0543 92.6786
-8 -2 12 341.3215 -17.3571
-8 -2 15 345.7530 43.8996
-8 -2 18 118.0059 29.9559
-8 -1 -19 -6.5208 -15.8408
-8 -1 -16 17.4276 -127.8119
-8 -1 -13 106.3416 -45.2064
-8 -1 -10 -177.6253 164.3754
-8 -1 -7 121.0919 116.2812
-8 -1 -4 -157.6905 60.0197
-8 -1 -1 -314.1776 288.9954
-8 -1 2 53.1986 -396.6493
-8 -1 5 -155.4716 434.0811
-8 -1 8 -15.2184 -59.6946
-8 -1 11 -47.6437 118.4912
-8 -1 14 -229.8427 -124.0535
-8 -1 17 156.4750 138.2457
-7 -7 -15 -204.3151 -18.1960
-7 -7 -12 272.8135 77.1685
-7 -7 -9 -186.1289 50.6026
-7 -7 -6 -362.1963 180.8463
-7 -7 -3 -374.7702 66.6401
-7 -7 0 -69.3902 66.3429
-7 -6 -16 -28.4766 213.2229
-7 -6 -13 -397.5761 36.7530
-7 -6 -10 -165.5262 82.2498
-7 -6 -7 318.8122 198.5396
-7 -6 -4 521.4431 -337.8913
-7 -6 -1 301.1471 -432.5972
-7 -6 2 -148.5996 -134.2003
-7 -6 5 0.1909 709.1894
-7 -6 8 -250.9097 -168.2066
-7 -6 11 85.5397 236.0224
-7 -6 14 -337.4413 57.8473
-7 -6 17 -60.2255 -51.6585
-7 -5 -17 -50.0240 -97.3934
-7 -5 -14 188.7369 -198.8248
-7 -5 -11 -132.6266 97.3648
-7 -5 -8 -209.8478 -70.3585
-7 -5 -5 -307.8976 -381.9491
-7 -5 -2 -195.1159 -280.4695
-7 -5 1 237.5076 336.9520
-7 -5 4 72.9419 -320.6454
-7 -5 7 -377.5827 65.3818
-7 -5 10 -16.5175 -345.8129
-7 -5 13 -399.3157 -145.6800
-7 -5 16 14.5924 -162.9290
-7 -4 -18 -148.2933 -148.4950
-7 -4 -15 -171.6414 -50.1772
-7 -4 -12 604.9075 57.9387
-7 -4 -9 157.9688 329.4620
-7 -4 -6 101.4546 645.2898
-7 -4 -3 25.3658 -347.6786
-7 -4 0 99.5701 383.0464
-7 -4 3 634.6222 132.8451
-7 -4 6 339.8374 -270.6723
-7 -4 9 387.7224 317.5671
-7 -4 12 -223.3796 -280.0375
-7 -4 15 317.5512 -162.7127
-7 -4 18 38.2788 -30.9167
-7 -3 -19 160.7337 120.4528
-7 -3 -16 148.7563 -18.7549
-7 -3 -13 -89.2037 -251.1742
-7 -3 -10 549.0355 381.0546
-7 -3 -7 -155.6599 -37.3907
-7 -3 -4 55.1216 -245.8980
-7 -3 -1 495.6673 -438.9329
-7 -3 2 -147.6872 -303.8131
-7 -3 5 -357.2690 -200.5759
-7 -3 8 160.6164 154.3925
-7 -3 11 -279.0231 -47.9718
-7 -3 14 -299.1674 -140.7695
-7 -3 17 -101.3446 81.9141
-7 -2 -17 -112.0492 -75.9245
-7 -2 -14 230.0147 -39.2343
-7 -2 -11 -86.4702 422.7305
-7 -2 -8 -101.4780 -48.4289
-7 -2 -5 11.4913 -253.8708
-7 -2 -2 -112.0326 423.5860
-7 -2 1 -67.0433 166.5515
-7 -2 4 -393.0857 -57.2147
-7 -2 7 -37.1737 -30.2735
-7 -2 10 -142.6222 223.0390
-7 -2 13 83.9400 -63.9788
-7 -2 16 -192.6950 65.0970
-7 -2 19 80.7982 -48.9417
-7 -1 -18 -78.4569 -80.7317
-7 -1 -15 -34.8265 11.9694
-7 -1 -12 373.0510 137.6697
-7 -1 -9 149.2089 -377.3428
-7 -1 -6 -167.0652 -104.7238
-7 -1 -3 -79.3421 45.1897
-7 -1 0 1096.6333 44.3540
-7 -1 3 99.5795 133.5189
-7 -1 6 297.1040 -108.4100
-7 -1 9 -38.6808 116.4399
-7 -1 12 110.6947 49.6175
-7 -1 15 266.3847 176.2934
-7 -1 18 -48.3800 -113.4661
-6 -6 -18 -29.1943 66.4140
-6 -6 -15 402.0995 141.5324
-6 -6 -12 -310.8490 -169.1411
-6 -6 -9 201.7103 327.4871
-6 -6 -6 167.4410 -297.8517
-6 -6 -3 -121.9269 -224.5608
-6 -6 0 -101.0943 -212.6979
-6 -5 -16 -8.0434 -143.7349
-6 -5 -13 707.4576 202.5121
-6 -5 -10 -9.0077 -467.4224
-6 -5 -7 213.8149 186.2446
-6 -5 -4 692.6405 188.2077
-6 -5 -1 -212.4317 -104.4247
-6 -5 2 -4.4701 444.7145
-6 -5 5 -660.2566 411.6207
-6 -5 8 -276.5740 -491.6460
-6 -5 11 -360.4109 39.4248
-6 -5 14 646.5287 601.5926
-6 -5 17 -57.3199 -238.8304
-6 -4 -17 210.3676 209.1729
-6 -4 -14 -674.4074 -66.0067
-6 -4 -11 156.7684 -158.1043
-6 -4 -8 240.9663 142.6730
-6 -4 -5 -206.6721 -444.2479
-6 -4 -2 51.5465 -568.6228
-6 -4 1 -96.4737 361.4168
-6 -4 4 -57.9342 -186.2602
-6 -4 7 341.9081 294.6875
-6 -4 10 -172.8278 68.2704
-6 -4 13 542.5586 -31.6420
-6 -4 16 56.9848 377.0976
-6 -4 19 -49.1946 -50.8950
-6 -3 -18 -98.6906 46.5674
-6 -3 -15 340.7182 184.3508
-6 -3 -12 -579.8973 116.4757
-6 -3 -9 -235.5501 181.8452
-6 -3 -6 712.2732 242.9810
-6 -3 -3 246.0397 109.2568
-6 -3 0 108.8203 178.3912
-6 -3 3 -409.4241 -137.9680
-6 -3 6 -248.2060 -220.9471
-6 -3 9 64.5424 255.7493
-6 -3 12 418.4794 58.4225
-6 -3 15 -326.3492 220.6940
-6 -3 18 -3.9358 -25.3961
-6 -2 -19 115.1252 -130.1089
-6 -2 -16 -75.0603 101.3321
-6 -2 -13 46.9705 -183.1886
-6 -2 -10 -291.9845 -15.2384
-6 -2 -7 -58.4025 -20.6685
-6 -2 -4 -274.1783 -535.4590
-6 -2 -1 -305.6202 74.9459
-6 -2 2 14.4934 -56.0313
-6 -2 5 372.0702 -396.4734
-6 -2 8 -169.3989 -147.3637
-6 -2 11 83.3060 -234.6638
-6 -2 14 356.8361 48.9002
-6 -2 17 -194.3371 -47.2427
-6 -1 -17 203.8614 -206.0618
-6 -1 -14 -136.7708 -85.4789
-6 -1 -11 235.0382 -490.7333
-6 -1 -8 68.1711 156.2877
-6 -1 -5 35.8887 -2.9913
-6 -1 -2 261.2833 624.2596
-6 -1 1 -419.1140 -594.7062
-6 -1 4 42.9450 -100.3316
-6 -1 7 5.1106 -47.0665
-6 -1 10 204.1151 -33.9765
-6 -1 13 179.9323 233.7227
-6 -1 16 -113.2207 -115.5939
-6 -1 19 -29.8993 93.0045
-5 -5 -18 121.6429 14.9192
-5 -5 -15 -246.7915 -119.2404
-5 -5 -12 426.5609 -221.5288
-5 -5 -9 -152.6269 154.7681
-5 -5 -6 -101.6137 -238.5350
-5 -5 -3 -496.5377 427.3697
-5 -5 0 -111.8694 -148.0989
-5 -4 -19 -63.6630 -11.6495
-5 -4 -16 -178.0862 52.8713
-5 -4 -13 -875.7108 184.8509
-5 -4 -10 -222.1875 316.0036
-5 -4 -7 -125.1999 -19.1893
-5 -4 -4 730.1914 256.8979
-5 -4 -1 -177.9499 -75.4974
-5 -4 2 -312.0537 25.2542
-5 -4 5 852.9262 -154.4759
-5 -4 8 -29.2629 -79.0212
-5 -4 11 384.4265 -69.7990
-5 -4 14 -118.1018 -214.2018
-5 -4 17 16.5129 183.8081
-5 -3 -17 -68.5836 -89.1091
-5 -3 -14 348.0618 146.1326
-5 -3 -11 -198.0987 -197.3829
-5 -3 -8 -46.4315 78.3690
-5 -3 -5 -901.2494 804.7863
-5 -3 -2 17.0447 -232.6618
-5 -3 1 110.1338 -188.3360
-5 -3 4 -147.6229 -269.9743
-5 -3 7 -21.0468 68.8257
-5 -3 10 -218.8325 131.0108
-5 -3 13 -451.2537 -214.6804
-5 -3 16 111.4846 -342.4189
-5 -3 19 -15.4499 98.4626
-5 -2 -18 -94.9195 -4.1362
-5 -2 -15 -4.6955 -128.1816
-5 -2 -12 -273.9741 -16.6815
-5 -2 -9 416.8752 270.7962
-5 -2 -6 261.7164 -241.3613
-5 -2 -3 -129.5818 -56.8385
-5 -2 0 46.3203 -331.3533
-5 -2 3 -114.2570 706.4453
-5 -2 6 -263.2111 128.0548
-5 -2 9 -19.3277 -322.0511
-5 -2 12 -491.8765 38.6735
-5 -2 15 -225.2581 10.2300
-5 -2 18 -49.9270 -74.0786
-5 -1 -19 102.8495 -72.2986
-5 -1 -16 -16.4867 29.0002
-5 -1 -13 -386.5500 93.0073
-5 -1 -10 253.8180 293.9778
-5 -1 -7 17.7195 -90.5417
-5 -1 -4 519.2737 -635.2413
-5 -1 -1 -427.5275 84.5928
-5 -1 2 -98.7904 -14.4635
-5 -1 5 -247.2705 -284.8420
-5 -1 8 217.8649 202.3123
-5 -1 11 70.7889 116.1952
-5 -1 14 -249.2123 -50.1843
-5 -1 17 327.7172 89.0518
-5 -1 20 -0.8384 -113.8062
-4 -4 -18 49.6062 125.6399
-4 -4 -15 133.6647 -141.5648
-4 -4 -12 313.1640 521.5835
-4 -4 -9 140.0869 -641.1070
-4 -4 -6 2.3776 -266.7955
-4 -4 -3 355.8074 900.5162
-4 -4 0 -93.9049 492.4307
-4 -3 -19 31.8644 74.8378
-4 -3 -16 -88.2548 96.0901
-4 -3 -13 392.9054 85.7036
-4 -3 -10 -109.8057 -315.1328
-4 -3 -7 46.6617 -8.8766
-4 -3 -4 -381.8208 -598.0990
-4 -3 -1 2.5604 -382.6935
-4 -3 2 -32.1189 -168.8962
-4 -3 5 -865.2845 746.2908
-4 -3 8 50.5167 125.5848
-4 -3 11 -198.2296 73.0232
-4 -3 14 46.1891 -142.5787
-4 -3 17 -48.3297 -76.5640
-4 -2 -20 -98.4157 -36.3718
-4 -2 -17 37.5080 39.0918
-4 -2 -14 394.5832 177.2686
-4 -2 -11 537.4862 -219.5851
-4 -2 -8 -82.0624 -189.3816
-4 -2 -5 -1.7991 256.8048
-4 -2 -2 118.4394 -17.4109
-4 -2 1 127.2510 -78.4978
-4 -2 4 699.8553 -377.1500
-4 -2 7 100.9033 -94.4057
-4 -2 10 -157.4141 122.9351
-4 -2 13 -234.7311 105.7801
-4 -2 16 133.6688 35.4675
-4 -2 19 -15.4803 -22.3058
-4 -1 -18 15.2454 -80.6551
-4 -1 -15 -146.1727 34.9564
-4 -1 -12 242.6083 -53.2930
-4 -1 -9 -11.8912 -245.6102
-4 -1 -6 48.6716 -5.7959
-4 -1 -3 -98.3411 306.9730
-4 -1 0 487.3451 47.9710
-4 -1 3 625.2011 -73.5950
-4 -1 6 15.9853 61.6294
-4 -1 9 -227.9511 9.8137
-4 -1 12 248.2326 -149.5860
-4 -1 15 197.9215 48.5002
-4 -1 18 -66.3171 -29.2748
-3 -3 -18 -31.4242 -50.3829
-3 -3 -15 -58.1485 -122.3072
-3 -3 -12 37.9758 -286.4630
-3 -3 -9 -22.5466 -17.9256
-3 -3 -6 -295.0835 -45.0982
-3 -3 -3 481.2714 -408.2471
-3 -3 0 17.7915 964.0446
-3 -2 -19 -69.8214 125.0632
-3 -2 -16 65.4105 -53.3260
-3 -2 -13 -61.9866 -80.3480
-3 -2 -10 -113.7891 -277.4924
-3 -2 -7 -4.4726 96.5631
-3 -2 -4 212.1835 336.8225
-3 -2 -1 -42.6076 -580.9991
-3 -2 5 612.7248 60.8388
-3 -2 8 43.3314 108.9600
-3 -2 11 150.2878 189.3867
-3 -2 14 282.0939 -100.6065
-3 -2 17 -24.0882 -170.4756
-3 -2 20 73.6155 -20.8301
-3 -1 -20 -18.2468 11.4634
-3 -1 -17 50.4153 194.8373
-3 -1 -14 -46.8273 -51.6862
-3 -1 -11 -107.0484 253.2859
-3 -1 -8 145.0302 -8.1033
-3 -1 -5 -31.7774 46.5939
-3 -1 -2 -243.6835 -387.4895
-3 -1 1 -10.2653 -177.0307
-3 -1 4 -580.3487 -364.3394
-3 -1 7 -20.2459 345.0932
-3 -1 10 65.7051 469.8201
-3 -1 13 -42.6170 116.1512
-3 -1 16 -164.1523 -74.1677
-3 -1 19 -36.3045 -49.8592
-2 -2 -18 63.3980 -42.7359
-2 -2 -15 -208.6105 191.5800
-2 -2 -12 -118.9998 50.1266
-2 -2 -9 -380.1163 -274.7038
-2 -2 -6 -159.9364 -46.2720
-2 -2 -3 -306.5264 357.8379
-2 -1 -19 10.8285 19.3379
-2 -1 -16 -5.3522 430.7616
-2 -1 -13 126.7507 9.6128
-2 -1 -10 -532.5809 744.1608
-2 -1 -7 -241.8396 -299.3255
-2 -1 -4 39.7775 -210.2640
-2 -1 5 -66.5003 95.4884
-2 -1 8 329.4191 -114.9150
-2 -1 11 254.6907 -255.3094
-2 -1 14 102.9355 69.5196
-2 -1 17 -584.2097 400.9507
-2 -1 20 -10.1399 75.7713
-1 -1 -18 -104.1326 -456.4641
-1 -1 -15 -334.7804 -26.3306
-1 -1 -12 -681.0373 94.9104
-1 -1 -9 -706.7948 1156.3606
-1 -1 -6 -253.3452 -19.1871
0 0 6 -111.0215 -15.9381
0 0 9 514.8248 -36.9942
0 0 12 395.3759 15.3262
0 0 15 276.7433 -13.7278
0 0 18 149.3844 -26.8808
1 0 -20 -31.5783 -12.9300
1 0 -17 169.4724 -24.3920
1 0 -14 112.4717 10.9578
1 0 -11 419.3452 -21.1007
1 0 -8 305.0044 -30.3604
1 0 -5 193.2706 12.6999
1 0 4 62.0012 13.5016
1 0 7 8.9427 -20.2767
1 0 10 385.6973 -23.3401
1 0 13 129.5791 12.4060
1 0 16 439.2416 -17.6762
1 0 19 62.0121 -15.4585
1 1 3 -53.5845 13.2546
1 1 6 -253.3452 19.1871
1 1 9 -706.7948 -1156.3606
1 1 12 -681.0373 -94.9104
1 1 15 -334.7804 26.3306
1 1 18 -104.1326 456.4641
2 0 -19 -12.1611 -17.2027
2 0 -16 120.8260 -8.5870
2 0 -13 131.3589 12.7857
2 0 -10 307.3398 -24.9476
2 0 -7 475.9995 -9.0229
2 0 -4 -88.2942 14.4348
2 0 5 153.4207 14.2738
2 0 8 283.6015 -22.4662
2 0 11 381.2445 -13.6173
2 0 14 71.9227 11.7562
2 0 17 217.1129 -18.0038
2 0 20 -2.8947 -8.4442
2 1 -20 -10.1399 -75.7713
2 1 -17 -584.2097 -400.9507
2 1 -14 102.9355 -69.5196
2 1 -11 254.6907 255.3094
2 1 -8 329.4191 114.9150
2 1 -5 -66.5003 -95.4884
2 1 4 39.7775 210.2640
2 1 7 -241.8396 299.3255
2 1 10 -532.5809 -744.1608
2 1 13 126.7507 -9.6128
2 1 16 -5.3522 -430.7616
2 1 19 10.8285 -19.3379
2 2 3 -306.5264 -357.8379
2 2 6 -159.9364 46.2720
2 2 9 -380.1163 274.7038
2 2 12 -118.9998 -50.1266
2 2 15 -208.6105 -191.5800
2 2 18 63.3980 42.7359
3 0 -18 163.2452 -11.8025
3 0 -15 -45.7656 -2.3927
3 0 -12 -239.8071 2.4068
3 0 -9 49.3654 -16.1826
3 0 -6 -125.8538 -3.3242
3 0 -3 -10.7429 2.6658
3 0 3 529.9559 -3.6320
3 0 6 -81.8566 1.3832
3 0 9 165.8120 -18.5581
3 0 12 -23.9560 -4.7143
3 0 15 64.6181 1.9481
3 0 18 59.7198 -14.5254
3 1 -19 -36.3045 49.8592
3 1 -16 -164.1523 74.1677
3 1 -13 -42.6170 -116.1512
3 1 -10 65.7051 -469.8201
3 1 -7 -20.2459 -345.0932
3 1 -4 -580.3487 364.3394
3 1 -1 -10.2653 177.0307
3 1 2 -243.6835 387.4895
3 1 5 -31.7774 -46.5939
3 1 8 145.0302 8.1033
3 1 11 -107.0484 -253.2859
3 1 14 -46.8273 51.6862
3 1 17 50.4153 -194.8373
3 1 20 -18.2468 -11.4634
3 2 -20 73.6155 20.8301
3 2 -17 -24.0882 170.4756
3 2 -14 282.0939 100.6065
3 2 -11 150.2878 -189.3867
3 2 -8 43.3314 -108.9600
3 2 -5 612.7248 -60.8388
3 2 1 -42.6076 580.9991
3 2 4 212.1835 -336.8225
3 2 7 -4.4726 -96.5631
3 2 10 -113.7891 277.4924
3 2 13 -61.9866 80.3480
3 2 16 65.4105 53.3260
3 2 19 -69.8214 -125.0632
3 3 0 17.7915 -964.0446
3 3 3 481.2714 408.2471
3 3 6 -295.0835 45.0982
3 3 9 -22.5466 17.9256
3 3 12 37.9758 286.4630
3 3 15 -58.1485 122.3072
3 3 18 -31.4242 50.3829
4 0 -20 -5.7344 -0.9623
4 0 -17 260.0582 -6.5632
4 0 -14 50.0437 -1.0326
4 0 -11 226.5365 -0.1653
4 0 -8 220.1808 -9.0943
4 0 -5 -144.6072 -1.2328
4 0 1 17.0520 -9.8712
4 0 4 -125.1836 0.1739
4 0 7 106.5857 1.1216
4 0 10 77.0511 -9.0049
4 0 13 -76.0875 1.5776
4 0 16 108.0791 -0.0319
4 0 19 -32.9701 -6.8344
4 1 -18 -66.3171 29.2748
4 1 -15 197.9215 -48.5002
4 1 -12 248.2326 149.5860
4 1 -9 -227.9511 -9.8137
4 1 -6 15.9853 -61.6294
4 1 -3 625.2011 73.5950
4 1 0 487.3451 -47.9710
4 1 3 -98.3411 -306.9730
4 1 6 48.6716 5.7959
4 1 9 -11.8912 245.6102
4 1 12 242.6083 53.2930
4 1 15 -146.1727 -34.9564
4 1 18 15.2454 80.6551
4 2 -19 -15.4803 22.3058
4 2 -16 133.6688 -35.4675
4 2 -13 -234.7311 -105.7801
4 2 -10 -157.4141 -122.9351
4 2 -7 100.9033 94.4057
4 2 -4 699.8553 377.1500
4 2 -1 127.2510 78.4978
4 2 2 118.4394 17.4109
4 2 5 -1.7991 -256.8048
4 2 8 -82.0624 189.3816
4 2 11 537.4862 219.5851
4 2 14 394.5832 -177.2686
4 2 17 37.5080 -39.0918
4 2 20 -98.4157 36.3718
4 3 -17 -48.3297 76.5640
4 3 -14 46.1891 142.5787
4 3 -11 -198.2296 -73.0232
4 3 -8 50.5167 -125.5848
4 3 -5 -865.2845 -746.2908
4 3 -2 -32.1189 168.8962
4 3 1 2.5604 382.6935
4 3 4 -381.8208 598.0990
4 3 7 46.6617 8.8766
4 3 10 -109.8057 315.1328
4 3 13 392.9054 -85.7036
4 3 16 -88.2548 -96.0901
4 3 19 31.8644 -74.8378
4 4 0 -93.9049 -492.4307
4 4 3 355.8074 -900.5162
4 4 6 2.3776 266.7955
4 4 9 140.0869 641.1070
4 4 12 313.1640 -521.5835
4 4 15 133.6647 141.5648
4 4 18 49.6062 -125.6399
5 0 -19 97.1724 2.7642
5 0 -16 99.2706 -1.3387
5 0 -13 -94.4973 -0.1922
5 0 -10 -104.0320 4.3125
5 0 -7 -43.2404 -1.8151
5 0 -4 164.9354 0.9187
5 0 -1 -660.4134 3.5051
5 0 2 -59.6636 -1.2759
5 0 5 -20.1418 0.8047
5 0 8 -92.1477 0.9611
5 0 11 -122.4009 0.1854
5 0 14 3.2180 1.2668
5 0 17 3.0511 0.4315
5 0 20 124.4184 -0.5304
5 1 -20 -0.8384 113.8062
5 1 -17 327.7172 -89.0518
5 1 -14 -249.2123 50.1843
5 1 -11 70.7889 -116.1952
5 1 -8 217.8649 -202.3123
5 1 -5 -247.2705 284.8420
5 1 -2 -98.7904 14.4635
5 1 1 -427.5275 -84.5928
5 1 4 519.2737 635.2413
5 1 7 17.7195 90.5417
5 1 10 253.8180 -293.9778
5 1 13 -386.5500 -93.0073
5 1 16 -16.4867 -29.0002
5 1 19 102.8495 72.2986
5 2 -18 -49.9270 74.0786
5 2 -15 -225.2581 -10.2300
5 2 -12 -491.8765 -38.6735
5 2 -9 -19.3277 322.0511
5 2 -6 -263.2111 -128.0548
5 2 -3 -114.2570 -706.4453
5 2 0 46.3203 331.3533
5 2 3 -129.5818 56.8385
5 2 6 261.7164 241.3613
5 2 9 416.8752 -270.7962
5 2 12 -273.9741 16.6815
5 2 15 -4.6955 128.1816
5 2 18 -94.9195 4.1362
5 3 -19 -15.4499 -98.4626
5 3 -16 111.4846 342.4189
5 3 -13 -451.2537 214.6804
5 3 -10 -218.8325 -131.0108
5 3 -7 -21.0468 -68.8257
5 3 -4 -147.6229 269.9743
5 3 -1 110.1338 188.3360
5 3 2 17.0447 232.6618
5 3 5 -901.2494 -804.7863
5 3 8 -46.4315 -78.3690
5 3 11 -198.0987 197.3829
5 3 14 348.0618 -146.1326
5 3 17 -68.5836 89.1091
5 4 -17 16.5129 -183.8081
5 4 -14 -118.1018 214.2018
5 4 -11 384.4265 69.7990
5 4 -8 -29.2629 79.0212
5 4 -5 852.9262 154.4759
5 4 -2 -312.0537 -25.2542
5 4 1 -177.9499 75.4974
5 4 4 730.1914 -256.8979
5 4 7 -125.1999 19.1893
5 4 10 -222.1875 -316.0036
5 4 13 -875.7108 -184.8509
5 4 16 -178.0862 -52.8713
5 4 19 -63.6630 11.6495
5 5 0 -111.8694 148.0989
5 5 3 -496.5377 -427.3697
5 5 6 -101.6137 238.5350
5 5 9 -152.6269 -154.7681
5 5 12 426.5609 221.5288
5 5 15 -246.7915 119.2404
5 5 18 121.6429 -14.9192
6 0 -18 47.6396 5.2657
6 0 -15 72.0807 1.0093
6 0 -12 -37.3296 -2.1710
6 0 -9 222.4795 6.1402
6 0 -6 121.6940 1.0852
6 0 -3 -32.9135 -2.3849
6 0 0 93.5065 7.2060
6 0 3 -116.3137 0.2150
6 0 6 -29.2256 -1.6306
6 0 9 -124.4430 5.4011
6 0 12 -89.5544 0.7629
6 0 15 58.6441 -0.5915
6 0 18 -46.8786 3.4298
6 1 -19 -29.8993 -93.0045
6 1 -16 -113.2207 115.5939
6 1 -13 179.9323 -233.7227
6 1 -10 204.1151 33.9765
6 1 -7 5.1106 47.0665
6 1 -4 42.9450 100.3316
6 1 -1 -419.1140 594.7062
6 1 2 261.2833 -624.2596
6 1 5 35.8887 2.9913
6 1 8 68.1711 -156.2877
6 1 11 235.0382 490.7333
6 1 14 -136.7708 85.4789
6 1 17 203.8614 206.0618
6 2 -17 -194.3371 47.2427
6 2 -14 356.8361 -48.9002
6 2 -11 83.3060 234.6638
6 2 -8 -169.3989 147.3637
6 2 -5 372.0702 396.4734
6 2 -2 14.4934 56.0313
6 2 1 -305.6202 -74.9459
6 2 4 -274.1783 535.4590
6 2 7 -58.4025 20.6685
6 2 10 -291.9845 15.2384
6 2 13 46.9705 183.1886
6 2 16 -75.0603 -101.3321
6 2 19 115.1252 130.1089
6 3 -18 -3.9358 25.3961
6 3 -15 -326.3492 -220.6940
6 3 -12 418.4794 -58.4225
6 3 -9 64.5424 -255.7493
6 3 -6 -248.2060 220.9471
6 3 -3 -409.4241 137.9680
6 3 0 108.8203 -178.3912
6 3 3 246.0397 -109.2568
6 3 6 712.2732 -242.9810
6 3 9 -235.5501 -181.8452
6 3 12 -579.8973 -116.4757
6 3 15 340.7182 -184.3508
6 3 18 -98.6906 -46.5674
6 4 -19 -49.1946 50.8950
6 4 -16 56.9848 -377.0976
6 4 -13 542.5586 31.6420
6 4 -10 -172.8278 -68.2704
6 4 -7 341.9081 -294.6875
6 4 -4 -57.9342 186.2602
6 4 -1 -96.4737 -361.4168
6 4 2 51.5465 568.6228
6 4 5 -206.6721 444.2479
6 4 8 240.9663 -142.6730
6 4 11 156.7684 158.1043
6 4 14 -674.4074 66.0067
6 4 17 210.3676 -209.1729
6 5 -17 -57.3199 238.8304
6 5 -14 646.5287 -601.5926
6 5 -11 -360.4109 -39.4248
6 5 -8 -276.5740 491.6460
6 5 -5 -660.2566 -411.6207
6 5 -2 -4.4701 -444.7145
6 5 1 -212.4317 104.4247
6 5 4 692.6405 -188.2077
6 5 7 213.8149 -186.2446
6 5 10 -9.0077 467.4224
6 5 13 707.4576 -202.5121
6 5 16 -8.0434 143.7349
6 6 0 -101.0943 212.6979
6 6 3 -121.9269 224.5608
6 6 6 167.4410 297.8517
6 6 9 201.7103 -327.4871
6 6 12 -310.8490 169.1411
6 6 15 402.0995 -141.5324
6 6 18 -29.1943 -66.4140
7 0 -17 -152.1781 7.3678
7 0 -14 -93.6397 -2.6480
7 0 -11 -78.4723 -1.0246
7 0 -8 11.2272 7.6426
7 0 -5 192.2107 -2.0886
7 0 -2 -172.1899 -0.8401
7 0 1 -258.7614 8.5005
7 0 4 2.0913 -2.6037
7 0 7 41.6236 -1.1424
7 0 10 -442.5623 8.4730
7 0 13 -126.4866 -2.8628
7 0 16 -51.3557 -0.1923
7 0 19 -139.3523 5.5117
7 1 -18 -48.3800 113.4661
7 1 -15 266.3847 -176.2934
7 1 -12 110.6947 -49.6175
7 1 -9 -38.6808 -116.4399
7 1 -6 297.1040 108.4100
7 1 -3 99.5795 -133.5189
7 1 0 1096.6333 -44.3540
7 1 3 -79.3421 -45.1897
7 1 6 -167.0652 104.7238
7 1 9 149.2089 377.3428
7 1 12 373.0510 -137.6697
7 1 15 -34.8265 -11.9694
7 1 18 -78.4569 80.7317
7 2 -19 80.7982 48.9417
7 2 -16 -192.6950 -65.0970
7 2 -13 83.9400 63.9788
7 2 -10 -142.6222 -223.0390
7 2 -7 -37.1737 30.2735
7 2 -4 -393.0857 57.2147
7 2 -1 -67.0433 -166.5515
7 2 2 -112.0326 -423.5860
7 2 5 11.4913 253.8708
7 2 8 -101.4780 48.4289
7 2 11 -86.4702 -422.7305
7 2 14 230.0147 39.2343
7 2 17 -112.0492 75.9245
7 3 -17 -101.3446 -81.9141
7 3 -14 -299.1674 140.7695
7 3 -11 -279.0231 47.9718
7 3 -8 160.6164 -154.3925
7 3 -5 -357.2690 200.5759
7 3 -2 -147.6872 303.8131
7 3 1 495.6673 438.9329
7 3 4 55.1216 245.8980
7 3 7 -155.6599 37.3907
7 3 10 549.0355 -381.0546
7 3 13 -89.2037 251.1742
7 3 16 148.7563 18.7549
7 3 19 160.7337 -120.4528
7 4 -18 38.2788 30.9167
7 4 -15 317.5512 162.7127
7 4 -12 -223.3796 280.0375
7 4 -9 387.7224 -317.5671
7 4 -6 339.8374 270.6723
7 4 -3 634.6222 -132.8451
7 4 0 99.5701 -383.0464
7 4 3 25.3658 347.6786
7 4 6 101.4546 -645.2898
7 4 9 157.9688 -329.4620
7 4 12 604.9075 -57.9387
7 4 15 -171.6414 50.1772
7 4 18 -148.2933 148.4950
7 5 -16 14.5924 162.9290
7 5 -13 -399.3157 145.6800
7 5 -10 -16.5175 345.8129
7 5 -7 -377.5827 -65.3818
7 5 -4 72.9419 320.6454
7 5 -1 237.5076 -336.9520
7 5 2 -195.1159 280.4695
7 5 5 -307.8976 381.9491
7 5 8 -209.8478 70.3585
7 5 11 -132.6266 -97.3648
7 5 14 188.7369 198.8248
7 5 17 -50.0240 97.3934
7 6 -17 -60.2255 51.6585
7 6 -14 -337.4413 -57.8473
7 6 -11 85.5397 -236.0224
7 6 -8 -250.9097 168.2066
7 6 -5 0.1909 -709.1894
7 6 -2 -148.5996 134.2003
7 6 1 301.1471 432.5972
7 6 4 521.4431 337.8913
7 6 7 318.8122 -198.5396
7 6 10 -165.5262 -82.2498
7 6 13 -397.5761 -36.7530
7 6 16 -28.4766 -213.2229
7 7 0 -69.3902 -66.3429
7 7 3 -374.7702 -66.6401
7 7 6 -362.1963 -180.8463
7 7 9 -186.1289 -50.6026
7 7 12 272.8135 -77.1685
7 7 15 -204.3151 18.1960
8 0 -19 1.1568 0.7873
8 0 -16 -57.2022 7.8422
8 0 -13 -122.6652 -5.1286
8 0 -10 -131.4470 2.2001
8 0 -7 128.6090 8.6204
8 0 -4 -52.1081 -5.5474
8 0 -1 71.2840 3.6261
8 0 2 -264.3447 10.0335
8 0 5 -57.9953 -5.5247
8 0 8 -26.3750 4.5194
8 0 11 -144.7047 9.0316
8 0 14 -82.2803 -4.9645
8 0 17 -106.1917 3.9143
8 1 -17 156.4750 -138.2457
8 1 -14 -229.8427 124.0535
8 1 -11 -47.6437 -118.4912
8 1 -8 -15.2184 59.6946
8 1 -5 -155.4716 -434.0811
8 1 -2 53.1986 396.6493
8 1 1 -314.1776 -288.9954
8 1 4 -157.6905 -60.0197
8 1 7 121.0919 -116.2812
8 1 10 -177.6253 -164.3754
8 1 13 106.3416 45.2064
8 1 16 17.4276 127.8119
8 1 19 -6.5208 15.8408
8 2 -18 118.0059 -29.9559
8 2 -15 345.7530 -43.8996
8 2 -12 341.3215 17.3571
8 2 -9 -188.0543 -92.6786
8 2 -6 -264.9754 -224.9488
8 2 -3 13.4183 50.0443
8 2 0 308.2685 -397.7501
8 2 3 17.1211 272.5969
8 2 6 -169.4455 114.8327
8 2 9 -357.5866 -126.6665
8 2 12 149.9470 76.5802
8 2 15 -0.2082 -35.7798
8 2 18 118.2640 -126.3570
8 3 -16 2.3664 102.5434
8 3 -13 -730.7025 -229.3780
8 3 -10 259.2210 55.1702
8 3 -7 -123.1620 -449.5069
8 3 -4 498.6913 -233.6952
8 3 -1 -75.1521 -68.5361
8 3 2 -212.8568 233.0931
8 3 5 -735.6705 -334.0414
8 3 8 32.8128 297.9421
8 3 11 -11.2234 78.6643
8 3 14 -393.7490 9.0217
8 3 17 157.0741 -21.1428
8 4 -17 -37.6949 -24.1319
8 4 -14 -38.9694 204.0814
8 4 -11 178.2950 21.8613
8 4 -8 -182.8609 566.8385
8 4 -5 120.4620 146.6045
8 4 -2 73.2581 179.1346
8 4 1 -33.7521 -30.3998
8 4 4 555.0673 -66.3233
8 4 7 81.4436 -19.6681
8 4 10 -130.9202 152.5975
8 4 13 143.1576 190.6032
8 4 16 -73.9717 35.9976
8 5 -15 -203.5231 -18.4368
8 5 -12 307.3390 34.1588
8 5 -9 139.9110 -268.2338
8 5 -6 405.7401 117.7770
8 5 -3 -471.7202 -190.8113
8 5 0 -66.0791 200.1940
8 5 3 -369.9158 -818.4624
8 5 6 -89.2872 82.5336
8 5 9 -170.1930 281.6191
8 5 12 -416.0905 -134.7648
8 5 15 37.9746 49.3076
8 6 -16 123.1521 9.2986
8 6 -13 181.2747 6.2777
8 6 -10 227.4303 4.8602
8 6 -7 -169.9030 -142.3117
8 6 -4 -160.3732 217.3716
8 6 -1 370.0362 173.6042
8 6 2 -235.6231 -509.8304
8 6 5 200.3488 283.5838
8 6 8 261.3522 -102.2150
8 6 11 -64.9304 24.3376
8 6 14 -20.0038 169.8718
8 6 17 38.5822 -72.9438
8 7 -14 -97.8773 43.7894
8 7 -11 49.4560 -25.5926
8 7 -8 223.2930 394.3724
8 7 -5 -140.1024 -35.7034
8 7 -2 161.8023 178.7227
8 7 1 115.7876 -230.1068
8 7 4 331.2209 -147.7913
8 7 7 -23.6311 -125.5678
8 7 10 -53.9331 40.3552
8 7 13 72.5424 -214.0082
8 7 16 13.8179 -35.1094
8 8 0 38.9325 -52.1974
8 8 3 -28.5815 2.3858
8 8 6 40.5028 78.6690
8 8 9 104.7806 -354.1152
8 8 12 -106.1574 53.0855
8 8 15 85.0859 63.9860
9 0 -18 -166.1366 5.2641
9 0 -15 -5.8530 5.7719
9 0 -12 -70.7354 -5.7618
9 0 -9 -254.3651 5.8370
9 0 -6 119.0803 7.8874
9 0 -3 172.0761 -6.0793
9 0 0 -283.6700 7.2114
9 0 3 218.9673 8.0356
9 0 6 -76.8074 -5.9868
9 0 9 -138.9114 6.7246
9 0 12 -51.1292 7.0616
9 0 15 -43.8475 -5.0037
9 0 18 -135.5146 6.0506
9 1 -16 -15.7241 -77.4292
9 1 -13 -51.0157 66.5981
9 1 -10 236.2780 92.3937
9 1 -7 13.3064 -31.1640
9 1 -4 -33.4503 -36.5664
9 1 -1 -39.6695 73.6428
9 1 2 37.5442 -182.0652
9 1 5 291.0871 -379.8269
9 1 8 254.6537 -4.1772
9 1 11 -36.3727 215.4421
9 1 14 57.4831 -53.5970
9 1 17 62.1174 -104.6201
9 2 -17 88.9714 88.2890
9 2 -14 71.1858 144.9027
9 2 -11 -40.9681 129.7122
9 2 -8 102.2645 124.4462
9 2 -5 -266.8759 -32.7417
9 2 -2 -80.1819 65.3635
9 2 1 5.3587 266.4025
9 2 4 204.7601 -503.9887
9 2 7 -18.7313 225.6402
9 2 10 348.6379 282.8823
9 2 13 -200.4917 -347.4141
9 2 16 -56.7357 -26.8945
9 3 -18 30.0329 -53.5270
9 3 -15 -210.3074 35.9260
9 3 -12 -56.0908 -418.4074
9 3 -9 85.9921 89.2447
9 3 -6 -314.1542 199.5173
9 3 -3 155.9655 -184.2539
9 3 0 84.4240 165.4299
9 3 3 248.2346 259.9055
9 3 6 -120.1476 218.8596
9 3 9 186.0184 8.7574
9 3 12 -175.3236 104.5077
9 3 15 144.9006 -13.2249
9 3 18 -85.1109 -46.6274
9 4 -16 31.0856 -14.3221
9 4 -13 119.2353 177.7641
9 4 -10 -112.4843 67.8963
9 4 -7 370.7802 183.2170
9 4 -4 -22.5831 226.0199
9 4 -1 29.0337 211.7400
9 4 2 -103.0290 -326.7718
9 4 5 -457.4170 -20.9473
9 4 8 30.7466 95.2267
9 4 11 -10.4428 80.1323
9 4 14 94.0092 101.7069
9 4 17 -6.6418 33.3440
9 5 -17 -27.4801 120.2598
9 5 -14 198.1307 -101.9325
9 5 -11 2.2437 15.3529
9 5 -8 -231.1238 -59.0491
9 5 -5 6.9159 177.9834
9 5 -2 -215.0400 -23.7687
9 5 1 -29.3409 -154.1691
9 5 4 -434.9709 98.5071
9 5 7 27.0179 44.7552
9 5 10 -38.8860 -85.3765
9 5 13 30.8606 -475.5417
9 5 16 -35.9067 -21.6836
9 6 -15 -16.3934 -74.0522
9 6 -12 66.6037 -36.0176
9 6 -9 -155.8155 -59.2406
9 6 -6 94.9894 -150.4533
9 6 -3 186.0920 -26.2300
9 6 0 39.5212 68.3180
9 6 3 -219.0343 248.0195
9 6 6 57.7088 -103.5733
9 6 9 177.6588 157.5419
9 6 12 37.4836 89.9050
9 6 15 -33.4943 -1.1628
9 7 -16 -6.0024 -27.4954
9 7 -13 15.1529 -50.8811
9 7 -10 45.7823 127.3824
9 7 -7 -42.4322 -21.5587
9 7 -4 304.3254 -35.8068
9 7 -1 -40.9348 25.9677
9 7 2 49.7866 105.5695
9 7 5 -258.2129 -2.6662
9 7 8 -43.8970 -107.7000
9 7 11 -28.5306 24.5461
9 7 14 -9.4644 262.2417
9 8 -14 -42.7158 -59.5974
9 8 -11 25.7863 -56.3338
9 8 -8 -11.9648 19.1649
9 8 -5 -293.8168 -191.6881
9 8 -2 -3.5864 -128.2646
9 8 1 -92.8298 -31.9623
9 8 4 263.9070 -107.1087
9 8 7 96.6186 269.5910
9 8 10 68.6862 -127.0908
9 8 13 -287.2465 56.2891
9 9 0 -9.2890 -114.1138
9 9 3 -241.3253 -140.5746
9 9 6 13.7367 -183.6037
9 9 9 -103.1926 -42.7886
9 9 12 190.9956 361.6420
10 0 -17 -57.8339 3.7949
10 0 -14 6.3133 3.3539
10 0 -11 -45.0357 -6.8111
10 0 -8 119.0437 4.7617
10 0 -5 -30.2858 4.0952
10 0 -2 -19.4985 -8.0836
10 0 1 -367.6768 6.3512
10 0 4 -14.2337 3.6972
10 0 7 -4.6122 -8.1338
10 0 10 -166.1109 6.5489
10 0 13 104.3349 2.5326
10 0 16 -20.9458 -4.8224
10 1 -18 -11.9658 59.7983
10 1 -15 76.5995 49.1034
10 1 -12 141.9039 23.2770
10 1 -9 -34.4205 -142.1194
10 1 -6 80.1912 -100.6665
10 1 -3 58.3633 43.9632
10 1 0 -128.8547 -48.5603
10 1 3 47.8808 -196.2527
10 1 6 88.6648 7.7948
10 1 9 -19.4301 -9.0182
10 1 12 -37.6651 -33.4176
10 1 15 -29.5711 -79.9351
10 1 18 50.4840 130.1994
10 2 -16 17.7241 51.4817
10 2 -13 331.5022 -308.0734
10 2 -10 -227.6949 -21.4257
10 2 -7 123.7044 -102.9402
10 2 -4 260.1697 -316.7385
10 2 -1 -264.5156 82.2608
10 2 2 19.0120 -520.6392
10 2 5 167.9987 31.0339
10 2 8 -37.2055 -6.0114
10 2 11 170.1887 -23.2935
10 2 14 138.2674 -52.1092
10 2 17 -28.3907 47.9919
10 3 -17 -67.4280 -116.2746
10 3 -14 -63.1846 145.7253
10 3 -11 -114.7513 -41.5457
10 3 -8 223.7995 -153.6838
10 3 -5 -2.1866 -127.1112
10 3 -2 79.4583 102.2341
10 3 1 18.6154 -2.2000
10 3 4 129.0485 270.6696
10 3 7 179.5917 26.2420
10 3 10 -87.9374 -104.8655
10 3 13 8.2899 179.2371
10 3 16 29.5891 -41.7868
10 4 -15 123.4805 -147.7970
10 4 -12 -108.0832 -3.1543
10 4 -9 28.5876 123.9629
10 4 -6 -237.2306 -54.0759
10 4 -3 170.4525 136.2233
10 4 0 -189.6632 -415.3328
10 4 3 341.5254 259.7638
10 4 6 -3.6633 -33.3425
10 4 9 -347.2858 -12.8288
10 4 12 170.4038 71.4975
10 4 15 -59.5970 42.6189
10 5 -16 -49.3352 59.8054
10 5 -13 37.6163 9.3209
10 5 -10 -107.9548 -45.8498
10 5 -7 261.9080 -152.5295
10 5 -4 -249.4244 -129.1074
10 5 -1 -245.7757 -101.7563
10 5 2 349.6759 -11.0365
10 5 5 51.8833 65.2611
10 5 8 -19.7464 94.5307
10 5 11 126.5763 -16.0868
10 5 14 56.7474 -14.6765
10 6 -14 -33.2665 40.1617
10 6 -11 78.2711 20.6972
10 6 -8 106.3426 55.5860
10 6 -5 27.3341 -79.3094
10 6 -2 10.4369 196.2182
10 6 1 76.8419 87.0874
10 6 4 -17.6997 43.0896
10 6 7 158.2382 -57.4264
10 6 10 -6.5900 76.8236
10 6 13 70.4183 206.3711
10 6 16 -18.5044 30.2917
10 7 -15 83.4509 30.9266
10 7 -12 -158.4390 -49.1872
10 7 -9 -59.3892 13.8975
10 7 -6 -23.6728 64.0759
10 7 -3 112.6612 -248.0329
10 7 0 76.5495 -25.5900
10 7 3 -48.7515 -87.8774
10 7 6 -365.8110 350.7623
10 7 9 -31.5677 44.8625
10 7 12 -33.3437 -59.4582
10 7 15 96.2422 -71.4293
10 8 -13 -79.5053 -130.3147
10 8 -10 -147.4130 106.9765
10 8 -7 38.6137 71.9745
10 8 -4 433.1781 -98.6881
10 8 -1 -56.8974 -145.6863
10 8 2 -78.4444 114.2845
10 8 5 372.1315 -155.0641
10 8 8 64.2340 112.4343
10 8 11 94.3266 -88.5666
10 8 14 -48.1594 -127.0181
10 9 -11 -150.1304 41.0497
10 9 -8 -49.2646 -78.8039
10 9 -5 -568.3157 91.8892
10 9 -2 -245.2543 227.4945
10 9 1 -25.1127 240.3502
10 9 4 -623.0465 -55.4053
10 9 7 -128.7779 5.6728
10 9 10 -51.6844 -68.3562
10 9 13 252.0457 -1.2157
10 10 0 -118.5088 -199.3034
10 10 3 438.0675 411.2757
10 10 6 403.0295 129.0357
10 10 9 74.6540 -223.2336
10 10 12 -225.4293 -48.9993
11 0 -16 72.6895 1.6994
11 0 -13 -77.4935 0.4074
11 0 -10 161.2634 -9.6942
11 0 -7 100.2746 4.2635
11 0 -4 138.7246 0.8699
11 0 -1 10.8712 -11.0494
11 0 2 -113.9095 5.7799
11 0 5 -103.4592 0.0311
11 0 8 -52.2091 -9.8612
11 0 11 -56.8926 5.7495
11 0 14 11.2181 -0.2236
11 0 17 -75.9777 -6.2683
11 1 -17 -15.7029 -42.0377
11 1 -14 -83.4094 -242.4701
11 1 -11 -284.5974 99.2536
11 1 -8 -434.0939 350.1338
11 1 -5 58.7402 -24.5777
11 1 -2 -208.7940 156.7403
11 1 1 34.3910 181.6315
11 1 4 79.6339 249.8973
11 1 7 -176.2388 189.5718
11 1 10 -59.0068 145.4798
11 1 13 -20.9704 -20.4731
11 1 16 -24.6392 31.6134
11 2 -15 -8.1075 -13.6577
11 2 -12 119.4487 143.6819
11 2 -9 251.7952 -82.4281
11 2 -6 -176.7768 -81.6837
11 2 -3 223.9287 101.6365
11 2 0 346.4227 -18.4219
11 2 3 -205.1221 -37.9769
11 2 6 -35.7525 27.2980
11 2 9 63.9649 -295.2736
11 2 12 74.8817 19.8510
11 2 15 43.6435 -1.9894
11 3 -16 -22.1301 -6.6431
11 3 -13 -122.4254 76.9891
11 3 -10 -191.5816 336.7214
11 3 -7 -177.5609 -4.2518
11 3 -4 -211.6807 -62.9775
11 3 -1 -55.5779 -508.1796
11 3 2 -214.4834 284.0681
11 3 5 2.7448 -117.1834
11 3 8 58.3045 -113.3518
11 3 11 -57.7377 -327.7535
11 3 14 -66.1326 74.8692
11 4 -14 -19.3355 -0.1893
11 4 -11 -35.2192 -16.6321
11 4 -8 -249.3276 -13.8830
11 4 -5 38.1107 51.4919
11 4 -2 111.1316 -81.5820
11 4 1 -301.9279 424.7002
11 4 4 357.4701 -384.5810
11 4 7 -154.2881 -190.7458
11 4 10 -11.7946 130.3433
11 4 13 38.4720 -27.3694
11 4 16 10.4467 -10.6387
11 5 -15 33.9785 -30.7431
11 5 -12 7.5260 -74.8251
11 5 -9 -117.0786 -232.0023
11 5 -6 -27.3918 -96.9564
11 5 -3 163.9697 -193.0922
11 5 0 -394.8556 -334.0087
11 5 3 -55.2553 -158.5515
11 5 6 284.9108 -131.2986
11 5 9 16.4339 -72.6696
11 5 12 -31.0701 34.4910
11 5 15 48.6737 -71.9065
11 6 -13 189.3380 165.3592
11 6 -10 105.3777 -65.9015
11 6 -7 -22.7400 44.3248
11 6 -4 -285.8886 605.4357
11 6 -1 -11.2871 342.9959
11 6 2 105.3454 -33.2794
11 6 5 -175.2593 649.0830
11 6 8 9.4870 60.1557
11 6 11 -39.3987 79.7015
11 6 14 243.1497 45.9129
11 7 -14 -139.8303 -2.9795
11 7 -11 -166.8695 44.4483
11 7 -8 118.5642 -5.8143
11 7 -5 457.6497 187.1459
11 7 -2 -302.9254 358.2190
11 7 1 98.6004 -17.9080
11 7 4 388.0853 171.0097
11 7 7 -72.4791 242.8311
11 7 10 -5.5179 -32.5775
11 7 13 -104.2784 -198.0652
11 8 -12 199.0262 -114.5287
11 8 -9 -53.9045 -89.4938
11 8 -6 -155.7312 -96.1200
11 8 -3 77.6217 -315.9794
11 8 0 263.5346 189.3374
11 8 3 31.4710 -135.8349
11 8 6 187.9289 -174.1068
11 8 9 28.8954 121.9368
11 8 12 127.3374 72.3673
11 9 -10 19.4559 271.1892
11 9 -7 1.2465 23.7786
11 9 -4 -485.5156 -140.9393
11 9 -1 291.3632 -486.7667
11 9 2 -36.0264 103.0881
11 9 5 -311.1029 -116.3157
11 9 8 1.7624 -231.8590
11 9 11 75.5695 -85.1985
11 10 -11 -90.0044 50.1550
11 10 -8 -37.4260 105.8784
11 10 -5 340.9356 92.1380
11 10 -2 -202.2231 93.7809
11 10 1 -196.1728 -176.6075
11 10 4 320.6099 103.3689
11 10 7 -98.7372 90.8612
11 10 10 -51.3500 -93.5617
11 11 0 86.5332 192.9674
11 11 3 -45.6496 -126.0764
11 11 6 -40.5321 -41.9351
11 11 9 -85.0541 11.5130
12 0 -15 -100.9835 3.4907
12 0 -12 59.0136 -3.6064
12 0 -9 243.6132 -15.1376
12 0 -6 87.3993 5.1991
12 0 -3 0.1876 -4.6048
12 0 0 171.3592 -16.3078
12 0 3 -219.9450 5.5134
12 0 6 -73.3486 -5.1508
12 0 9 101.7675 -14.4377
12 0 12 -52.6360 4.9267
12 0 15 44.0930 -2.9922
12 1 -16 -34.7817 -4.8926
12 1 -13 50.5553 9.5943
12 1 -10 37.3881 -368.7320
12 1 -7 152.0393 -206.9594
12 1 -4 -95.0868 40.6123
12 1 -1 -27.0271 699.6406
12 1 2 -43.5448 -524.1160
12 1 5 16.8348 127.1589
12 1 8 75.3240 207.6929
12 1 11 -57.9888 -139.6939
12 1 14 -4.2369 -102.3971
12 1 17 17.5033 81.9167
12 2 -14 -123.2556 26.2703
12 2 -11 115.4572 -41.5708
12 2 -8 110.6860 266.4878
12 2 -5 27.7926 74.8995
12 2 -2 -634.2625 -229.9079
12 2 1 96.8485 660.0770
12 2 4 19.2566 7.8981
12 2 7 51.1521 -78.1512
12 2 10 147.3886 264.7621
12 2 13 -62.3211 -15.5504
12 2 16 -15.5432 2.1654
12 3 -15 79.1161 -29.4749
12 3 -12 -25.2653 74.7817
12 3 -9 145.9167 -286.0713
12 3 -6 -152.1360 109.9979
12 3 -3 145.1284 237.5153
12 3 0 283.5274 -317.8268
12 3 3 -71.4502 17.8072
12 3 6 20.4884 -35.2920
12 3 9 -171.1557 -426.4466
12 3 12 -35.2308 67.2786
12 3 15 -20.9530 32.9486
12 4 -13 1.4645 -38.3785
12 4 -10 137.5936 147.3116
12 4 -7 -15.1357 193.1855
12 4 -4 -135.5761 -187.2612
12 4 -1 181.5224 220.9016
12 4 2 -315.0420 271.8169
12 4 5 -125.6904 -144.8861
12 4 8 147.9910 -106.1257
12 4 11 -62.1796 136.4026
12 4 14 -116.9952 -61.5073
12 5 -14 -1.6396 -10.5909
12 5 -11 218.2623 150.1875
12 5 -8 -138.4513 208.2533
12 5 -5 240.8547 -156.5454
12 5 -2 186.0400 263.0604
12 5 1 212.5725 10.6383
12 5 4 252.7227 165.6296
12 5 7 -65.8901 -148.3970
12 5 10 27.5589 -4.4714
12 5 13 -29.1665 -124.3268
12 6 -12 -198.6055 -33.9449
12 6 -9 41.4381 69.1281
12 6 -6 -89.5667 -100.1580
12 6 -3 -144.3016 -312.8087
12 6 0 14.4777 91.2418
12 6 3 -68.4474 -93.1613
12 6 6 -7.2989 -328.3115
12 6 9 0.7753 -97.1586
12 6 12 33.3741 91.3863
12 7 -13 168.9654 -107.8756
12 7 -10 -121.4195 52.3379
12 7 -7 18.6506 -62.2446
12 7 -4 368.3200 797.3356
12 7 -1 -93.1567 -72.9608
12 7 2 -139.7974 28.3400
12 7 5 278.4922 -120.6667
12 7 8 -64.6232 32.9586
12 7 11 -13.4838 0.7913
12 8 -11 255.5855 -201.3873
12 8 -8 -19.6378 -127.0356
12 8 -5 -160.0741 -136.6300
12 8 -2 360.8877 -318.3528
12 8 1 113.2011 119.1550
12 8 4 207.1554 -35.5195
12 8 7 70.4544 -114.1952
12 8 10 53.8989 95.4227
12 9 -9 -42.8396 297.4060
12 9 -6 51.5649 22.0697
12 9 -3 -406.2256 25.5887
12 9 0 -58.5402 86.4434
12 9 3 169.1527 -8.1840
12 9 6 -127.7020 17.3724
12 9 9 73.8553 71.6637
12 10 -10 56.9821 66.4039
12 10 -7 -37.4963 -80.7208
12 10 -4 261.8712 66.0984
12 10 -1 -48.4745 100.7361
12 10 2 -21.3881 117.0635
12 10 5 125.0482 -13.2270
12 10 8 -26.7960 113.7185
12 11 -8 20.4663 -68.1597
12 11 -5 -122.6528 47.7410
12 11 -2 -43.1060 37.4129
12 11 1 37.7819 -118.1260
12 11 4 -216.1521 59.9572
12 11 7 21.1136 -27.2460
12 12 0 -62.1749 47.6220
12 12 3 112.1260 -13.5788
12 12 6 -15.7006 34.7368
13 0 -14 28.7697 5.1220
13 0 -11 99.7338 -10.7480
13 0 -8 257.1273 -16.1530
13 0 -5 183.1989 7.8671
13 0 -2 307.1970 -13.7994
13 0 1 416.9503 -16.5957
13 0 4 -5.6054 7.3906
13 0 7 -39.7440 -13.4906
13 0 10 191.0074 -14.0061
13 0 13 -23.9655 6.3124
13 0 16 -34.1638 -10.3760
13 1 -15 99.7605 -55.6193
13 1 -12 -19.5459 25.9702
13 1 -9 -234.2452 659.4832
13 1 -6 -137.8033 -140.9232
13 1 -3 -120.4888 1.2006
13 1 0 -87.6992 807.3844
13 1 3 -108.6307 249.0294
13 1 6 36.6281 -60.8777
13 1 9 -288.7804 641.6828
13 1 12 -25.3910 -33.1241
13 1 15 3.9849 -11.3231
13 2 -13 63.0484 -15.0501
13 2 -10 -313.0590 -551.5012
13 2 -7 315.9037 40.9744
13 2 -4 39.8637 85.6509
13 2 -1 280.7702 -162.0492
13 2 2 166.1675 -475.3567
13 2 5 11.9543 -80.8761
13 2 8 263.2925 266.9170
13 2 11 212.4748 -3.5004
13 2 14 -52.6626 -55.3091
13 3 -14 -112.4597 66.9333
13 3 -11 103.1474 120.6148
13 3 -8 241.0550 -491.4712
13 3 -5 -42.4489 244.9871
13 3 -2 80.6817 -134.8818
13 3 1 274.2066 80.0388
13 3 4 -71.2977 6.5092
13 3 7 84.4612 314.5877
13 3 10 149.6466 -308.8404
13 3 13 -26.9556 -5.6850
13 4 -12 -114.5222 -33.1938
13 4 -9 219.5781 -23.8673
13 4 -6 122.2040 -30.7230
13 4 -3 54.6533 -175.5020
13 4 0 -97.7148 -499.1842
13 4 3 44.4935 112.8792
13 4 6 -52.1991 -107.0983
13 4 9 -20.8084 163.2381
13 4 12 61.7982 -82.4468
13 5 -13 -88.2767 -58.8683
13 5 -10 21.5846 -28.4514
13 5 -7 79.8374 70.5909
13 5 -4 -384.2195 -35.8036
13 5 -1 -60.1687 109.3811
13 5 2 -172.2716 -274.8678
13 5 5 -275.1385 -0.6772
13 5 8 -18.9603 -133.8284
13 5 11 -45.9016 53.3461
13 5 14 -219.5935 -17.2125
13 6 -11 -14.7935 -110.3893
13 6 -8 121.6698 -51.5781
13 6 -5 -22.2745 -98.8421
13 6 -2 -276.0287 -114.2335
13 6 1 -35.1193 -23.3472
13 6 4 -190.5354 -92.0290
13 6 7 -203.5933 246.1097
13 6 10 31.7925 18.4420
13 6 13 55.3184 -115.7751
13 7 -12 -185.7305 197.1988
13 7 -9 280.9204 146.4008
13 7 -6 -6.2657 -47.7850
13 7 -3 474.2112 -84.0982
13 7 0 -140.8601 -120.6447
13 7 3 47.7178 -13.5393
13 7 6 -4.3816 -159.3288
13 7 9 -25.3079 76.0739
13 7 12 -149.0758 -113.9904
13 8 -10 29.2287 -245.2163
13 8 -7 44.7051 4.0624
13 8 -4 137.3130 -129.0261
13 8 -1 -121.4673 234.4713
13 8 2 -21.5111 -19.6834
13 8 5 -216.2824 8.2853
13 8 8 157.9456 -82.6879
13 8 11 102.0581 6.4901
13 9 -8 84.9218 121.2706
13 9 -5 -83.6004 -80.7695
13 9 -2 51.0918 -152.8231
13 9 1 104.8249 -115.3044
13 9 4 -76.1782 -59.3009
13 9 7 49.8129 -92.7755
13 9 10 -51.4815 -70.3454
13 10 -6 -68.0329 79.6939
13 10 -3 91.1465 -82.8417
13 10 0 15.0702 120.3891
13 10 3 -118.9995 -51.3525
13 10 6 78.8965 -31.3859
13 11 -7 2.8581 -13.3674
13 11 -4 36.1193 -69.1689
13 11 -1 38.4185 88.2135
13 11 2 7.4198 41.6026
13 11 5 -38.0207 -2.0612
13 12 -2 -20.8961 31.7139
13 12 1 -40.6970 -2.3828
13 12 4 57.6780 4.0559
14 0 -16 -27.8556 -10.4905
14 0 -13 60.2354 5.3782
14 0 -10 219.4707 -19.9240
14 0 -7 330.4880 -9.8758
14 0 -4 2.0325 6.6173
14 0 -1 152.8085 -23.7084
14 0 2 366.7422 -9.7550
14 0 5 -14.2348 6.1083
14 0 8 117.9318 -22.6294
14 0 11 165.6832 -7.6764
14 0 14 -26.3220 5.2551
14 1 -14 -14.3550 4.1137
14 1 -11 10.0639 -234.5326
14 1 -8 -693.3698 556.5445
14 1 -5 48.7045 44.9359
14 1 -2 -128.8803 -525.1633
14 1 1 -476.8447 -900.0858
14 1 4 26.5995 -137.7860
14 1 7 -318.4895 -434.6960
14 1 10 -393.8482 535.7805
14 1 13 9.8857 -0.7150
14 2 -15 -28.1437 51.4568
14 2 -12 -90.6696 -98.4136
14 2 -9 208.2287 -159.5913
14 2 -6 -74.9359 26.6401
14 2 -3 63.7103 -85.3927
14 2 0 17.7677 447.0453
14 2 3 -66.4847 125.7527
14 2 6 -125.0950 -11.2687
14 2 9 -234.3093 -620.0222
14 2 12 25.2437 21.2435
14 2 15 50.4982 55.3180
14 3 -13 19.5678 54.3484
14 3 -10 -393.5124 377.2251
14 3 -7 130.1836 -518.9093
14 3 -4 193.3938 18.5944
14 3 -1 138.2805 -172.1856
14 3 2 187.6737 -259.8227
14 3 5 -17.3705 233.0751
14 3 8 151.1260 297.4838
14 3 11 87.8251 -195.9418
14 3 14 118.9636 31.1633
14 4 -11 -16.9926 -37.5426
14 4 -8 -491.2012 318.7705
14 4 -5 -128.1740 -37.7775
14 4 -2 -351.9669 -1.0428
14 4 1 0.7440 275.1836
14 4 4 -110.6725 -0.1535
14 4 7 1.2312 -136.4847
14 4 10 -43.4437 144.7265
14 4 13 8.9555 162.8303
14 5 -12 228.2123 -3.6772
14 5 -9 -138.2508 -288.5458
14 5 -6 76.7168 -14.2278
14 5 -3 416.0882 -8.8281
14 5 0 31.6267 65.1016
14 5 3 48.0381 -39.0216
14 5 6 88.2055 -174.9137
14 5 9 -58.1846 -114.0371
14 5 12 28.8522 104.5051
14 6 -10 -112.0899 73.6916
14 6 -7 -165.7950 64.7155
14 6 -4 -205.0343 -89.5865
14 6 -1 278.5088 -89.1251
14 6 2 18.0891 10.4334
14 6 5 -65.6527 334.8186
14 6 8 61.1730 45.2822
14 6 11 -8.1411 -50.2249
14 7 -11 -124.4192 94.4229
14 7 -8 86.2155 -37.2009
14 7 -5 78.9076 -3.1048
14 7 -2 -210.0052 185.0005
14 7 1 132.6253 -69.6245
14 7 4 66.4575 -11.1234
14 7 7 -48.0943 80.7563
14 7 10 -50.2367 -12.3603
14 8 -9 -7.3265 -296.9938
14 8 -6 12.3769 10.6647
14 8 -3 -160.5559 16.0094
14 8 0 -35.2378 223.4167
14 8 3 47.0506 -8.8125
14 8 6 -9.6079 213.2763
14 8 9 -62.1563 88.2292
14 9 -7 97.9002 51.8579
14 9 -4 -116.2998 -31.2899
14 9 -1 288.3368 -277.5879
14 9 2 -28.3259 33.5728
14 9 5 33.0537 -29.3749
14 9 8 -27.0732 -68.8835
14 10 -5 -61.4458 49.1090
14 10 -2 82.5680 -110.1887
14 10 1 -1.8242 -121.4294
14 10 4 -24.6509 55.3045
14 11 -3 8.1859 81.4145
14 11 0 -42.4274 -28.4852
14 11 3 -16.1229 11.8728
15 0 -15 -18.7369 -2.0304
15 0 -12 14.8865 -0.2568
15 0 -9 123.7410 -23.8017
15 0 -6 90.9079 -0.9285
15 0 -3 11.9742 -1.2403
15 0 0 230.2165 -26.3790
15 0 3 78.5621 0.1833
15 0 6 -36.9006 -1.3409
15 0 9 275.4051 -24.3354
15 0 12 -108.8479 0.3035
15 0 15 -22.3878 -1.2681
15 1 -13 35.5159 5.7094
15 1 -10 101.9021 175.0951
15 1 -7 -253.4016 511.5519
15 1 -4 -32.2683 -33.7029
15 1 -1 -162.6899 667.3299
15 1 2 -366.0450 440.6656
15 1 5 65.8567 26.4560
15 1 8 197.1322 -110.3686
15 1 11 -74.3654 244.3674
15 1 14 37.9815 53.9874
15 2 -14 34.4392 17.6999
15 2 -11 62.2340 95.5561
15 2 -8 270.1915 -374.6759
15 2 -5 41.4805 2.5095
15 2 -2 -1.3045 299.0890
15 2 1 163.1741 129.3185
15 2 4 42.4881 -57.6951
15 2 7 31.7389 247.1101
15 2 10 99.0736 128.3129
15 2 13 -61.0091 -68.5840
15 3 -12 53.7904 20.6511
15 3 -9 185.9176 235.4536
15 3 -6 -120.6354 109.6986
15 3 -3 161.6897 85.8381
15 3 0 179.4902 -355.6602
15 3 3 75.4435 -6.3917
15 3 6 129.5854 71.6835
15 3 9 -343.0403 357.5146
15 3 12 -18.7005 67.4655
15 4 -10 -50.7266 -48.8877
15 4 -7 12.1910 223.9008
15 4 -4 -221.4060 -12.3164
15 4 -1 -137.0992 217.2538
15 4 2 -365.2604 76.6527
15 4 5 121.6390 -138.2047
15 4 8 6.7347 -45.6254
15 4 11 -32.8917 -68.6426
15 5 -11 131.5174 -123.7312
15 5 -8 -121.3419 70.6700
15 5 -5 -2.7247 -10.1250
15 5 -2 -142.9982 -30.7444
15 5 1 63.9875 -52.5635
15 5 4 26.1728 95.8299
15 5 7 -102.7252 69.6352
15 5 10 -28.6853 -100.8365
15 6 -9 -54.0847 75.6587
15 6 -6 -33.4680 72.2656
15 6 -3 -139.9950 53.8796
15 6 0 -48.4064 -68.0975
15 6 3 -77.9174 -56.3705
15 6 6 -78.7909 -56.4386
15 6 9 53.5618 -7.1007
15 7 -7 -35.0263 -57.2095
15 7 -4 118.1812 -65.6289
15 7 -1 -138.4660 -54.2891
15 7 2 -75.6182 -24.2811
15 7 5 28.4998 -108.2657
15 7 8 89.1291 13.6378
15 8 -8 -159.8786 -19.4672
15 8 -5 -50.4396 -16.7432
15 8 -2 -39.0987 197.5306
15 8 1 -0.0612 -67.5317
15 8 4 -69.7151 -31.0759
15 8 7 -4.9953 108.8209
15 9 -6 0.9842 -4.8409
15 9 -3 9.1207 74.1456
15 9 0 62.4224 5.7978
15 9 3 -27.3254 -3.7838
15 9 6 36.7903 -38.0104
15 10 -1 -16.7412 -125.4489
15 10 2 -1.4880 106.0697
16 0 -14 -136.2859 3.3360
16 0 -11 39.4025 -8.0209
16 0 -8 251.5049 -20.3961
16 0 -5 55.1225 5.6860
16 0 -2 194.6189 -10.9426
16 0 1 308.2686 -20.5139
16 0 4 78.6024 6.2032
16 0 7 107.3789 -10.5296
16 0 10 249.0429 -18.8902
16 0 13 69.8615 5.5223
16 1 -12 -62.8154 -57.1766
16 1 -9 115.7529 -224.1720
16 1 -6 -186.1053 35.6236
16 1 -3 -47.8039 -163.0224
16 1 0 -659.1291 -679.1857
16 1 3 -45.9575 -114.3470
16 1 6 -76.4763 66.6881
16 1 9 134.5885 -339.8053
16 1 12 -17.9456 -4.8779
16 2 -13 -47.9041 -21.0250
16 2 -10 -23.4837 -186.7429
16 2 -7 175.2642 72.3883
16 2 -4 8.8857 -58.6956
16 2 -1 169.7374 -72.8497
16 2 2 106.0460 134.2903
16 2 5 -8.8085 -110.3077
16 2 8 114.7762 103.2628
16 2 11 49.8407 -81.8324
16 3 -11 -42.9167 38.0468
16 3 -8 214.6427 -69.9423
16 3 -5 140.9009 -44.7757
16 3 -2 -187.3768 -85.2343
16 3 1 -137.8770 194.1475
16 3 4 126.8410 56.2565
16 3 7 102.0960 7.9091
16 3 10 50.0104 -91.7856
16 4 -9 53.9310 -133.5761
16 4 -6 62.5680 -130.8500
16 4 -3 119.5469 -38.5488
16 4 0 130.7648 -38.5314
16 4 3 44.7564 35.9653
16 4 6 62.9875 -48.5049
16 4 9 64.0709 85.1920
16 5 -10 50.6914 149.6316
16 5 -7 -187.7741 -6.5463
16 5 -4 -96.8565 36.3962
16 5 -1 117.6289 265.0424
16 5 2 -4.6217 16.1798
16 5 5 22.4757 58.6950
16 5 8 128.8337 -183.0499
16 6 -8 105.8122 94.9425
16 6 -5 14.0897 63.0135
16 6 -2 -60.4125 37.0313
16 6 1 30.6302 99.3544
16 6 4 36.5828 44.7495
16 6 7 -24.1760 61.5631
16 7 -6 78.6071 -54.1516
16 7 -3 111.3684 -16.4404
16 7 0 -71.5755 8.7660
16 7 3 71.7175 7.3618
16 7 6 -9.6424 -24.2653
16 8 -4 -14.3250 58.1361
16 8 -1 -13.6631 182.1547
16 8 2 -52.4137 57.4928
16 8 5 17.5009 86.6712
16 9 -2 -86.0837 25.8825
16 9 1 26.3866 -79.8016
17 0 -13 31.3777 4.1368
17 0 -10 -39.5187 -13.8969
17 0 -7 177.5478 -10.7012
17 0 -4 -10.9879 4.3304
17 0 -1 281.8465 -15.5878
17 0 2 179.0382 -10.3885
17 0 5 41.1423 4.6861
17 0 8 55.5785 -14.8386
17 0 11 70.1610 -9.3070
17 1 -11 25.3958 70.0037
17 1 -8 -379.4304 212.0425
17 1 -5 -5.2582 73.0453
17 1 -2 -48.4545 148.9528
17 1 1 169.5471 79.3769
17 1 4 56.9403 -0.2026
17 1 7 -156.2827 226.3727
17 1 10 -264.3218 143.6710
17 2 -9 -57.9320 202.4119
17 2 -6 -2.7300 -103.7732
17 2 -3 18.5626 82.0992
17 2 0 67.6895 256.1315
17 2 3 6.1357 -39.2996
17 2 6 -116.5691 -122.1675
17 2 9 19.2517 -158.6512
17 3 -10 -41.6600 -22.6949
17 3 -7 70.3205 -103.2932
17 3 -4 29.3436 33.0412
17 3 -1 28.6262 -110.0426
17 3 2 3.2565 -6.6078
17 3 5 -83.7198 16.2853
17 3 8 -14.6006 -52.6357
17 3 11 -21.1780 -23.8340
17 4 -8 -14.7040 -25.0965
17 4 -5 20.6680 39.5228
17 4 -2 173.0090 -66.4736
17 4 1 -12.3277 -47.3223
17 4 4 11.6575 35.0940
17 4 7 2.0060 -74.1936
17 4 10 109.0439 103.0045
17 5 -6 -35.8768 -6.7231
17 5 -3 145.6253 -86.2528
17 5 0 -23.4200 -62.8287
17 5 3 -27.1318 -111.8581
17 5 6 42.2664 31.2766
17 6 -7 97.8170 18.2626
17 6 -4 78.3465 62.7142
17 6 -1 111.6011 -126.9598
17 6 2 28.4164 -43.4481
17 6 5 -19.8669 -26.7538
17 7 -5 81.7639 35.8441
17 7 -2 -44.9039 -48.8747
17 7 1 -48.9400 -62.3937
17 7 4 69.3921 -35.6550
17 8 0 -32.6679 118.4979
18 0 -12 -12.9352 -0.2347
18 0 -9 55.5858 -12.6226
18 0 -6 37.8777 -1.8168
18 0 -3 58.9295 -0.1509
18 0 0 173.8900 -12.8949
18 0 3 -0.2129 -1.7148
18 0 6 22.7759 -0.1642
18 0 9 76.1557 -12.7451
18 0 12 -4.8780 -0.4746
18 1 -10 -128.1006 -55.8652
18 1 -7 -27.5144 144.0756
18 1 -4 0.0924 47.9020
18 1 -1 -24.9164 269.4234
18 1 2 -126.2971 -113.8209
18 1 5 36.5630 -27.8465
18 1 8 -227.2032 -276.0432
18 1 11 84.9284 23.5055
18 2 -8 -53.0343 -20.8997
18 2 -5 76.2989 -158.3985
18 2 -2 -72.3735 -96.8733
18 2 1 94.7754 -80.1435
18 2 4 -72.0853 -41.7628
18 2 7 50.6761 23.1337
18 2 10 -38.5283 -4.5338
18 3 -9 78.3815 6.6249
18 3 -6 43.6158 -66.6791
18 3 -3 -70.5145 49.7930
18 3 0 -158.6680 -43.0760
18 3 3 -13.7512 -24.6161
18 3 6 45.6789 32.1840
18 3 9 -89.4541 -28.6352
18 4 -7 18.0166 -42.3463
18 4 -4 -22.2602 17.3863
18 4 -1 20.3684 -50.1862
18 4 2 112.1573 6.4535
18 4 5 -3.0246 -58.3700
18 4 8 -29.9517 28.4908
18 5 -5 -131.3754 -5.9256
18 5 -2 -31.2255 -34.0972
18 5 1 2.0382 55.4237
18 5 4 24.0009 -13.4719
18 6 -3 -75.5831 -12.3751
18 6 0 -15.9249 -51.1359
18 6 3 -54.0438 65.6772
19 0 -8 188.2675 -4.7906
19 0 -5 -120.9357 1.3104
19 0 -2 28.2262 -4.2540
19 0 1 34.5319 -5.1208
19 0 4 46.5165 1.8822
19 0 7 -37.1073 -3.9535
19 0 10 -3.9468 -4.5182
19 1 -9 -3.5532 -129.4088
19 1 -6 22.5867 111.2202
19 1 -3 -58.3229 79.8965
19 1 0 -64.9893 -23.7069
19 1 3 2.0718 16.2408
19 1 6 5.7384 -30.1159
19 1 9 101.5538 175.5241
19 2 -7 -19.3878 -3.2541
19 2 -4 -7.2191 61.8700
19 2 -1 -113.4171 -105.7514
19 2 2 -101.1926 -138.5743
19 2 5 -63.2974 1.7142
19 2 8 1.3497 -1.0454
19 3 -5 -34.2655 17.3975
19 3 -2 12.7751 -9.9449
19 3 1 -35.4827 84.0750
19 3 4 -65.2269 34.3224
19 3 7 88.6357 122.3141
19 4 -3 14.4692 29.1659
19 4 0 36.7109 -25.7002
19 4 3 -7.4551 34.0311
19 5 -1 -18.9558 16.8660
19 5 2 15.9817 28.1747
20 0 -7 48.1191 3.5393
20 0 -4 -13.1768 -1.6912
20 0 -1 29.9377 -2.7761
20 0 2 -102.1994 2.6532
20 0 5 -97.4386 -1.0122
20 0 8 114.9005 -2.3242
20 1 -5 12.0683 -30.7262
20 1 -2 13.8480 30.4414
20 1 1 141.9346 56.6235
20 1 4 62.8192 -17.0696
20 1 7 -1.9136 5.6959
20 2 -6 27.3213 91.0508
20 2 -3 -36.0609 -49.8194
20 2 0 55.6050 44.4497
20 2 3 109.9115 60.0281
20 2 6 -42.2003 43.9447
20 3 -4 -10.3849 13.0235
20 3 -1 76.7881 65.9591
20 3 2 -45.0827 5.7628
21 0 -6 -165.4811 6.5037
21 0 -3 -9.8953 -5.9838
21 0 0 -41.4801 2.8241
21 0 3 -71.3453 5.9958
21 0 6 99.6701 -5.4957
21 1 -4 119.7295 -105.2092
21 1 -1 -3.1556 14.6818
21 1 2 -15.0932 20.1778
21 2 1 -39.4482 -103.5351
22 0 -2 34.3256 -5.8121
22 0 1 -39.0030 11.3240
0 0 0 0.0 0.0
;
_shelx_fab_checksum              65154
_olex2_submission_special_instructions 'No special instructions were received'
loop_
_space_group_symop_operation_xyz
'x, y, z'
'-y, x-y, z'
'-x+y, -x, z'
'y, x, -z'
'-x, -x+y, -z'
'x-y, -y, -z'
'x+2/3, y+1/3, z+1/3'
'-y+2/3, x-y+1/3, z+1/3'
'-x+y+2/3, -x+1/3, z+1/3'
'y+2/3, x+1/3, -z+1/3'
'-x+2/3, -x+y+1/3, -z+1/3'
'x-y+2/3, -y+1/3, -z+1/3'
'x+1/3, y+2/3, z+2/3'
'-y+1/3, x-y+2/3, z+2/3'
'-x+y+1/3, -x+2/3, z+2/3'
'y+1/3, x+2/3, -z+2/3'
'-x+1/3, -x+y+2/3, -z+2/3'
'x-y+1/3, -y+2/3, -z+2/3'
loop_
_atom_site_label
_atom_site_type_symbol
_atom_site_fract_x
_atom_site_fract_y
_atom_site_fract_z
_atom_site_U_iso_or_equiv
_atom_site_adp_type
_atom_site_occupancy
_atom_site_site_symmetry_order
_atom_site_calc_flag
_atom_site_refinement_flags_posn
_atom_site_refinement_flags_adp
_atom_site_refinement_flags_occupancy
_atom_site_disorder_assembly
_atom_site_disorder_group
Zr2 Zr 0.39921(15) 0.6667 0.6667 0.0300(9) Uani 1 2 d DS T P . .
Zr1 Zr 0.34041(12) 0.60449(12) 0.77890(12) 0.0300(9) Uani 1 1 d . . . . .
O8 O 0.4096(10) 0.6852(10) 0.7434(8) 0.065(3) Uani 1 1 d . U . . .
O4 O 0.4190(10) 0.6018(10) 0.7583(8) 0.065(3) Uani 1 1 d D U . . .
C7 C 0.7000(16) 0.5100(18) 0.7735(15) 0.099(5) Uani 1 1 d . U . . .
H7A H 0.7301 0.5421 0.7773 0.149 Uiso 1 1 calc R . . . .
H7B H 0.7029 0.4929 0.7426 0.149 Uiso 1 1 calc R . . . .
H7C H 0.6952 0.4901 0.8050 0.149 Uiso 1 1 calc R . . . .
O1 O 0.6052(10) 0.5782(10) 0.8446(8) 0.065(3) Uani 1 1 d . U . . .
H1 H 0.5764 0.5589 0.8549 0.097 Uiso 1 1 calc GR . . . .
C16 C 0.5187(11) 0.5667(12) 0.7887(9) 0.125(12) Uani 1 1 d D U . . .
H16 H 0.5224 0.5587 0.8238 0.150 Uiso 1 1 calc R . . . .
C17 C 0.4826(10) 0.5800(12) 0.7767(10) 0.115(11) Uani 1 1 d DG U . . .
H17 H 0.4622 0.5809 0.8037 0.137 Uiso 1 1 calc R . . . .
C18 C 0.4770(9) 0.5919(10) 0.7242(11) 0.099(5) Uani 1 1 d DG U . . .
C19 C 0.5075(11) 0.5906(12) 0.6837(8) 0.118(12) Uani 1 1 d DG U . . .
H19 H 0.5038 0.5985 0.6486 0.142 Uiso 1 1 calc R . . . .
C20 C 0.5436(10) 0.5772(13) 0.6957(10) 0.131(13) Uani 1 1 d DG U . . .
H20 H 0.5641 0.5763 0.6687 0.158 Uiso 1 1 calc R . . . .
C15 C 0.5492(9) 0.5653(11) 0.7482(11) 0.119(10) Uani 1 1 d DG U . . .
C6 C 0.6578(10) 0.5173(12) 0.7668(11) 0.101(10) Uani 1 1 d D U . . .
C1 C 0.6511(11) 0.5438(12) 0.8083(9) 0.099(5) Uani 1 1 d G U . . .
C2 C 0.6153(12) 0.5587(11) 0.8037(9) 0.099(5) Uani 1 1 d G U . . .
C3 C 0.5861(10) 0.5471(11) 0.7575(11) 0.099(5) Uani 1 1 d DG U . . .
C4 C 0.5928(10) 0.5207(11) 0.7160(8) 0.100(11) Uani 1 1 d DG U . . .
H4 H 0.5732 0.5130 0.6851 0.119 Uiso 1 1 calc R . . . .
C5 C 0.6286(11) 0.5058(10) 0.7206(9) 0.092(9) Uani 1 1 d DG U . . .
C9 C 0.5965(8) 0.4417(11) 0.6492(9) 0.093(13) Uani 1 1 d D U . . .
H9 H 0.5645 0.4304 0.6633 0.112 Uiso 1 1 calc R . . . .
C10 C 0.6028(9) 0.4180(10) 0.6048(10) 0.099(5) Uani 1 1 d DG U . . .
H10 H 0.5750 0.3908 0.5890 0.119 Uiso 1 1 calc R . . . .
C11 C 0.6507(10) 0.4350(10) 0.5838(7) 0.103(12) Uani 1 1 d DG U . . .
C12 C 0.6922(8) 0.4757(10) 0.6073(9) 0.088(12) Uani 1 1 d DG U . . .
H12 H 0.7242 0.4871 0.5933 0.106 Uiso 1 1 calc R . . . .
C13 C 0.6859(9) 0.4994(9) 0.6518(9) 0.096(13) Uani 1 1 d DG U . . .
H13 H 0.7137 0.5267 0.6675 0.116 Uiso 1 1 calc R . . . .
C8 C 0.6380(11) 0.4825(9) 0.6727(7) 0.094(11) Uani 1 1 d DG U . . .
O2 O 0.7019(9) 0.4243(10) 0.5173(8) 0.065(3) Uani 1 1 d D U . . .
O3 O 0.6143(10) 0.3792(10) 0.5169(8) 0.065(3) Uani 1 1 d D U . . .
C21 C 0.4355(10) 0.6019(11) 0.7110(10) 0.100(11) Uani 1 1 d D U . . .
C14 C 0.6576(10) 0.4104(10) 0.5350(9) 0.099(5) Uani 1 1 d D U . . .
O9 O 0.3333 0.6667 0.8146(14) 0.065(3) Uani 1 3 d S TU P . .
O5 O 0.4212(10) 0.6067(10) 0.6654(8) 0.065(3) Uani 1 1 d D U . . .
O6 O 0.3333 0.6667 0.6667 0.065(3) Uani 1 6 d S TU P . .
O7 O 0.3946(10) 0.7328(8) 0.6869(7) 0.065(3) Uani 1 1 d D . . . .
O1W O 0.2964(10) 0.5301(10) 0.7583(8) 0.065(3) Uani 1 1 d . U . . .
H1WA H 0.2917 0.4998 0.7866 0.097 Uiso 1 1 d GR . . . .
H1WB H 0.3069 0.5120 0.7259 0.097 Uiso 1 1 d GR . . . .
loop_
_atom_site_aniso_label
_atom_site_aniso_U_11
_atom_site_aniso_U_22
_atom_site_aniso_U_33
_atom_site_aniso_U_23
_atom_site_aniso_U_13
_atom_site_aniso_U_12
Zr2 0.0275(14) 0.038(2) 0.0279(17) -0.0044(16) -0.0022(8) 0.0191(11)
Zr1 0.0275(14) 0.038(2) 0.0279(17) -0.0044(16) -0.0022(8) 0.0191(11)
O8 0.106(8) 0.120(9) 0.022(6) -0.011(5) -0.001(5) 0.097(7)
O4 0.106(8) 0.120(9) 0.022(6) -0.011(5) -0.001(5) 0.097(7)
C7 0.096(11) 0.165(12) 0.060(9) -0.018(9) 0.017(8) 0.083(9)
O1 0.106(8) 0.120(9) 0.022(6) -0.011(5) -0.001(5) 0.097(7)
C16 0.11(2) 0.21(3) 0.085(16) -0.010(16) 0.019(14) 0.10(2)
C17 0.10(2) 0.19(3) 0.072(13) -0.003(14) 0.021(12) 0.09(2)
C18 0.096(11) 0.165(12) 0.060(9) -0.018(9) 0.017(8) 0.083(9)
C19 0.11(2) 0.20(3) 0.075(14) -0.001(15) 0.029(13) 0.11(2)
C20 0.13(2) 0.23(3) 0.086(16) 0.005(17) 0.027(14) 0.13(2)
C15 0.113(18) 0.21(2) 0.077(16) -0.005(16) 0.024(13) 0.108(19)
C6 0.097(17) 0.17(2) 0.062(14) -0.020(14) 0.015(12) 0.085(18)
C1 0.096(11) 0.165(12) 0.060(9) -0.018(9) 0.017(8) 0.083(9)
C2 0.096(11) 0.165(12) 0.060(9) -0.018(9) 0.017(8) 0.083(9)
C3 0.096(11) 0.165(12) 0.060(9) -0.018(9) 0.017(8) 0.083(9)
C4 0.09(2) 0.16(2) 0.071(15) -0.024(16) 0.012(13) 0.080(19)
C5 0.082(17) 0.15(2) 0.061(13) -0.010(13) 0.022(11) 0.068(16)
C9 0.088(18) 0.13(2) 0.061(16) -0.005(16) 0.031(13) 0.056(16)
C10 0.096(11) 0.165(12) 0.060(9) -0.018(9) 0.017(8) 0.083(9)
C11 0.093(15) 0.17(2) 0.062(16) -0.028(16) 0.013(12) 0.078(14)
C12 0.095(16) 0.15(2) 0.044(17) -0.003(15) 0.017(12) 0.078(14)
C13 0.083(17) 0.15(2) 0.060(19) -0.012(17) 0.032(13) 0.056(16)
C8 0.086(17) 0.13(2) 0.068(15) -0.007(15) 0.031(12) 0.059(15)
O2 0.106(8) 0.120(9) 0.022(6) -0.011(5) -0.001(5) 0.097(7)
O3 0.106(8) 0.120(9) 0.022(6) -0.011(5) -0.001(5) 0.097(7)
C21 0.091(17) 0.15(2) 0.08(2) -0.02(2) 0.011(15) 0.071(17)
C14 0.096(11) 0.165(12) 0.060(9) -0.018(9) 0.017(8) 0.083(9)
O9 0.106(8) 0.120(9) 0.022(6) -0.011(5) -0.001(5) 0.097(7)
O5 0.106(8) 0.120(9) 0.022(6) -0.011(5) -0.001(5) 0.097(7)
O6 0.106(8) 0.120(9) 0.022(6) -0.011(5) -0.001(5) 0.097(7)
O7 0.106(8) 0.120(9) 0.022(6) -0.011(5) -0.001(5) 0.097(7)
O1W 0.106(8) 0.120(9) 0.022(6) -0.011(5) -0.001(5) 0.097(7)
loop_
_atom_type_symbol
_atom_type_description
_atom_type_scat_dispersion_real
_atom_type_scat_dispersion_imag
_atom_type_scat_source
C C 0.0181 0.0091 'International Tables Vol C Tables 4.2.6.8 and 6.1.1.4'
H H 0.0000 0.0000 'International Tables Vol C Tables 4.2.6.8 and 6.1.1.4'
O O 0.0492 0.0322 'International Tables Vol C Tables 4.2.6.8 and 6.1.1.4'
Zr Zr -0.1862 2.2449 'International Tables Vol C Tables 4.2.6.8 and 6.1.1.4'
loop_
_geom_angle_atom_site_label_1
_geom_angle_atom_site_label_2
_geom_angle_atom_site_label_3
_geom_angle
_geom_angle_site_symmetry_1
_geom_angle_site_symmetry_3
_geom_angle_publ_flag
Zr1 Zr2 Zr2 62.27(9) . 3_565 ?
Zr1 Zr2 Zr2 91.53(9) 12_566 3_565 ?
Zr1 Zr2 Zr1 150.7(2) 12_566 . ?
O8 Zr2 Zr2 98.0(7) . 3_565 ?
O8 Zr2 Zr2 83.7(7) 12_566 3_565 ?
O8 Zr2 Zr1 47.2(8) 12_566 12_566 ?
O8 Zr2 Zr1 47.2(8) . . ?
O8 Zr2 Zr1 133.5(7) 12_566 . ?
O8 Zr2 Zr1 133.5(7) . 12_566 ?
O8 Zr2 O8 178.0(14) . 12_566 ?
O8 Zr2 O5 78.3(9) 12_566 . ?
O8 Zr2 O5 100.2(9) . . ?
O8 Zr2 O5 78.3(9) . 12_566 ?
O8 Zr2 O5 100.2(9) 12_566 12_566 ?
O8 Zr2 O6 91.0(7) . . ?
O8 Zr2 O6 91.0(7) 12_566 . ?
O8 Zr2 O7 65.2(9) . . ?
O8 Zr2 O7 65.2(9) 12_566 12_566 ?
O8 Zr2 O7 116.0(9) 12_566 . ?
O8 Zr2 O7 116.0(9) . 12_566 ?
O5 Zr2 Zr2 105.0(7) . 3_565 ?
O5 Zr2 Zr2 165.0(7) 12_566 3_565 ?
O5 Zr2 Zr1 121.0(5) . 12_566 ?
O5 Zr2 Zr1 121.0(5) 12_566 . ?
O5 Zr2 Zr1 81.0(6) 12_566 12_566 ?
O5 Zr2 Zr1 81.0(6) . . ?
O5 Zr2 O5 89.9(14) 12_566 . ?
O6 Zr2 Zr2 29.998(1) . 3_565 ?
O6 Zr2 Zr1 75.34(10) . . ?
O6 Zr2 Zr1 75.34(10) . 12_566 ?
O6 Zr2 O5 135.0(7) . . ?
O6 Zr2 O5 135.0(7) . 12_566 ?
O6 Zr2 O7 57.7(7) . 12_566 ?
O6 Zr2 O7 57.7(7) . . ?
O7 Zr2 Zr2 29.7(7) 12_566 3_565 ?
O7 Zr2 Zr2 86.7(7) . 3_565 ?
O7 Zr2 Zr2 33.4(6) 3_565 3_565 ?
O7 Zr2 Zr2 90.2(7) 10_456 3_565 ?
O7 Zr2 Zr1 94.0(5) 12_566 12_566 ?
O7 Zr2 Zr1 120.5(5) 10_456 . ?
O7 Zr2 Zr1 70.1(5) . 12_566 ?
O7 Zr2 Zr1 41.4(5) 3_565 . ?
O7 Zr2 Zr1 70.1(5) 12_566 . ?
O7 Zr2 Zr1 41.4(5) 10_456 12_566 ?
O7 Zr2 Zr1 94.0(5) . . ?
O7 Zr2 Zr1 120.5(5) 3_565 12_566 ?
O7 Zr2 O8 88.0(9) 3_565 . ?
O7 Zr2 O8 92.9(9) 10_456 . ?
O7 Zr2 O8 88.0(9) 10_456 12_566 ?
O7 Zr2 O8 92.9(9) 3_565 12_566 ?
O7 Zr2 O5 158.1(8) 3_565 12_566 ?
O7 Zr2 O5 75.6(10) 3_565 . ?
O7 Zr2 O5 158.1(8) 10_456 . ?
O7 Zr2 O5 75.6(10) 10_456 12_566 ?
O7 Zr2 O5 78.5(10) 12_566 . ?
O7 Zr2 O5 162.8(9) 12_566 12_566 ?
O7 Zr2 O5 78.5(10) . 12_566 ?
O7 Zr2 O5 162.8(9) . . ?
O7 Zr2 O6 61.3(7) 3_565 . ?
O7 Zr2 O6 61.3(7) 10_456 . ?
O7 Zr2 O7 28.8(9) 10_456 . ?
O7 Zr2 O7 28.8(9) 3_565 12_566 ?
O7 Zr2 O7 115.4(14) . 12_566 ?
O7 Zr2 O7 122.6(13) 10_456 3_565 ?
O7 Zr2 O7 111.3(13) 10_456 12_566 ?
O7 Zr2 O7 111.3(13) 3_565 . ?
Zr2 Zr1 Zr2 60.84(14) . 3_565 ?
Zr2 Zr1 Zr1 91.41(9) . 3_565 ?
Zr2 Zr1 Zr1 62.20(7) . 2_665 ?
Zr1 Zr1 Zr2 56.83(7) 3_565 3_565 ?
Zr1 Zr1 Zr2 88.31(9) 2_665 3_565 ?
Zr1 Zr1 Zr1 60.0 2_665 3_565 ?
O8 Zr1 Zr2 35.7(5) . . ?
O8 Zr1 Zr2 87.0(6) 3_565 . ?
O8 Zr1 Zr2 26.9(6) 3_565 3_565 ?
O8 Zr1 Zr2 87.8(5) . 3_565 ?
O8 Zr1 Zr1 34.2(5) . 2_665 ?
O8 Zr1 Zr1 87.9(5) . 3_565 ?
O8 Zr1 Zr1 43.8(7) 3_565 3_565 ?
O8 Zr1 Zr1 95.9(7) 3_565 2_665 ?
O8 Zr1 O8 108.5(12) 3_565 . ?
O8 Zr1 O4 139.9(8) 3_565 . ?
O8 Zr1 O4 66.6(8) . . ?
O8 Zr1 O2 147.7(9) 3_565 9_565 ?
O8 Zr1 O3 81.5(9) 3_565 8 ?
O8 Zr1 O9 81.4(9) 3_565 . ?
O8 Zr1 O7 62.1(8) 3_565 3_565 ?
O8 Zr1 O1W 67.8(10) 3_565 . ?
O4 Zr1 Zr2 116.1(5) . 3_565 ?
O4 Zr1 Zr2 66.1(5) . . ?
O4 Zr1 Zr1 154.3(6) . 3_565 ?
O4 Zr1 Zr1 96.8(6) . 2_665 ?
O2 Zr1 Zr2 161.4(7) 9_565 3_565 ?
O2 Zr1 Zr2 113.0(6) 9_565 . ?
O2 Zr1 Zr1 73.9(7) 9_565 2_665 ?
O2 Zr1 Zr1 108.0(7) 9_565 3_565 ?
O2 Zr1 O8 80.5(8) 9_565 . ?
O2 Zr1 O4 72.4(8) 9_565 . ?
O2 Zr1 O3 74.6(8) 9_565 8 ?
O2 Zr1 O9 72.0(9) 9_565 . ?
O2 Zr1 O7 145.5(8) 9_565 3_565 ?
O3 Zr1 Zr2 166.5(7) 8 . ?
O3 Zr1 Zr2 108.3(6) 8 3_565 ?
O3 Zr1 Zr1 111.9(6) 8 2_665 ?
O3 Zr1 Zr1 75.5(6) 8 3_565 ?
O3 Zr1 O8 143.7(7) 8 . ?
O3 Zr1 O4 127.3(8) 8 . ?
O3 Zr1 O7 139.9(8) 8 3_565 ?
O9 Zr1 Zr2 95.9(7) . . ?
O9 Zr1 Zr2 90.7(7) . 3_565 ?
O9 Zr1 Zr1 37.6(5) . 3_565 ?
O9 Zr1 Zr1 37.6(5) . 2_665 ?
O9 Zr1 O8 71.8(7) . . ?
O9 Zr1 O4 128.4(6) . . ?
O9 Zr1 O3 75.6(9) . 8 ?
O9 Zr1 O7 112.0(11) . 3_565 ?
O7 Zr1 Zr2 35.9(5) 3_565 3_565 ?
O7 Zr1 Zr2 34.1(6) 3_565 . ?
O7 Zr1 Zr1 87.9(6) 3_565 3_565 ?
O7 Zr1 Zr1 89.2(7) 3_565 2_665 ?
O7 Zr1 O8 69.4(8) 3_565 . ?
O7 Zr1 O4 80.3(7) 3_565 . ?
O1W Zr1 Zr2 73.4(6) . 3_565 ?
O1W Zr1 Zr2 106.9(6) . . ?
O1W Zr1 Zr1 108.0(7) . 3_565 ?
O1W Zr1 Zr1 161.7(6) . 2_665 ?
O1W Zr1 O8 141.1(8) . . ?
O1W Zr1 O4 91.2(9) . . ?
O1W Zr1 O2 124.4(9) . 9_565 ?
O1W Zr1 O3 75.1(8) . 8 ?
O1W Zr1 O9 140.0(7) . . ?
O1W Zr1 O7 75.9(9) . 3_565 ?
Zr2 O8 Zr1 97.1(10) . . ?
Zr2 O8 Zr1 125.5(12) . 2_665 ?
Zr1 O8 Zr1 101.9(9) 2_665 . ?
C21 O4 Zr1 125.0(18) . . ?
H7A C7 H7B 109.5 . . ?
H7A C7 H7C 109.5 . . ?
H7B C7 H7C 109.5 . . ?
C6 C7 H7A 109.5 . . ?
C6 C7 H7B 109.5 . . ?
C6 C7 H7C 109.5 . . ?
C2 O1 H1 109.5 . . ?
C17 C16 H16 120.0 . . ?
C17 C16 C15 120.0 . . ?
C15 C16 H16 120.0 . . ?
C16 C17 H17 120.0 . . ?
C18 C17 C16 120.0 . . ?
C18 C17 H17 120.0 . . ?
C17 C18 C19 120.0 . . ?
C17 C18 C21 119.5(19) . . ?
C19 C18 C21 120.3(19) . . ?
C18 C19 H19 120.0 . . ?
C18 C19 C20 120.0 . . ?
C20 C19 H19 120.0 . . ?
C19 C20 H20 120.0 . . ?
C15 C20 C19 120.0 . . ?
C15 C20 H20 120.0 . . ?
C16 C15 C3 123(2) . . ?
C20 C15 C16 120.0 . . ?
C20 C15 C3 117(2) . . ?
C1 C6 C7 114(3) . . ?
C1 C6 C5 120.0 . . ?
C5 C6 C7 125(3) . . ?
C6 C1 C1 123(3) . 17_656 ?
C6 C1 C2 120.0 . . ?
C2 C1 C1 117(2) . 17_656 ?
O1 C2 C1 120(2) . . ?
O1 C2 C3 120(2) . . ?
C1 C2 C3 120.0 . . ?
C2 C3 C15 123(2) . . ?
C4 C3 C15 117(2) . . ?
C4 C3 C2 120.0 . . ?
C3 C4 H4 120.0 . . ?
C3 C4 C5 120.0 . . ?
C5 C4 H4 120.0 . . ?
C6 C5 C8 121.9(17) . . ?
C4 C5 C6 120.0 . . ?
C4 C5 C8 117.8(16) . . ?
C10 C9 H9 120.0 . . ?
C10 C9 C8 120.0 . . ?
C8 C9 H9 120.0 . . ?
C9 C10 H10 120.0 . . ?
C9 C10 C11 120.0 . . ?
C11 C10 H10 120.0 . . ?
C10 C11 C14 120.3(18) . . ?
C12 C11 C10 120.0 . . ?
C12 C11 C14 119.7(18) . . ?
C11 C12 H12 120.0 . . ?
C11 C12 C13 120.0 . . ?
C13 C12 H12 120.0 . . ?
C12 C13 H13 120.0 . . ?
C12 C13 C8 120.0 . . ?
C8 C13 H13 120.0 . . ?
C9 C8 C5 117.2(18) . . ?
C13 C8 C5 122.8(18) . . ?
C13 C8 C9 120.0 . . ?
C14 O2 Zr1 132.3(18) . 14_654 ?
C14 O3 Zr1 126.4(17) . 15_554 ?
O4 C21 C18 100(2) . . ?
O5 C21 O4 132(3) . . ?
O5 C21 C18 128(2) . . ?
O2 C14 C11 120(2) . . ?
O3 C14 C11 108(2) . . ?
O3 C14 O2 132(2) . . ?
Zr1 O9 Zr1 104.9(10) 3_565 2_665 ?
Zr1 O9 Zr1 104.9(10) 3_565 . ?
Zr1 O9 Zr1 104.9(10) 2_665 . ?
C21 O5 Zr2 110.3(17) . . ?
Zr2 O6 Zr2 120.004(1) 3_565 . ?
Zr2 O6 Zr2 119.994(1) 2_665 3_565 ?
Zr2 O6 Zr2 120.001(2) 2_665 . ?
Zr2 O7 Zr2 116.9(11) 2_665 . ?
Zr2 O7 Zr1 105.6(8) . 2_665 ?
Zr2 O7 Zr1 104.6(8) 2_665 2_665 ?
O7 O7 Zr2 63.9(18) 10_456 . ?
O7 O7 Zr2 87(2) 10_456 2_665 ?
O7 O7 Zr1 167(3) 10_456 2_665 ?
Zr1 O1W H1WA 120.4 . . ?
Zr1 O1W H1WB 122.8 . . ?
H1WA O1W H1WB 89.7 . . ?
loop_
_geom_bond_atom_site_label_1
_geom_bond_atom_site_label_2
_geom_bond_distance
_geom_bond_site_symmetry_2
_geom_bond_publ_flag
Zr2 Zr2 3.498(8) 3_565 ?
Zr2 Zr1 3.355(3) 12_566 ?
Zr2 Zr1 3.355(3) . ?
Zr2 O8 1.97(2) . ?
Zr2 O8 1.97(2) 12_566 ?
Zr2 O5 2.25(2) 12_566 ?
Zr2 O5 2.25(2) . ?
Zr2 O6 2.019(5) . ?
Zr2 O7 1.94(2) 10_456 ?
Zr2 O7 2.160(18) 12_566 ?
Zr2 O7 1.94(2) 3_565 ?
Zr2 O7 2.160(18) . ?
Zr1 Zr2 3.545(3) 3_565 ?
Zr1 Zr1 3.504(6) 3_565 ?
Zr1 Zr1 3.504(6) 2_665 ?
Zr1 O8 2.48(3) . ?
Zr1 O8 2.01(2) 3_565 ?
Zr1 O4 2.50(2) . ?
Zr1 O2 2.20(2) 9_565 ?
Zr1 O3 2.28(2) 8 ?
Zr1 O9 2.210(15) . ?
Zr1 O7 2.291(17) 3_565 ?
Zr1 O1W 2.05(3) . ?
O8 Zr1 2.01(2) 2_665 ?
O4 C21 1.281(18) . ?
C7 H7A 0.9600 . ?
C7 H7B 0.9600 . ?
C7 H7C 0.9600 . ?
C7 C6 1.43(4) . ?
O1 H1 0.8200 . ?
O1 C2 1.30(2) . ?
C16 H16 0.9300 . ?
C16 C17 1.3900 . ?
C16 C15 1.3900 . ?
C17 H17 0.9300 . ?
C17 C18 1.3900 . ?
C18 C19 1.3900 . ?
C18 C21 1.487(17) . ?
C19 H19 0.9300 . ?
C19 C20 1.3900 . ?
C20 H20 0.9300 . ?
C20 C15 1.3900 . ?
C15 C3 1.507(19) . ?
C6 C1 1.3900 . ?
C6 C5 1.3900 . ?
C1 C1 1.49(4) 17_656 ?
C1 C2 1.3900 . ?
C2 C3 1.3900 . ?
C3 C4 1.3900 . ?
C4 H4 0.9300 . ?
C4 C5 1.3900 . ?
C5 C8 1.492(16) . ?
C9 H9 0.9300 . ?
C9 C10 1.3900 . ?
C9 C8 1.3900 . ?
C10 H10 0.9300 . ?
C10 C11 1.3900 . ?
C11 C12 1.3900 . ?
C11 C14 1.501(17) . ?
C12 H12 0.9300 . ?
C12 C13 1.3900 . ?
C13 H13 0.9300 . ?
C13 C8 1.3900 . ?
O2 Zr1 2.20(2) 14_654 ?
O2 C14 1.282(18) . ?
O3 Zr1 2.28(2) 15_554 ?
O3 C14 1.269(18) . ?
C21 O5 1.25(2) . ?
O9 Zr1 2.210(14) 3_565 ?
O9 Zr1 2.210(15) 2_665 ?
O6 Zr2 2.019(5) 3_565 ?
O6 Zr2 2.019(5) 2_665 ?
O7 Zr2 1.94(2) 2_665 ?
O7 Zr1 2.291(17) 2_665 ?
O7 O7 1.04(3) 10_456 ?
O1W H1WA 1.1160 . ?
O1W H1WB 1.1134 . ?
loop_
_geom_torsion_atom_site_label_1
_geom_torsion_atom_site_label_2
_geom_torsion_atom_site_label_3
_geom_torsion_atom_site_label_4
_geom_torsion
_geom_torsion_site_symmetry_1
_geom_torsion_site_symmetry_2
_geom_torsion_site_symmetry_3
_geom_torsion_site_symmetry_4
_geom_torsion_publ_flag
Zr1 O4 C21 C18 -171.6(17) . . . . ?
Zr1 O4 C21 O5 6(4) . . . . ?
Zr1 O2 C14 C11 -175.3(16) 14_654 . . . ?
Zr1 O2 C14 O3 0(4) 14_654 . . . ?
Zr1 O3 C14 C11 -176.9(14) 15_554 . . . ?
Zr1 O3 C14 O2 7(4) 15_554 . . . ?
O4 C21 O5 Zr2 41(4) . . . . ?
C7 C6 C1 C1 -5(4) . . . 17_656 ?
C7 C6 C1 C2 172(3) . . . . ?
C7 C6 C5 C4 -171(4) . . . . ?
C7 C6 C5 C8 2(4) . . . . ?
O1 C2 C3 C15 12(3) . . . . ?
O1 C2 C3 C4 -172(3) . . . . ?
C16 C17 C18 C19 0.0 . . . . ?
C16 C17 C18 C21 174.9(19) . . . . ?
C16 C15 C3 C2 -40(3) . . . . ?
C16 C15 C3 C4 144.2(18) . . . . ?
C17 C16 C15 C20 0.0 . . . . ?
C17 C16 C15 C3 -175(2) . . . . ?
C17 C18 C19 C20 0.0 . . . . ?
C17 C18 C21 O4 7(2) . . . . ?
C17 C18 C21 O5 -170(3) . . . . ?
C18 C19 C20 C15 0.0 . . . . ?
C18 C21 O5 Zr2 -143(2) . . . . ?
C19 C18 C21 O4 -178(2) . . . . ?
C19 C18 C21 O5 5(3) . . . . ?
C19 C20 C15 C16 0.0 . . . . ?
C19 C20 C15 C3 175(2) . . . . ?
C20 C15 C3 C2 144.9(19) . . . . ?
C20 C15 C3 C4 -31(3) . . . . ?
C15 C16 C17 C18 0.0 . . . . ?
C15 C3 C4 C5 176(3) . . . . ?
C6 C1 C2 O1 172(3) . . . . ?
C6 C1 C2 C3 0.0 . . . . ?
C6 C5 C8 C9 133.5(18) . . . . ?
C6 C5 C8 C13 -46(2) . . . . ?
C1 C6 C5 C4 0.0 . . . . ?
C1 C6 C5 C8 173(2) . . . . ?
C1 C1 C2 O1 -10(3) 17_656 . . . ?
C1 C1 C2 C3 178(4) 17_656 . . . ?
C1 C2 C3 C15 -176(3) . . . . ?
C1 C2 C3 C4 0.0 . . . . ?
C2 C3 C4 C5 0.0 . . . . ?
C3 C4 C5 C6 0.0 . . . . ?
C3 C4 C5 C8 -174(2) . . . . ?
C4 C5 C8 C9 -53.0(19) . . . . ?
C4 C5 C8 C13 127.5(18) . . . . ?
C5 C6 C1 C1 -178(4) . . . 17_656 ?
C5 C6 C1 C2 0.0 . . . . ?
C9 C10 C11 C12 0.0 . . . . ?
C9 C10 C11 C14 -178.5(16) . . . . ?
C10 C9 C8 C5 -179.5(10) . . . . ?
C10 C9 C8 C13 0.0 . . . . ?
C10 C11 C12 C13 0.0 . . . . ?
C10 C11 C14 O2 -176(2) . . . . ?
C10 C11 C14 O3 7(2) . . . . ?
C11 C12 C13 C8 0.0 . . . . ?
C12 C11 C14 O2 5(3) . . . . ?
C12 C11 C14 O3 -171.4(19) . . . . ?
C12 C13 C8 C5 179.5(10) . . . . ?
C12 C13 C8 C9 0.0 . . . . ?
C8 C9 C10 C11 0.0 . . . . ?
C21 C18 C19 C20 -174.9(19) . . . . ?
C14 C11 C12 C13 178.5(16) . . . . ?
loop_
_twin_individual_id
_twin_individual_mass_fraction_refined
1 0.55(3)
2 0.45(3)
