#------------------------------------------------------------------------------
#$Date: 2020-06-04 03:57:56 +0300 (Thu, 04 Jun 2020) $
#$Revision: 252594 $
#$URL: file:///home/coder/svn-repositories/cod/cif/4/13/49/4134954.cif $
#------------------------------------------------------------------------------
#
# This file is available in the Crystallography Open Database (COD),
# http://www.crystallography.net/
#
# All data on this site have been placed in the public domain by the
# contributors.
#
data_4134954
loop_
_publ_author_name
'Jiang, Hong'
'Zhang, Wenqiang'
'Kang, Xing'
'Cao, Ziping'
'Chen, Xu'
'Liu, Yan'
'Cui, Yong'
_publ_section_title
;
 Topology-Based Functionalization of Robust Chiral Zr-Based Metal-Organic
 Frameworks for Catalytic Enantioselective Hydrogenation.
;
_journal_issue                   21
_journal_name_full               'Journal of the American Chemical Society'
_journal_page_first              9642
_journal_page_last               9652
_journal_paper_doi               10.1021/jacs.0c00637
_journal_volume                  142
_journal_year                    2020
_chemical_formula_moiety         '0.13(C320 H176 O160 Zr24)'
_chemical_formula_sum            'C40 H22 O20 Zr3'
_chemical_formula_weight         1096.23
_space_group_crystal_system      orthorhombic
_space_group_IT_number           69
_space_group_name_Hall           '-F 2 2'
_space_group_name_H-M_alt        'F m m m'
_atom_sites_solution_hydrogens   geom
_audit_creation_date             2020-01-17
_audit_creation_method
;
Olex2 1.2
(compiled 2018.05.29 svn.r3508 for OlexSys, GUI svn.r5506)
;
_cell_angle_alpha                90
_cell_angle_beta                 90
_cell_angle_gamma                90
_cell_formula_units_Z            8
_cell_length_a                   18.1834(15)
_cell_length_b                   33.744(2)
_cell_length_c                   34.489(2)
_cell_measurement_reflns_used    6426
_cell_measurement_temperature    173
_cell_measurement_theta_max      45.732
_cell_measurement_theta_min      4.565
_cell_volume                     21162(2)
_computing_molecular_graphics    'Olex2 (Dolomanov et al., 2009)'
_computing_publication_material  'Olex2 (Dolomanov et al., 2009)'
_computing_structure_refinement  'ShelXL (Sheldrick, 2015)'
_diffrn_ambient_temperature      173
_diffrn_measured_fraction_theta_full 0.572
_diffrn_measured_fraction_theta_max 0.974
_diffrn_measurement_device_type  'Bruker APEX-II CCD'
_diffrn_radiation_type           MoK\a
_diffrn_radiation_wavelength     0.71073
_diffrn_reflns_av_R_equivalents  0.0730
_diffrn_reflns_av_unetI/netI     0.0588
_diffrn_reflns_Laue_measured_fraction_full 0.572
_diffrn_reflns_Laue_measured_fraction_max 0.974
_diffrn_reflns_limit_h_max       18
_diffrn_reflns_limit_h_min       -15
_diffrn_reflns_limit_k_max       27
_diffrn_reflns_limit_k_min       -33
_diffrn_reflns_limit_l_max       34
_diffrn_reflns_limit_l_min       -22
_diffrn_reflns_number            15639
_diffrn_reflns_point_group_measured_fraction_full 0.572
_diffrn_reflns_point_group_measured_fraction_max 0.974
_diffrn_reflns_theta_full        25.242
_diffrn_reflns_theta_max         20.809
_diffrn_reflns_theta_min         1.181
_exptl_absorpt_coefficient_mu    0.323
_exptl_crystal_colour            'clear light colourless'
_exptl_crystal_colour_lustre     clear
_exptl_crystal_colour_modifier   light
_exptl_crystal_colour_primary    colourless
_exptl_crystal_density_diffrn    0.688
_exptl_crystal_description       octahedral
_exptl_crystal_F_000             4336
_exptl_crystal_size_max          0.08
_exptl_crystal_size_mid          0.06
_exptl_crystal_size_min          0.02
_refine_diff_density_max         0.785
_refine_diff_density_min         -0.747
_refine_diff_density_rms         0.079
_refine_ls_extinction_method     none
_refine_ls_goodness_of_fit_ref   1.128
_refine_ls_hydrogen_treatment    constr
_refine_ls_matrix_type           full
_refine_ls_number_parameters     150
_refine_ls_number_reflns         2937
_refine_ls_number_restraints     168
_refine_ls_restrained_S_all      1.100
_refine_ls_R_factor_all          0.0871
_refine_ls_R_factor_gt           0.0547
_refine_ls_shift/su_max          0.000
_refine_ls_shift/su_mean         0.000
_refine_ls_structure_factor_coef Fsqd
_refine_ls_weighting_details
;
 w=1/[\s^2^(Fo^2^)+(0.0922P)^2^+212.8261P]
 where P=(Fo^2^+2Fc^2^)/3
;
_refine_ls_weighting_scheme      calc
_refine_ls_wR_factor_gt          0.1720
_refine_ls_wR_factor_ref         0.1961
_reflns_Friedel_coverage         0.000
_reflns_number_gt                1990
_reflns_number_total             2937
_reflns_threshold_expression     'I > 2\s(I)'
_cod_data_source_file            ja0c00637_si_002.cif
_cod_data_source_block           flu-CMOF-1
_cod_depositor_comments
'Adding full bibliography for 4134951--4134954.cif.'
_cod_original_cell_volume        21162(3)
_cod_database_code               4134954
_shelxl_version_number           2013-2
_shelx_space_group_comment
;
The symmetry employed for this shelxl refinement is uniquely defined
by the following loop, which should always be used as a source of
symmetry information in preference to the above space-group names.
They are only intended as comments.
;
_olex2_refinement_description
;
1. Fixed Uiso
 At 1.2 times of:
  All C(H) groups
 At 1.5 times of:
  All O(H) groups
2. Uiso/Uaniso restraints and constraints
C9 \\sim C8 \\sim C7 \\sim C6 \\sim C10 \\sim C5 \\sim C3 \\sim C4 \\sim C11:
within 1.7A with sigma of 0.04 and sigma for terminal atoms of 0.08
C2 \\sim C3 \\sim C4 \\sim O1 \\sim C5 \\sim C6 \\sim C7 \\sim C8 \\sim C11
\\sim C9 \\sim C10: within 1.7A with sigma of 0.04 and sigma for terminal atoms
of 0.08
O2 \\sim C11 \\sim O3 \\sim C8 \\sim C7 \\sim C6 \\sim C5 \\sim C10 \\sim C9
\\sim C3 \\sim C4 \\sim C2 \\sim O1: within 1.7A with sigma of 0.04 and sigma
for terminal atoms of 0.08
Uanis(C2) = Uanis(C1)
3. Rigid body (RIGU) restrains
 O2, C3, C4, H4, C9, H9, C7, H7, C8, C6, H6, C5, C11, C10, H10, O3, O1, C2
 with sigma for 1-2 distances of 0.004 and sigma for 1-3 distances of 0.004
4.a Aromatic/amide H refined with riding coordinates:
 C4(H4), C9(H9), C7(H7), C6(H6), C10(H10)
4.b Idealised tetrahedral OH refined as rotating group:
 O1(H1)
;
_shelx_res_file
;
TITL qq in Fmmm
CELL 0.71073 18.1834 33.7439 34.4894 90 90 90
ZERR 8 0.0015 0.0021 0.002 0 0 0
LATT 4
SYMM -X,-Y,+Z
SYMM +X,-Y,-Z
SYMM -X,+Y,-Z
SFAC C H O Zr
UNIT 320 176 160 24
SIMU 0.04 0.08 1.7 C9 C8 C7 C6 C10 C5 C3 C4 C11
SIMU 0.04 0.08 1.7 C2 C3 C4 O1 C5 C6 C7 C8 C11 C9 C10
SIMU 0.04 0.08 1.7 O2 C11 O3 C8 C7 C6 C5 C10 C9 C3 C4 C2 O1
RIGU O2 C3 C4 H4 C9 H9 C7 H7 C8 C6 H6 C5 C11 C10 H10 O3 O1 C2
EADP C2 C1

L.S. 44 0 152
PLAN  20
GRID
MORE -1
BOND $H
CONF
ABIN
fmap
acta
MERG 2
REM <olex2.extras>
REM <HklSrc "%.\\qq_sq.hkl">
REM </olex2.extras>

WGHT    0.092200  212.826111
FVAR       0.02583
ZR1   4    0.000000    0.500000    0.070760    10.25000    0.12553    0.01972 =
         0.00861    0.00000    0.00000    0.00000
ZR2   4    0.097489    0.447390    0.000000    10.50000    0.12775    0.02561 =
         0.01045    0.00000    0.00000    0.00658
O2    3    0.134531    0.425014    0.059321    11.00000    0.18634    0.06865 =
         0.02383   -0.00079   -0.00010    0.02965
C3    1    0.219045    0.334188    0.218942    11.00000    0.16090    0.03950 =
         0.02395   -0.00106   -0.01675    0.00753
C4    1    0.250000    0.354186    0.250000    10.50000    0.15998    0.03865 =
         0.02662    0.00000   -0.01667    0.00000
AFIX  43
H4    2    0.250000    0.381747    0.250000    10.50000   -1.20000
AFIX   0
C9    1    0.120521    0.414151    0.163046    11.00000    0.20238    0.06176 =
         0.03012    0.00222   -0.00052    0.04130
AFIX  43
H9    2    0.089412    0.435374    0.168237    11.00000   -1.20000
AFIX   0
C7    1    0.189083    0.375089    0.118397    11.00000    0.17182    0.05701 =
         0.02546   -0.00365   -0.00551    0.02542
AFIX  43
H7    2    0.206337    0.370423    0.093427    11.00000   -1.20000
AFIX   0
C8    1    0.142549    0.406687    0.125452    11.00000    0.16128    0.04645 =
         0.02150    0.00227   -0.00573    0.01539
C6    1    0.209803    0.350623    0.148227    11.00000    0.18124    0.05340 =
         0.02856   -0.00580   -0.01592    0.02276
AFIX  43
H6    2    0.238022    0.328295    0.142884    11.00000   -1.20000
AFIX   0
C5    1    0.189549    0.358520    0.186054    11.00000    0.16348    0.04136 =
         0.02645   -0.00341   -0.01867    0.00934
C11   1    0.114386    0.432348    0.093834    11.00000    0.17290    0.04718 =
         0.02369   -0.00179   -0.00621    0.01098
C10   1    0.144368    0.390348    0.192845    11.00000    0.20483    0.05745 =
         0.02522   -0.00004   -0.00809    0.03884
AFIX  43
H10   2    0.129607    0.395917    0.218081    11.00000   -1.20000
AFIX   0
O4    3    0.097962    0.500000    0.035076    10.50000    0.19750    0.03977 =
         0.05866    0.00000    0.05251    0.00000
O7    3    0.089222    0.382026    0.000000    10.50000    0.17243    0.04657 =
         0.04249    0.00000    0.00000   -0.00067
O6    3    0.219555    0.448726    0.000000    10.50000    0.11536    0.08859 =
         0.06308    0.00000    0.00000    0.00628
O3    3    0.072030    0.460665    0.103534    11.00000    0.15428    0.03712 =
         0.02003   -0.00139   -0.00667    0.00138
O5    3    0.000000    0.446926    0.034171    10.50000    0.09634    0.13222 =
         0.05082   -0.04834    0.00000    0.00000
O1    3    0.174215    0.272590    0.190364    11.00000    0.21320    0.08989 =
         0.07856   -0.01892   -0.04220    0.00460
AFIX 147
H1    2    0.202109    0.263470    0.173952    11.00000   -1.50000
AFIX   0
C2    1    0.216797    0.292836    0.220081    11.00000    0.14058    0.03731 =
         0.02462   -0.00584   -0.00773    0.00599
C1    1    0.250000    0.271932    0.250000    10.50000    0.14058    0.03731 =
         0.02462   -0.00584   -0.00773    0.00599
HKLF 4

REM  qq in Fmmm
REM R1 =  0.0547 for    1990 Fo > 4sig(Fo)  and  0.0871 for all    2937 data
REM    150 parameters refined using    168 restraints

END

WGHT      0.0922    212.8230

REM Highest difference peak  0.785,  deepest hole -0.747,  1-sigma level  0.079
Q1    1   0.0000  0.4692  0.0000  10.25000  0.05    0.79
Q2    1   0.2500  0.2500  0.1537  10.50000  0.05    0.70
Q3    1   0.1193  0.3524  0.0000  10.50000  0.05    0.64
Q4    1   0.0000  0.4254  0.0000  10.25000  0.05    0.60
Q5    1   0.2851  0.4386 -0.0064  11.00000  0.05    0.58
Q6    1   0.1963  0.4280  0.0000  10.50000  0.05    0.48
Q7    1   0.0000  0.3611  0.0000  10.25000  0.05    0.45
Q8    1   0.0977  0.4789  0.0705  11.00000  0.05    0.43
Q9    1   0.1843  0.4708  0.0000  10.50000  0.05    0.41
Q10   1   0.0000  0.5000  0.1024  10.25000  0.05    0.35
Q11   1  -0.0496  0.4677  0.0247  11.00000  0.05    0.30
Q12   1   0.0991  0.5000  0.0923  10.50000  0.05    0.29
Q13   1   0.0000  0.4122  0.0715  10.50000  0.05    0.28
Q14   1   0.0250  0.5000  0.0676  10.50000  0.05    0.27
Q15   1   0.0000  0.5000  0.0263  10.25000  0.05    0.26
Q16   1   0.1524  0.4004  0.0000  10.50000  0.05    0.26
Q17   1   0.0515  0.4189  0.0441  11.00000  0.05    0.25
Q18   1   0.0000  0.5000  0.3629  10.25000  0.05    0.24
Q19   1   0.0000  0.3672  0.0785  10.50000  0.05    0.24
Q20   1   0.1614  0.2377  0.2087  11.00000  0.05    0.23
;
_shelx_res_checksum              5864
_shelx_hkl_file
;
  -2   0   0   49.92    2.58
   2   0   0   49.64    2.58
   4   0   0   12.40    1.16
  -4   0   0   11.28    1.16
   6   0   0    6.75    1.02
  -6   0   0    5.65    1.20
  -6   0   0   10.10    1.13
   8   0   0   97.48    5.51
  -8   0   0   98.12    5.47
 -10   0   0  132.76    7.75
  10   0   0  160.92    7.95
  10   0   0  135.56    7.67
  12   0   0   10.60    2.19
  12   0   0    9.27    1.79
  14   0   0   -0.35    1.78
  16   0   0    0.18    1.59
  18   0   0   -1.99    1.58
  -2   2   0  258.08   12.89
   2  -2   0  266.58   12.89
  -2  -2   0  261.66   12.84
   4  -2   0  114.20    5.81
   4   2   0  106.31    5.74
  -4  -2   0  115.71    5.76
  -6  -2   0   21.59    1.88
  -6   2   0   20.39    1.85
   6  -2   0   21.37    1.64
   6  -2   0   22.53    1.92
  -6  -2   0   24.52    1.92
   6   2   0   21.55    1.81
  -8   2   0   52.39    3.19
  -8  -2   0   47.92    3.33
   8  -2   0   49.19    3.21
   8  -2   0   47.10    3.02
   8   2   0   49.60    3.45
  10  -2   0   47.88    6.06
  10  -2   0   35.44    2.81
  10   2   0   40.88    3.53
 -10  -2   0   32.50    3.26
  10  -2   0   46.75    3.31
  12   2   0    8.81    2.16
 -12  -2   0    7.99    1.98
  12   2   0    7.45    1.76
  12  -2   0    9.64    1.95
  14  -2   0   -0.49    1.80
  14   2   0   -0.85    1.85
  16   2   0   -0.62    1.66
  16  -2   0   -1.14    1.60
  18  -2   0   -0.72    1.49
  18   2   0    0.14    1.55
   2  -4   0   24.21    1.51
   4  -4   0  202.57    9.97
  -4  -4   0  185.57    9.92
  -4  -4   0  204.08    9.87
   6   4   0    4.74    1.36
   6  -4   0    2.91    0.66
  -6  -4   0    2.60    0.98
   6  -4   0    4.37    0.98
   6  -4   0    3.07    0.94
  -6  -4   0    3.12    0.84
  -8  -4   0    2.25    1.19
   8  -4   0    4.02    1.06
   8   4   0   -0.16    1.52
   8  -4   0    6.34    2.19
   8  -4   0    3.30    0.79
  10  -4   0    7.38    2.87
  10   4   0    0.12    2.02
 -10  -4   0    5.12    1.54
  10  -4   0    2.07    1.36
  12   4   0   17.00    2.58
 -12  -4   0   16.62    2.26
  12  -4   0   13.11    2.17
  14  -4   0   -0.36    1.81
  14   4   0   -1.31    1.45
  14   4   0   -0.51    1.77
  16   4   0   -0.63    1.61
  16  -4   0    1.53    1.94
   2  -6   0   57.60    3.13
   4  -6   0  948.20   46.05
  -4  -6   0  926.05   46.01
  -4  -6   0  952.00   45.89
   6  -6   0    1.70    0.90
   6  -6   0    1.98    0.58
  -6  -6   0    1.73    1.00
  -6  -6   0    1.43    1.25
   6  -6   0    2.81    1.58
   6  -6   0    0.92    0.87
  -6  -6   0    2.77    1.38
   8  -6   0    2.26    1.81
   8  -6   0    0.99    1.03
   8   6   0   -2.64    1.43
   8  -6   0    1.09    0.65
  -8  -6   0    0.85    1.16
   8  -6   0    1.19    1.06
  10   6   0    8.66    2.20
  10  -6   0   10.97    3.01
 -10  -6   0   11.56    1.86
  10  -6   0    9.32    1.71
 -12  -6   0    2.27    1.74
  12  -6   0    5.30    1.81
  12   6   0   -1.27    1.98
 -14  -6   0    5.85    1.95
  14   6   0    1.87    1.76
  14  -6   0    0.84    1.79
  14   6   0    2.03    1.53
  16   6   0    0.03    1.63
  16  -6   0    0.46    1.66
  -2  -8   0   66.12    4.02
   2  -8   0   82.85    4.02
  -4  -8   0  233.41   11.69
   4  -8   0  227.81   11.67
  -6  -8   0   78.07    4.57
   6  -8   0   79.71    4.62
   6  -8   0   77.89    4.22
   6  -8   0   74.82    5.33
  -6  -8   0   75.15    4.51
   6  -8   0   81.07    4.48
   8  -8   0    0.69    1.11
  -8  -8   0    2.69    1.29
   8   8   0    3.32    1.46
   8  -8   0    0.65    1.13
   8  -8   0    4.69    1.82
  10  -8   0    2.81    2.22
  10  -8   0    2.46    1.46
 -10  -8   0    2.44    1.49
  10   8   0    1.16    1.79
 -12  -8   0    3.91    1.69
  12   8   0    2.45    2.03
  14  -8   0    2.58    1.77
  14   8   0    0.61    1.78
 -14  -8   0   -0.12    1.75
  16   8   0    1.84    1.69
  16  -8   0    2.85    1.57
   0 -10   0  111.09    5.78
  -2 -10   0   28.71    2.08
   2 -10   0   32.04    2.02
  -4 -10   0   11.51    1.38
   4 -10   0   11.96    1.33
  -4 -10   0   12.36    1.53
   4 -10   0   10.63    1.17
   4 -10   0   12.71    1.38
   6 -10   0  100.17    5.80
  -6 -10   0  111.21    5.66
   6 -10   0   98.42    5.56
  -6 -10   0   95.14    5.71
  -8 -10   0   38.49    3.34
   8 -10   0   38.97    3.38
   8 -10   0   39.73    3.08
   8  10   0   45.54    3.20
  10 -10   0    7.42    2.41
 -10 -10   0    8.97    1.91
  10  10   0   16.82    2.39
  10 -10   0   10.89    1.78
  12 -10   0    2.39    1.61
  12  10   0    0.62    1.92
 -12 -10   0    1.43    1.66
  14 -10   0    2.40    1.58
  14  10   0   -0.16    1.64
 -14 -10   0    6.66    2.12
  16  10   0    1.28    1.57
  16 -10   0    1.20    1.64
   0 -12   0   11.00    1.19
   0 -12   0   10.71    1.33
   2 -12   0    6.66    1.13
   2 -12   0    6.37    0.90
  -2 -12   0    5.46    1.13
  -2 -12   0    5.80    0.98
   2 -12   0    6.31    0.91
   4 -12   0   17.89    1.78
  -4 -12   0   16.44    1.93
   4 -12   0   19.77    1.57
   4 -12   0   15.22    1.31
  -4 -12   0   18.50    1.85
   4 -12   0   16.44    1.69
   6 -12   0   88.31    4.99
  -6 -12   0   88.17    5.07
   6 -12   0   85.42    5.20
  -6 -12   0   88.03    5.17
   6 -12   0   84.13    4.68
  -8 -12   0   65.87    4.54
   8 -12   0   74.23    4.47
  -8 -12   0   72.06    4.85
   8 -12   0   70.56    4.79
  10 -12   0    2.99    1.52
  10  12   0    6.64    2.16
 -10 -12   0    2.86    1.81
 -12 -12   0   -0.14    1.68
  12 -12   0   -2.97    1.40
  12  12   0    0.57    1.85
  14  12   0    1.54    1.67
 -14 -12   0    0.93    2.10
  14 -12   0   -0.13    1.56
  16  12   0   -0.14    1.50
  16 -12   0    2.42    1.76
   0 -14   0  139.49    7.77
   0 -14   0  156.27    7.83
   0 -14   0  152.59    7.66
  -2 -14   0   11.33    1.19
   2 -14   0   11.18    1.34
  -2 -14   0   15.83    1.69
   2 -14   0   15.54    1.63
   2 -14   0   12.34    1.34
  -2 -14   0   13.06    1.53
   2 -14   0   13.04    1.21
  -4 -14   0   19.94    2.11
  -4 -14   0   22.18    1.63
  -4 -14   0   16.37    2.16
   4 -14   0   19.90    2.09
   4 -14   0   21.27    1.92
   4 -14   0   18.98    1.55
  -6 -14   0   37.32    3.06
   6 -14   0   39.62    2.45
  -6 -14   0   35.64    3.11
   6 -14   0   40.71    2.92
   6 -14   0   35.62    3.11
  -8 -14   0   21.19    2.65
   8 -14   0   17.75    2.43
  -8 -14   0   19.02    2.56
   8 -14   0   21.61    1.78
   8 -14   0   26.03    2.47
  10  14   0   11.82    2.33
  10 -14   0    7.27    1.65
 -10 -14   0    7.75    2.21
  12  14   0   -0.04    1.80
  12 -14   0   -1.19    1.31
 -12 -14   0   -0.42    1.78
 -14 -14   0   -0.39    2.17
  14  14   0    0.00    1.56
  14 -14   0    1.61    1.64
  16  14   0    1.22    1.52
  16 -14   0    1.55    1.63
   0 -16   0   69.54    4.37
   0 -16   0   78.20    4.23
   0 -16   0   81.43    4.48
  -2 -16   0  120.21    6.59
   2 -16   0  123.65    6.37
   2 -16   0  105.92    6.43
   2 -16   0  120.94    6.54
  -2 -16   0  120.06    6.33
  -2 -16   0  133.36    6.64
   2 -16   0  119.76    6.45
  -4 -16   0   -0.01    0.92
   4 -16   0    0.96    0.82
  -4 -16   0    0.01    0.61
   4 -16   0    0.33    0.49
  -4 -16   0   -2.49    1.10
   4 -16   0    0.87    0.89
  -6 -16   0    2.77    1.23
   6 -16   0    1.90    0.68
  -6 -16   0    2.24    1.48
   6 -16   0    1.88    1.13
   6 -16   0    1.61    1.29
   8 -16   0   21.27    1.89
  -8 -16   0   22.93    2.91
  -8 -16   0   21.92    2.79
   8 -16   0   21.86    2.67
   8 -16   0   21.73    2.67
 -10 -16   0   33.68    3.97
  10  16   0   38.04    3.47
  10 -16   0   28.02    3.15
  12 -16   0    2.02    1.59
  12  16   0    3.06    1.84
 -12 -16   0    3.98    2.12
  14 -16   0   -0.31    1.41
 -14 -16   0   -1.42    2.21
  14  16   0   -0.67    1.51
   0 -18   0  256.75   12.98
   0 -18   0  254.78   12.79
   0 -18   0  245.50   12.98
  -2 -18   0   37.63    2.46
   2 -18   0   34.36    2.80
  -2 -18   0   40.24    2.86
  -2 -18   0   43.12    2.99
   2 -18   0   36.37    2.44
   2 -18   0   36.01    2.65
   2 -18   0   37.66    2.75
   4 -18   0    0.94    0.90
  -4 -18   0   -0.19    0.60
   4 -18   0   -1.09    0.88
   4 -18   0    0.32    0.55
  -4 -18   0    0.20    1.35
  -4 -18   0   -1.38    0.99
  -6 -18   0    4.57    1.49
  -6 -18   0    6.14    1.87
   6 -18   0    7.86    1.46
   6 -18   0    6.38    1.71
   6 -18   0    5.41    1.01
   8 -18   0    9.79    1.92
  -8 -18   0   18.43    2.56
  -8 -18   0   12.99    2.49
   8 -18   0   10.79    1.39
  10 -18   0   41.62    3.87
  10  18   0   55.32    4.26
 -10 -18   0   42.74    4.69
  12  18   0    5.01    1.83
 -12 -18   0   11.11    2.62
  12 -18   0    6.52    1.79
  14 -18   0   -0.56    1.54
  14  18   0    2.36    1.59
   0 -20   0  141.09    7.79
   0 -20   0  142.38    7.54
   0 -20   0  142.50    7.76
  -2 -20   0   42.91    3.18
   2 -20   0   37.44    2.57
  -2 -20   0   44.39    3.19
   2 -20   0   33.46    2.84
  -2 -20   0   36.92    2.59
  -4 -20   0    1.23    1.16
   4 -20   0    0.98    1.08
   4 -20   0    1.44    1.08
  -4 -20   0    1.12    0.79
   4 -20   0    1.74    0.72
  -4 -20   0    4.88    1.57
  -6 -20   0    9.36    1.91
   6 -20   0    7.49    1.22
  -6 -20   0    8.24    2.11
   6 -20   0    8.34    1.62
   8 -20   0   10.60    1.84
  -8 -20   0   12.61    2.63
  -8 -20   0   14.38    2.64
   8 -20   0   10.29    1.39
  10 -20   0   34.33    3.51
  10  20   0   39.36    3.90
 -10 -20   0   37.49    4.51
 -12 -20   0    4.69    2.41
  12 -20   0    2.00    1.65
  12  20   0    2.14    1.65
  14 -20   0   -0.78    1.52
  14  20   0    0.40    1.49
   0 -22   0  107.30    6.49
   0 -22   0  118.12    6.66
   0 -22   0  116.70    6.28
  -2 -22   0   33.88    2.59
  -2 -22   0   41.71    3.26
   2 -22   0   37.51    2.61
   2 -22   0   32.37    2.95
  -2 -22   0   38.08    3.19
   4 -22   0    0.72    0.74
  -4 -22   0    1.05    1.21
  -4 -22   0   -0.02    0.75
  -4 -22   0    2.13    1.54
   4 -22   0    0.64    1.07
   6 -22   0    0.70    1.13
   6 -22   0    0.69    0.76
  -6 -22   0    1.96    1.51
  -6 -22   0   -1.77    1.78
   8 -22   0    2.11    1.42
   8 -22   0    2.34    0.95
  -8 -22   0    2.50    2.18
  -8 -22   0    3.47    2.43
  10  22   0    3.52    1.77
 -10 -22   0   15.79    3.31
  10 -22   0    8.77    1.95
  12  22   0    2.56    1.60
  12 -22   0    5.22    1.76
   0 -24   0   29.55    2.34
   0 -24   0   28.18    2.75
  -2 -24   0   23.16    2.16
   2 -24   0   25.53    2.14
   2 -24   0   22.28    2.55
  -2 -24   0   25.70    2.90
  -2 -24   0   23.47    2.77
  -4 -24   0    8.38    1.41
   4 -24   0   10.63    1.48
   4 -24   0   10.19    1.83
  -4 -24   0    8.78    1.86
  -4 -24   0    7.69    2.10
   6 -24   0    1.20    1.37
  -6 -24   0   -1.54    1.89
  -6 -24   0   -0.49    1.64
   6 -24   0    0.98    0.90
  -8 -24   0    7.53    2.66
   8 -24   0    4.09    1.12
  -8 -24   0    4.07    2.37
   8 -24   0    1.95    1.56
  10 -24   0    4.42    1.79
  10  24   0    2.08    1.47
 -10 -24   0   11.67    2.96
  12 -24   0   -1.84    1.36
  12  24   0    0.28    1.45
   0 -26   0    7.29    1.30
   0 -26   0    8.64    1.89
   2 -26   0    8.89    1.77
  -2 -26   0    8.52    1.46
   2 -26   0    7.96    1.34
  -2 -26   0    9.37    2.13
  -4 -26   0   11.08    2.18
  -4 -26   0   15.37    2.52
   4 -26   0   18.11    2.04
  -4 -26   0   16.13    1.97
   4 -26   0   15.06    2.34
  -6 -26   0   14.18    2.89
   6 -26   0   14.32    2.27
   6 -26   0   12.13    1.73
  -6 -26   0    8.89    2.72
  -8 -26   0    1.01    2.24
   8 -26   0    2.67    1.21
  -8 -26   0    4.00    2.71
   8 -26   0    0.08    1.58
  10  26   0    0.08    1.32
  10 -26   0   -1.50    1.45
   0 -28   0   -0.40    1.37
   0 -28   0   -0.94    0.82
  -2 -28   0    3.36    1.23
  -2 -28   0    0.01    1.58
   2 -28   0    3.24    1.20
   2 -28   0    4.37    1.70
  -4 -28   0   17.29    2.75
   4 -28   0   23.99    2.48
   4 -28   0   24.44    2.96
  -4 -28   0   18.25    3.34
  -4 -28   0   21.52    2.47
   6 -28   0   19.76    2.84
  -6 -28   0   18.95    3.05
  -6 -28   0   18.34    3.53
   6 -28   0   23.56    2.52
  -8 -28   0    4.36    2.28
   8 -28   0    0.77    1.08
   8 -28   0    1.39    1.69
   0 -30   0    0.70    1.61
   0 -30   0    0.75    1.09
   2 -30   0    1.51    1.18
  -2 -30   0    3.22    1.31
   2 -30   0    1.79    1.64
  -2 -30   0    0.69    1.73
   4 -30   0   30.05    3.25
   4 -30   0   33.95    2.93
  -4 -30   0   28.20    3.06
  -4 -30   0   25.23    3.41
   6 -30   0   26.55    3.24
  -6 -30   0   24.18    3.25
   6 -30   0   31.04    2.86
   8 -30   0    0.01    1.16
   8 -30   0    0.63    1.97
  -8 -30   0   -2.74    4.32
   0 -32   0   -0.81    1.65
   0 -32   0   -1.37    1.06
   2 -32   0    9.11    2.11
  -2 -32   0   12.24    1.88
  -2 -32   0    3.75    2.14
   2 -32   0   10.14    1.71
  -4 -32   0   10.69    1.92
  -4 -32   0    6.11    2.46
   4 -32   0   10.84    2.23
   4 -32   0   11.11    1.80
   1  -1   1  801.59   35.92
  -1   1   1  644.50   35.98
  -1   1   1  726.27   35.90
  -1   1  -1  762.19   35.91
   1  -1  -1  764.29   35.90
  -3   1   1    6.04    0.74
  -3  -1  -1    6.11    0.76
   3  -1   1    7.61    0.74
   3   1  -1    6.54    0.77
  -3  -1   1    5.75    0.67
   3   1   1    5.82    0.63
   3  -1  -1    5.88    0.68
  -3   1  -1    7.16    0.75
  -5  -1  -1   78.17    4.15
  -5  -1  -1   75.02    4.14
   5   1  -1   72.07    4.15
   5  -1   1   76.62    4.17
  -5  -1   1   78.66    4.16
  -5  -1   1   73.20    4.15
   5   1   1   71.53    4.11
  -5   1  -1   73.78    4.22
  -5   1  -1   83.12    4.13
   5  -1  -1   75.12    4.19
   7  -1   1    0.72    0.86
  -7  -1  -1    3.22    1.04
   7   1  -1    3.28    1.20
   7  -1   1    1.10    1.14
  -7   1   1    4.76    1.07
   7   1   1    3.46    1.27
  -7  -1   1    4.21    1.11
   7  -1  -1    0.79    0.84
   7  -1  -1    2.01    1.06
  -7   1  -1    1.58    1.00
  -9   1   1  114.03    6.26
   9  -1   1  104.15    6.13
   9   1  -1  119.81    6.47
   9  -1   1  114.43    6.32
  -9  -1  -1  110.76    6.38
  -9  -1   1  107.49    6.35
  -9   1  -1  114.92    6.35
   9  -1  -1  110.71    6.11
   9  -1  -1  124.60    8.22
   9   1   1  118.72    6.45
   9  -1  -1  112.34    6.32
  11  -1   1   34.75    2.92
 -11  -1  -1   34.81    3.20
  11   1  -1   32.40    5.00
  11  -1   1   39.64    3.35
  11   1  -1   33.85    2.96
  11  -1   1   29.61    4.87
  11   1  -1   44.31    3.61
  11  -1  -1   27.84    4.78
  11  -1  -1   31.43    3.01
  11   1   1   48.16    3.51
 -11  -1   1   34.59    3.19
  11  -1  -1   39.87    3.41
  11   1   1   33.16    3.12
  13  -1   1    1.87    1.76
  13   1  -1    0.44    1.96
  13   1   1    0.74    1.92
  13   1   1    3.31    1.56
  13  -1  -1    1.89    1.79
  15  -1   1   -0.08    1.67
  15   1  -1   -0.50    1.79
  15   1   1   -0.63    1.75
  15  -1  -1   -0.07    1.75
  17   1  -1   -0.60    1.65
  17  -1   1   -1.95    1.52
  17   1   1   -1.31    1.61
  17  -1  -1   -2.02    1.51
  -1   3   1  184.05    9.21
   1  -3   1  198.72    9.24
  -1   3  -1  184.41    9.22
   1  -3  -1  197.64    9.22
  -1   3  -1  173.90    9.25
  -3  -3  -1   55.20    2.81
   3  -3   1   53.16    2.91
   3  -3  -1   51.91    2.90
   3  -3  -1   50.25    3.45
  -3  -3   1   53.41    2.87
   5  -3   1  128.51    6.57
  -5  -3  -1  132.07    6.52
   5  -3   1  123.02    6.48
  -5  -3  -1  124.49    6.46
   5   3   1  109.05    6.39
  -5  -3   1  120.94    6.47
   5  -3  -1  131.31    6.57
   5  -3  -1  119.82    7.19
  -5  -3   1  134.52    6.53
   7   3  -1    3.03    1.14
   7  -3   1    1.63    0.95
   7  -3   1    1.69    0.65
   7  -3   1    2.14    0.94
   7  -3  -1    0.86    0.89
  -7  -3   1    1.76    1.00
   7  -3  -1    3.10    1.70
   7  -3  -1    0.61    0.87
   7  -3  -1    1.55    0.70
   9  -3   1   30.19    2.26
  -9  -3  -1   26.57    2.66
   9   3  -1   33.50    3.08
   9  -3   1   31.87    2.61
  -9  -3   1   30.07    2.85
   9   3   1   29.84    3.00
   9  -3  -1   30.43    2.61
   9  -3  -1   29.51    2.20
   9  -3  -1   28.63    3.83
 -11  -3  -1   13.21    2.05
  11  -3   1   11.02    1.63
  11   3  -1   14.06    2.45
  11  -3   1   10.99    1.96
  11  -3   1   14.90    3.98
  11   3  -1    9.99    3.84
  11  -3  -1   17.74    3.77
  11   3   1   17.33    2.49
  11  -3  -1   10.32    1.92
 -11  -3   1   12.04    2.05
  13   3  -1    1.53    1.62
  13  -3   1    2.94    1.83
  13   3  -1    0.37    2.00
  13   3   1   -0.01    1.82
  13   3   1   -1.99    1.39
 -13  -3   1    3.29    1.80
  13  -3  -1    0.75    1.79
  15  -3   1   -1.74    1.71
  15   3  -1    2.56    1.76
  15   3   1   -0.36    1.69
  15  -3  -1   -0.76    1.83
  17  -3   1   -1.56    1.54
  17   3  -1    1.34    1.63
  17   3   1    0.47    1.57
  17  -3  -1   -1.86    1.69
   1  -5   1    1.91    0.41
   1  -5  -1    3.15    0.43
   3  -5   1  222.33   11.23
   3  -5  -1  218.20   11.54
   3  -5  -1  232.94   11.22
  -5  -5  -1   54.57    3.29
  -5  -5  -1   55.50    3.09
   5  -5   1   48.59    2.95
   5  -5   1   55.03    3.25
  -5  -5   1   54.39    3.11
  -5  -5   1   53.85    3.21
   5  -5  -1   56.43    3.25
   5  -5  -1   50.57    4.11
   7  -5   1    0.28    0.90
   7   5  -1   -0.93    1.15
   7  -5   1   -0.39    0.56
  -7  -5  -1   -1.08    0.91
   7  -5   1    0.32    0.85
   7   5   1   -0.80    1.18
  -7  -5   1   -0.37    0.96
   7  -5  -1    0.79    0.54
   7  -5  -1   -0.56    1.46
   7  -5  -1    0.51    0.81
   7  -5  -1   -0.39    0.86
   9   5  -1   -0.29    1.67
   9  -5   1    2.23    1.15
  -9  -5  -1    2.00    1.31
   9  -5   1    4.37    2.30
   9  -5   1    1.16    0.80
  -9  -5   1   -0.22    1.22
   9  -5  -1    3.15    2.21
   9  -5  -1    0.93    1.17
  11   5  -1    0.86    3.72
  11  -5   1    5.21    1.70
 -11  -5  -1    5.36    1.73
  11   5  -1    2.75    2.17
  11  -5   1    3.40    3.32
  11  -5  -1    4.89    1.74
 -11  -5   1    9.40    1.76
  11   5   1    5.59    2.15
  11  -5  -1    2.95    3.09
 -13  -5  -1    3.68    1.83
  13   5  -1    0.22    1.95
  13  -5   1    1.59    1.88
  13  -5  -1    1.90    1.93
  13   5   1    3.94    1.52
  13   5   1    1.76    1.78
 -13  -5   1    4.75    1.77
  15  -5   1   -0.46    1.67
  15   5  -1    2.08    1.80
  15   5   1   -3.29    1.61
  15  -5  -1   -0.64    1.81
  15   5   1   -0.63    1.66
  17   5  -1   -2.40    1.52
  17  -5   1   -0.11    1.42
  17  -5  -1   -1.38    1.65
  17   5   1   -0.56    1.64
   1  -7  -1   18.69    1.26
   3  -7   1   60.44    3.30
  -3  -7  -1   59.22    3.34
   3  -7  -1   63.76    3.29
  -3  -7   1   49.18    3.27
   5  -7   1  243.44   12.31
   5  -7   1  248.44   11.84
  -5  -7  -1  249.10   12.04
   5  -7   1  238.18   12.07
  -5  -7   1  232.98   12.01
   5  -7  -1  243.76   12.06
   5  -7  -1  226.80   12.52
   5  -7  -1  230.35   11.96
  -5  -7   1  225.55   11.97
  -5  -7   1  229.11   11.86
   7  -7   1    0.03    0.94
   7  -7   1    0.92    0.67
  -7  -7  -1    0.44    0.99
   7  -7   1    0.59    1.54
   7  -7   1    0.71    0.94
   7   7  -1    2.46    1.21
   7   7   1    1.55    1.23
   7  -7  -1    0.60    0.91
   7  -7  -1   -0.02    0.88
  -7  -7   1   -0.15    1.01
   7  -7  -1    1.11    1.50
  -9  -7  -1    3.72    1.36
   9   7  -1   -0.02    1.61
   9  -7   1    1.06    1.20
   9  -7   1    1.41    1.97
   9  -7  -1    7.40    2.18
   9   7   1   -1.12    1.54
  -9  -7   1    0.70    1.31
  11   7  -1   -1.82    1.97
 -11  -7  -1    1.57    1.43
  11  -7   1    5.13    1.63
  11  -7   1    1.22    2.79
  11   7   1   -2.18    1.89
 -11  -7   1   -0.98    1.38
  11  -7  -1   -1.71    2.88
  11  -7  -1    0.97    1.64
  13  -7   1    1.33    1.79
 -13  -7  -1    2.84    1.71
  13   7  -1   -1.59    1.75
  13   7   1   -0.66    1.74
 -13  -7   1    0.00    1.71
  13  -7  -1    1.07    1.83
  15   7  -1    0.82    1.64
  15  -7   1    0.04    1.55
  15  -7  -1    0.02    1.65
  15   7   1    1.14    1.51
  15   7   1   -0.48    1.39
  17   7  -1   -0.25    1.45
  17  -7   1    0.87    1.55
  17   7   1    2.07    1.48
  17  -7  -1    0.19    1.52
   1  -9   1   33.62    1.90
  -1  -9  -1   28.29    1.99
  -1  -9   1   29.03    1.99
   3  -9   1    8.11    1.11
   3  -9   1   10.32    1.13
  -3  -9  -1    9.56    1.17
  -3  -9   1    8.42    1.13
   3  -9  -1   10.51    1.09
  -5  -9  -1  120.60    6.27
   5  -9   1  119.55    6.06
  -5  -9  -1  116.27    6.20
   5  -9   1  112.58    6.28
   5  -9   1  113.43    6.14
   5  -9  -1  117.45    6.28
   5  -9  -1  116.94    6.13
  -5  -9   1  105.71    6.17
  -5  -9   1  115.98    6.09
  -5  -9   1  113.91    6.28
  -7  -9  -1   37.16    2.99
  -7  -9  -1   39.22    3.10
   7  -9   1   35.49    2.52
   7  -9   1   42.65    2.91
   7  -9   1   37.73    3.08
   7  -9   1   36.60    3.94
   7  -9  -1   40.39    2.92
  -7  -9   1   33.27    2.96
   7  -9  -1   44.18    3.10
   7  -9  -1   37.41    3.88
  -7  -9   1   43.45    3.12
  -9  -9  -1   15.03    2.10
   9  -9   1   11.49    1.85
   9   9  -1   16.96    2.23
   9  -9   1   11.17    2.44
  -9  -9   1   13.44    1.95
   9   9   1   14.03    2.17
   9  -9  -1   10.46    2.51
   9  -9  -1   11.16    1.82
  11  -9   1    3.26    1.63
  11   9  -1   -0.23    1.98
 -11  -9  -1   -0.35    1.47
 -11  -9   1   -0.03    1.49
  11   9   1    2.26    2.01
  11  -9  -1   -0.65    1.48
  13  -9   1    0.55    1.58
 -13  -9  -1    0.46    1.81
  13   9  -1    2.45    1.84
  13  -9  -1    0.68    1.64
  13   9   1   -1.01    1.71
 -13  -9   1    0.70    1.75
  15   9  -1    0.53    1.58
  15   9  -1    2.29    1.57
 -15  -9  -1    4.58    2.00
  15  -9   1    1.67    1.53
 -15  -9   1    5.11    2.08
  15   9   1   -0.52    1.55
  15   9   1    2.35    1.69
  15  -9  -1    1.69    1.61
  17   9  -1    0.40    1.55
  17  -9   1   -0.30    1.56
  17  -9  -1   -1.99    1.60
  17   9   1   -0.08    1.46
   1 -11   1   18.56    1.59
  -1 -11  -1   18.61    1.68
   1 -11   1   22.12    1.58
   1 -11  -1   25.49    1.61
  -1 -11   1   19.66    1.70
   3 -11   1   28.20    1.95
   3 -11   1   30.58    2.01
  -3 -11  -1   26.02    2.12
  -3 -11  -1   22.43    2.03
  -3 -11   1   23.85    2.01
   3 -11  -1   27.08    2.74
  -3 -11   1   25.16    2.11
   3 -11  -1   25.72    1.90
   3 -11  -1   26.36    2.06
   5 -11   1   34.49    2.44
   5 -11   1   31.53    2.52
  -5 -11  -1   33.81    2.56
  -5 -11  -1   34.17    2.57
   5 -11   1   36.55    2.34
   5 -11  -1   30.22    2.07
   5 -11  -1   34.73    2.45
  -5 -11   1   30.56    2.56
  -5 -11   1   33.58    2.65
   5 -11  -1   33.60    2.52
   7 -11   1  111.56    5.98
   7 -11   1  103.03    6.28
  -7 -11  -1  107.53    6.19
   7 -11   1  101.57    5.60
  -7 -11  -1  108.06    6.05
   7 -11  -1  113.52    6.25
  -7 -11   1   99.05    6.12
  -7 -11   1  109.35    6.06
   7 -11  -1  101.86    5.62
   7 -11  -1  110.27    5.97
   9 -11   1    0.91    1.23
  -9 -11  -1   -2.71    1.45
   9  11  -1    2.85    1.62
  -9 -11   1    2.66    1.46
   9  11   1    1.88    1.65
   9 -11  -1   -0.24    1.81
   9 -11  -1    2.73    1.30
 -11 -11  -1    5.49    1.90
  11 -11   1    6.78    1.63
  11  11  -1    7.14    2.20
  11  11   1    5.70    2.05
 -11 -11   1    5.78    1.85
  11 -11  -1    8.41    1.70
  13 -11   1   -0.81    1.47
 -13 -11  -1   -1.49    1.82
  13  11  -1    1.55    1.87
  13  11   1    0.42    1.57
 -13 -11   1    0.96    1.76
  13 -11  -1   -0.66    1.56
 -15 -11  -1    3.30    2.07
  15  11  -1    2.09    1.75
  15 -11   1    0.70    1.56
  15  11   1    4.33    1.63
  15 -11  -1    0.62    1.65
 -15 -11   1    4.94    2.05
  15  11   1    1.10    1.54
  17  11  -1    0.10    1.47
  17 -11   1    1.71    1.52
  17 -11  -1    1.90    1.63
  17  11   1    0.63    1.98
   1  13  -1    5.62    1.16
  -1 -13  -1    7.74    1.18
  -1 -13  -1    8.53    1.09
   1 -13   1    7.64    0.86
   1 -13   1    7.61    1.06
   1 -13   1    9.05    1.16
   1 -13   1    7.96    0.95
  -1 -13   1    8.41    1.19
   1 -13  -1    7.47    1.00
   1 -13  -1    7.40    0.88
   1 -13  -1    8.38    1.11
  -1 -13   1    5.95    0.99
  -3 -13  -1   -0.42    0.73
  -3 -13  -1    1.63    1.05
   3 -13  -1    1.16    0.49
   3 -13  -1    0.52    0.56
  -3 -13   1    0.63    0.51
  -3 -13   1    0.26    0.94
   3 -13  -1    0.90    0.64
  -3 -13   1    0.68    0.79
   3 -13  -1    0.15    0.82
  -5 -13  -1   41.97    3.09
   5 -13   1   45.22    2.64
  -5 -13  -1   45.32    3.10
   5 -13   1   44.37    3.10
   5 -13   1   43.55    3.02
  -5 -13   1   42.73    3.24
  -5 -13   1   40.37    3.10
   5 -13  -1   43.18    2.64
   5 -13  -1   44.40    3.01
  -5 -13   1   44.14    2.66
   5 -13  -1   42.55    3.02
   7 -13   1   58.04    3.74
   7 -13   1   53.78    4.13
  -7 -13  -1   58.04    3.88
  -7 -13  -1   59.17    4.02
   7 -13   1   54.49    3.30
  -7 -13   1   57.22    3.90
   7 -13  -1   62.13    3.76
   7 -13  -1   59.35    4.05
  -7 -13   1   52.86    4.03
   7 -13  -1   53.86    3.31
   9 -13   1    5.32    1.40
   9  13  -1    5.75    1.95
  -9 -13  -1    3.16    1.67
   9  13   1    4.30    1.93
  -9 -13   1    4.51    1.79
   9 -13  -1    2.73    1.40
 -11 -13  -1   -0.77    1.65
  11  13  -1   -0.27    2.09
  11 -13   1   -0.08    1.37
  11  13   1    0.27    2.02
  11 -13  -1    0.33    1.44
 -11 -13   1    0.98    1.64
  13 -13   1   -0.64    1.44
 -13 -13  -1   -0.81    1.87
  13  13  -1    0.50    1.73
  13  13   1    0.82    1.68
  13 -13  -1   -1.13    1.51
 -13 -13   1    2.10    1.90
  15 -13   1   -0.31    1.55
 -15 -13  -1    4.18    2.60
  15  13  -1    0.17    1.56
 -15 -13   1    2.71    2.38
  15  13   1   -1.16    1.46
  15 -13  -1    0.13    1.47
   1 -15   1   69.14    4.02
  -1 -15  -1   69.75    3.82
  -1 -15  -1   68.58    4.02
   1 -15   1   70.00    3.90
   1 -15   1   70.95    3.83
  -1 -15  -1   73.62    4.09
   1 -15   1   65.48    3.98
  -1 -15   1   64.71    4.03
   1 -15  -1   69.18    3.83
  -1 -15   1   70.76    3.83
   1 -15  -1   62.24    3.92
  -1 -15   1   74.24    4.09
   1 -15  -1   68.30    4.01
  -3 -15  -1    4.42    0.80
   3 -15   1    5.19    1.16
  -3 -15  -1    3.94    1.04
   3 -15   1    4.39    0.96
   3 -15   1    5.86    1.06
   3 -15   1    4.65    0.77
  -3 -15  -1    5.00    1.36
  -3 -15   1    4.44    0.81
   3 -15  -1    5.62    0.82
   3 -15  -1    5.76    1.05
  -3 -15   1    4.22    1.30
   3 -15  -1    4.79    1.13
  -3 -15   1    4.64    1.12
   5 -15   1    4.89    0.80
  -5 -15  -1    4.80    1.24
   5 -15   1    5.22    1.33
  -5 -15  -1    3.81    1.49
  -5 -15  -1    4.83    0.89
   5 -15   1    5.73    1.30
  -5 -15   1    6.98    1.56
   5 -15  -1    6.21    1.31
  -5 -15   1    6.26    0.93
  -5 -15   1    3.88    1.37
   5 -15  -1    4.87    1.21
   5 -15  -1    5.10    0.84
   7 -15   1    7.99    1.06
  -7 -15  -1   11.49    1.94
  -7 -15  -1    9.21    1.80
   7 -15   1    9.84    1.90
   7 -15   1    9.28    1.63
   7 -15  -1    9.32    1.76
   7 -15  -1    8.30    1.09
   7 -15  -1    9.55    1.60
  -7 -15   1   10.05    1.82
  -7 -15   1   13.08    1.94
   9 -15   1   25.21    2.67
  -9 -15  -1   19.99    2.80
  -9 -15  -1   24.13    2.90
  -9 -15   1   25.77    3.07
   9 -15  -1   22.45    2.73
  -9 -15   1   25.38    2.92
  11 -15   1    3.79    1.65
  11  15  -1    5.53    2.20
 -11 -15  -1    6.63    2.13
  11  15   1    7.14    2.19
 -11 -15   1    7.62    2.30
  11 -15  -1    3.56    1.68
  13  15  -1   -0.88    1.60
 -13 -15  -1   -1.09    1.90
  13 -15   1    1.44    1.49
  13 -15  -1   -1.53    1.48
 -13 -15   1    0.66    2.01
  13  15   1   -0.60    1.58
  15 -15   1   -0.79    1.48
  15  15  -1   -0.43    1.55
  15 -15  -1   -0.73    1.47
  15  15   1   -1.89    1.44
   1 -17   1  160.62    8.20
   1 -17   1  156.00    8.37
  -1 -17  -1  162.44    8.20
  -1 -17  -1  164.36    8.41
   1 -17   1  148.63    8.36
  -1 -17  -1  151.36    8.38
  -1 -17   1  161.95    8.46
   1 -17  -1  157.68    8.38
  -1 -17   1  169.59    8.42
   1 -17  -1  144.06    8.30
  -1 -17   1  162.13    8.20
   1 -17  -1  159.03    8.19
  -3 -17  -1    6.46    1.54
  -3 -17  -1    6.52    0.97
   3 -17   1    7.68    0.99
   3 -17   1    6.83    1.26
   3 -17   1    6.16    1.17
   3 -17   1    8.64    1.34
  -3 -17  -1    6.21    1.30
  -3 -17   1    5.80    1.23
   3 -17  -1    8.49    1.28
   3 -17  -1   10.38    1.14
  -3 -17   1    6.17    1.00
   3 -17  -1    9.52    1.40
  -3 -17   1    7.46    1.56
   5 -17   1    7.69    1.05
  -5 -17  -1    7.09    1.05
  -5 -17  -1    8.13    1.78
   5 -17   1    8.89    1.47
  -5 -17  -1    7.01    1.48
   5 -17   1    9.10    1.63
  -5 -17   1    7.31    1.14
  -5 -17   1    7.46    1.66
  -5 -17   1    8.40    1.61
   5 -17  -1    8.97    1.59
   5 -17  -1    7.32    1.06
   5 -17  -1    9.12    1.54
  -7 -17  -1   -0.11    1.35
  -7 -17  -1   -0.04    1.48
   7 -17   1    1.53    1.42
   7 -17   1    0.52    0.69
   7 -17   1    0.87    1.20
   7 -17  -1    0.51    0.71
   7 -17  -1    0.47    1.18
  -7 -17   1   -0.77    1.37
  -7 -17   1    0.61    1.53
   7 -17  -1    0.56    1.33
   9 -17   1   39.54    3.28
  -9 -17  -1   38.95    3.54
  -9 -17  -1   32.98    3.71
   9 -17  -1   29.49    2.86
  -9 -17   1   31.58    3.99
  -9 -17   1   35.49    3.49
   9 -17  -1   35.94    3.35
  11  17  -1   29.31    3.63
 -11 -17  -1   30.63    3.67
  11  17   1   31.46    3.61
  11 -17  -1   26.26    3.26
 -11 -17   1   24.73    3.43
  13 -17   1    3.98    1.66
  13  17  -1   -0.28    1.58
 -13 -17  -1    2.37    2.03
  13 -17  -1    3.29    1.69
 -13 -17   1   -1.14    2.10
  13  17   1   -0.14    1.64
  15 -17   1    0.71    1.64
  15  17  -1    0.55    1.54
  15  17   1    0.79    1.60
  15 -17  -1    1.02    1.54
  -1 -19  -1  113.46    6.06
  -1 -19  -1  107.85    6.06
   1 -19   1   97.26    6.00
   1 -19   1  109.50    5.81
  -1 -19  -1  104.87    5.78
   1 -19   1  103.18    5.99
   1 -19  -1  103.91    6.00
  -1 -19   1  101.18    5.75
   1 -19  -1  106.44    5.78
  -1 -19   1  109.84    6.06
   1 -19  -1  111.28    6.62
  -1 -19   1  111.52    6.13
   3 -19   1   11.38    1.57
  -3 -19  -1    7.75    1.60
  -3 -19  -1    8.09    1.21
   3 -19   1   12.21    1.64
   3 -19   1    9.52    1.18
  -3 -19  -1   13.77    2.02
   3 -19  -1   12.32    1.55
  -3 -19   1   13.21    1.97
   3 -19  -1   12.01    1.33
  -3 -19   1   10.03    1.62
   3 -19  -1   11.30    1.62
  -3 -19   1   10.27    1.25
  -5 -19  -1    4.73    1.48
   5 -19   1    7.51    1.11
   5 -19   1    6.30    1.56
   5 -19   1    5.51    1.38
  -5 -19  -1    5.24    1.08
  -5 -19  -1    5.94    1.73
  -5 -19   1    5.17    1.50
   5 -19  -1    5.06    1.35
  -5 -19   1    4.97    1.67
   5 -19  -1    4.17    1.35
   5 -19  -1    6.51    1.07
  -5 -19   1    6.06    1.09
  -7 -19  -1    2.05    1.68
   7 -19   1    0.26    0.71
  -7 -19  -1    0.70    1.49
   7 -19   1    1.92    1.20
   7 -19  -1    1.30    0.79
   7 -19  -1    1.11    1.21
  -7 -19   1    2.30    1.55
  -7 -19   1    2.89    1.67
  -9 -19  -1   43.89    4.16
   9 -19   1   39.00    3.62
  -9 -19  -1   46.90    4.41
  -9 -19   1   44.99    4.70
   9 -19  -1   38.72    3.69
   9 -19  -1   42.18    3.04
  -9 -19   1   48.91    4.19
  11 -19   1   13.76    2.27
  11  19  -1   11.98    2.31
 -11 -19  -1   17.90    2.81
 -11 -19   1   22.46    3.36
  11 -19  -1   12.79    2.26
  11  19   1   12.24    2.37
  13  19  -1   -0.98    1.47
  13 -19   1    2.79    1.75
 -13 -19  -1    4.97    2.32
  13  19   1    1.15    1.55
  13 -19  -1    2.71    1.75
 -13 -19   1   -0.93    2.28
  -1 -21  -1   84.52    4.79
   1 -21   1   80.26    5.13
   1 -21   1   80.17    5.07
  -1 -21  -1   92.69    5.26
   1 -21   1   84.01    4.80
  -1 -21  -1   88.48    5.14
   1 -21  -1   81.92    4.78
   1 -21  -1   79.55    5.07
  -1 -21   1   85.23    4.84
  -1 -21   1   89.15    5.25
  -1 -21   1   84.19    5.14
   3 -21   1    9.26    1.62
  -3 -21  -1    7.38    1.16
   3 -21   1    7.72    1.12
  -3 -21  -1    6.29    1.75
  -3 -21  -1    6.69    1.52
  -3 -21   1    6.60    1.59
  -3 -21   1    6.99    1.17
  -3 -21   1   10.19    1.85
   3 -21  -1    6.42    1.42
   3 -21  -1    7.29    1.13
  -5 -21  -1   -0.33    0.76
  -5 -21  -1   -1.77    1.46
   5 -21   1    0.53    1.03
  -5 -21  -1   -0.30    1.22
   5 -21   1   -0.11    0.73
  -5 -21   1   -0.30    1.16
   5 -21  -1    0.27    1.05
  -5 -21   1   -0.01    0.81
   5 -21  -1   -0.13    0.64
  -5 -21   1   -0.69    1.43
   7 -21   1   -0.43    1.12
  -7 -21  -1   -2.37    1.47
   7 -21   1   -0.31    0.74
  -7 -21  -1   -0.15    1.67
  -7 -21   1   -1.07    1.78
  -7 -21   1   -1.25    1.59
   7 -21  -1    0.06    0.78
   7 -21  -1    1.13    1.24
  -9 -21  -1   20.92    3.20
   9 -21   1   15.46    2.41
  -9 -21  -1   28.57    3.51
   9 -21  -1   23.74    2.30
  -9 -21   1   31.19    3.87
   9 -21  -1   23.70    2.95
  -9 -21   1   22.44    3.21
 -11 -21  -1   13.08    2.61
  11  21  -1    4.09    1.83
  11 -21   1    7.98    1.84
  11 -21  -1    8.49    1.91
 -11 -21   1   13.38    3.00
  11  21   1    5.43    1.95
  13  21  -1    0.95    1.48
  13 -21   1    1.88    1.58
  13  21   1    0.29    1.47
  13 -21  -1    2.30    1.54
  -1 -23  -1   44.84    3.05
  -1 -23  -1   53.46    4.35
   1 -23   1   43.33    3.40
   1 -23   1   48.07    3.08
  -1 -23  -1   45.02    3.57
  -1 -23   1   48.65    3.65
  -1 -23   1   46.64    3.11
   1 -23  -1   43.70    3.41
  -1 -23   1   44.75    3.52
   1 -23  -1   46.07    3.09
   3 -23   1    5.97    1.46
  -3 -23  -1    7.52    1.28
  -3 -23  -1    7.38    1.73
  -3 -23  -1    8.90    1.98
   3 -23   1    8.96    1.27
  -3 -23   1   11.99    2.06
  -3 -23   1    5.93    1.76
   3 -23  -1    8.63    1.66
   3 -23  -1    7.08    1.22
  -3 -23   1    5.87    1.23
   5 -23   1   -0.10    1.10
  -5 -23  -1    1.14    0.90
  -5 -23  -1    0.24    1.27
  -5 -23  -1   -1.19    1.61
   5 -23   1    0.49    0.79
  -5 -23   1    0.15    0.97
  -5 -23   1    1.77    1.37
  -5 -23   1    0.29    1.57
   5 -23  -1    0.91    0.81
   5 -23  -1    0.75    1.09
  -7 -23  -1   -0.47    1.91
   7 -23   1    2.41    1.36
  -7 -23  -1   -0.70    1.76
   7 -23   1    0.76    0.87
  -7 -23   1    0.43    2.08
  -7 -23   1    2.53    2.04
   7 -23  -1    0.67    0.84
   7 -23  -1    1.36    1.29
   9 -23   1    4.96    1.64
  -9 -23  -1    9.44    2.81
  -9 -23  -1    4.33    2.45
   9 -23  -1    4.10    1.66
   9 -23  -1    4.28    1.22
  -9 -23   1    4.35    2.37
  -9 -23   1    4.12    2.72
 -11 -23  -1    3.80    2.25
  11  23  -1   -0.07    1.50
  11 -23   1    2.50    1.65
  11 -23  -1    1.90    1.60
 -11 -23   1    7.44    2.33
  11  23   1    0.66    1.60
  13 -23   1    0.51    1.51
  13  23  -1    1.48    1.41
  13 -23  -1    2.48    1.55
  13  23   1    1.66    1.49
   1 -25   1   11.46    1.50
   1 -25   1   10.43    1.89
  -1 -25  -1    9.78    1.46
  -1 -25  -1   10.74    2.04
  -1 -25   1   10.90    1.51
   1 -25  -1    9.59    1.38
  -1 -25   1   13.45    2.13
  -1 -25   1    8.42    2.14
   3 -25   1   11.66    1.97
  -3 -25  -1    6.25    2.00
  -3 -25  -1   10.86    1.60
  -3 -25  -1    9.90    1.94
   3 -25   1   10.13    1.49
  -3 -25   1   11.82    2.00
   3 -25  -1    8.75    1.81
   3 -25  -1   11.08    1.53
  -3 -25   1   12.48    1.65
  -3 -25   1   11.08    2.23
   5 -25   1    8.86    1.88
  -5 -25  -1    7.28    2.18
   5 -25   1    9.14    1.43
  -5 -25  -1    8.42    1.54
  -5 -25  -1    5.91    1.93
  -5 -25   1    6.87    1.94
  -5 -25   1    7.80    2.17
   5 -25  -1    9.99    1.94
   5 -25  -1    7.86    1.38
  -5 -25   1   10.78    1.66
  -7 -25  -1    1.53    2.01
   7 -25   1    2.37    1.58
   7 -25   1    5.57    1.27
  -7 -25  -1    4.34    2.24
  -7 -25   1    4.32    2.65
   7 -25  -1    1.94    1.06
  -7 -25   1    3.85    2.18
   7 -25  -1    2.25    1.55
  -9 -25  -1   -1.56    2.13
   9 -25   1    0.86    1.51
  -9 -25  -1    0.80    2.70
   9 -25  -1    2.07    1.57
  -9 -25   1   -1.46    2.04
   9 -25  -1    1.53    1.05
  -9 -25   1    1.95    2.57
  11 -25   1    1.04    1.58
  11  25  -1   -0.68    1.37
  11  25   1   -1.47    1.40
  11 -25  -1   -0.30    1.56
  -1 -27  -1    0.86    0.94
   1 -27   1    0.22    1.34
   1 -27   1   -0.28    0.75
  -1 -27  -1    1.44    1.59
  -1 -27   1    1.22    1.58
   1 -27  -1    0.05    0.83
  -1 -27   1    0.09    0.91
   1 -27  -1    0.17    1.31
   3 -27   1   10.87    1.64
   3 -27   1   10.56    2.04
  -3 -27  -1    9.81    1.65
  -3 -27  -1    7.23    2.13
   3 -27  -1    9.66    1.54
  -3 -27   1    7.00    1.85
  -3 -27   1    9.96    1.64
   3 -27  -1    9.96    2.03
  -3 -27   1    8.91    2.17
  -5 -27  -1   14.88    2.91
   5 -27   1   22.23    2.82
  -5 -27  -1   21.56    2.32
   5 -27   1   20.62    2.31
  -5 -27  -1   15.14    2.67
  -5 -27   1   17.32    2.93
  -5 -27   1   14.86    2.77
  -5 -27   1   19.85    2.30
   5 -27  -1   24.77    3.03
   5 -27  -1   21.97    2.36
   7 -27   1   11.19    1.70
  -7 -27  -1    8.31    2.56
   7 -27   1    9.31    2.08
  -7 -27  -1   13.90    3.13
  -7 -27   1    9.88    3.24
  -7 -27   1    9.88    2.65
   7 -27  -1   10.40    2.26
   7 -27  -1   11.22    1.70
   9 -27   1   -1.06    1.48
  -9 -27  -1    0.17    2.08
   9 -27  -1   -0.85    1.44
   9 -27  -1   -0.14    1.03
  -9 -27   1   -2.11    1.92
  -1 -29  -1    0.47    1.72
  -1 -29  -1   -0.05    1.00
   1 -29   1   -0.18    1.03
   1 -29   1    1.31    1.44
  -1 -29   1   -0.92    1.59
  -1 -29   1    1.01    1.07
   1 -29  -1    0.87    1.03
   1 -29  -1    1.40    1.51
  -3 -29  -1   15.13    2.14
   3 -29   1   13.03    2.25
   3 -29   1   13.25    1.91
  -3 -29  -1   14.00    2.55
  -3 -29   1    9.81    2.37
   3 -29  -1   14.64    1.97
   3 -29  -1   14.60    2.33
  -3 -29   1   15.11    2.01
  -5 -29  -1   25.03    3.47
   5 -29   1   30.31    3.35
   5 -29   1   37.60    3.03
  -5 -29   1   32.07    3.10
   5 -29  -1   36.12    2.96
   5 -29  -1   31.36    3.48
  -5 -29   1   22.34    3.77
  -5 -29   1   26.87    3.55
  -7 -29  -1    8.38    2.51
   7 -29   1   13.91    2.42
   7 -29   1   14.17    1.90
  -7 -29   1    8.58    2.66
   7 -29  -1   12.14    1.93
   7 -29  -1    9.23    2.25
   9 -29   1    1.51    2.30
  -9 -29   1    0.02    4.34
   9 -29  -1    0.42    2.23
   9 -29  -1   -1.02    1.20
   1 -31   1    0.94    1.64
  -1 -31  -1    0.48    1.79
  -1 -31  -1    0.00    1.20
   1 -31   1   -0.22    1.02
  -1 -31   1   -2.47    1.62
  -1 -31   1    0.71    1.12
   1 -31  -1   -1.17    1.02
   1 -31  -1   -0.16    1.62
  -3 -31  -1   10.97    1.86
   3 -31   1    7.68    2.04
  -3 -31  -1    6.29    2.17
   3 -31   1   11.13    1.77
   3 -31  -1   12.90    1.82
  -3 -31   1    9.68    1.86
  -3 -31   1    7.42    2.18
   3 -31  -1    9.71    2.20
   5 -31   1   23.00    2.90
  -5 -31  -1   16.49    3.00
   5 -31   1   25.76    2.59
  -5 -31   1   16.96    2.95
   5 -31  -1   25.11    2.57
   5 -31  -1   20.83    2.74
   7 -31   1   10.17    1.72
   7 -31  -1   12.49    1.85
   1 -33   1    4.91    1.95
  -1 -33  -1    4.64    1.50
   1 -33   1    4.10    1.35
  -1 -33  -1   -1.11    1.96
   1 -33  -1    4.85    1.91
   1 -33  -1    4.49    1.38
  -1 -33   1    3.24    2.11
  -1 -33   1    4.80    1.43
  -3 -33  -1    3.09    1.52
   3 -33   1    6.15    1.43
   3 -33   1    3.94    2.09
  -3 -33  -1    0.26    2.81
   3 -33  -1    1.89    2.01
   3 -33  -1    6.43    1.45
  -3 -33   1    3.67    2.78
  -3 -33   1    3.17    1.45
   0   0   2  562.37   27.44
   0   0  -2  558.36   27.39
   0   0   2  569.82   27.39
   0   0  -2  566.09   27.44
   2   0  -2  330.48   16.29
  -2   0  -2  323.52   16.06
  -2   0   2  324.66   16.08
   2   0   2  338.33   16.06
   2   0  -2  325.01   16.08
   4   0   2  200.50    9.97
  -4   0  -2  209.44   10.01
  -4   0   2  187.30    9.98
   4   0  -2  199.69   10.01
   6   0   2   42.90    2.82
  -6   0   2   45.26    2.84
  -6   0  -2   43.08    2.91
  -6   0  -2   45.71    2.85
   6   0  -2   46.80    2.91
   8   0   2   24.79    2.42
  -8   0   2   24.87    2.19
   8   0  -2   20.56    2.35
   8   0  -2   19.28    3.08
  -8   0  -2   25.29    2.28
  10   0   2   55.25    3.88
 -10   0   2   53.95    3.98
  10   0  -2   59.04    6.77
  10   0   2   66.00    4.21
 -10   0  -2   66.71    4.08
  10   0  -2   65.62    4.27
  12   0   2    8.29    1.64
  12   0   2    8.09    1.95
  12   0  -2   10.94    2.35
  14   0  -2    0.72    1.92
  14   0   2   -0.26    1.74
  16   0  -2    0.66    1.71
  16   0   2   -0.27    1.66
  18   0  -2   -1.44    1.54
  18   0   2   -1.31    1.74
   0   2  -2  894.66   43.13
   0  -2   2  970.38   43.23
   0   2  -2 1000.00   43.24
   0  -2   2  897.70   43.13
   0   2   2  755.87   43.17
   0  -2  -2  810.30   43.19
   0   2  -2  893.22   43.18
   2  -2   2   10.91    0.80
  -2   2   2    7.11    0.68
   2  -2  -2    8.12    0.74
  -2   2  -2    8.86    0.74
   4  -2   2    1.22    0.60
  -4  -2  -2    1.63    0.73
  -4  -2  -2    1.05    0.53
   4   2   2    1.45    0.50
   4  -2  -2   -0.25    0.37
  -4  -2   2    0.69    0.56
  -4   2  -2    0.47    0.57
   4  -2  -2    0.45    0.55
  -6  -2  -2   15.67    1.68
   6  -2   2   16.48    1.68
  -6   2   2   13.61    1.71
   6  -2   2   14.48    1.42
   6   2  -2   16.62    2.00
   6   2   2   16.92    1.57
  -6  -2   2   14.29    1.61
   6  -2  -2   17.93    1.73
  -6  -2   2   17.32    1.77
   6  -2  -2   14.49    2.07
   8   2  -2   20.70    2.30
  -8   2   2   19.45    1.91
  -8  -2  -2   19.95    1.97
   8  -2  -2   12.96    1.67
  -8  -2   2   20.91    1.96
   8  -2  -2   17.15    2.78
   8  -2  -2   16.84    1.63
   8   2   2   19.24    2.35
 -10  -2  -2   48.11    3.59
  10   2  -2   44.26    6.28
  10   2  -2   52.70    3.89
  10  -2   2   48.03    3.24
  10  -2   2   51.14    3.53
 -10  -2   2   40.25    3.62
  10   2   2   51.17    3.82
  10  -2  -2   44.86    6.12
  10  -2  -2   48.86    3.60
  12  -2   2    5.44    1.75
  12  -2   2    6.89    1.60
  12   2  -2    4.10    2.11
 -12  -2   2    6.90    1.74
  12   2   2    3.65    1.71
  12   2   2    5.61    1.96
  12  -2  -2    6.92    2.01
  14  -2   2    0.87    1.69
  14   2  -2    0.71    1.91
  14   2   2   -1.37    1.59
  14  -2  -2   -1.39    1.94
  14   2   2   -0.57    1.46
  16   2  -2   -0.64    1.68
  16  -2   2   -0.35    1.59
  16   2   2    1.06    1.62
  16  -2  -2   -0.65    1.77
  18  -2   2   -0.50    2.08
  18   2  -2   -1.83    1.54
  18  -2  -2    0.25    1.58
   0   4  -2  110.24    5.50
   0  -4   2  101.94    5.36
   0  -4   2  110.53    5.51
   4  -4   2    0.48    0.55
  -4  -4  -2    0.52    0.53
  -4  -4  -2    0.81    0.70
  -4  -4   2   -0.09    0.59
  -4  -4   2    0.58    0.70
   4  -4  -2    0.12    1.03
   4  -4  -2    0.43    0.55
   6   4  -2    0.86    1.02
   6  -4   2    0.32    1.30
   6  -4   2    0.69    0.83
  -6  -4  -2    0.02    0.85
   6  -4   2    0.53    0.58
  -6  -4  -2    0.63    0.67
   6  -4  -2    1.01    1.38
  -6  -4   2   -0.61    1.00
   6  -4  -2    0.15    0.78
  -6  -4   2    0.46    0.88
   6  -4  -2    1.20    0.81
   8   4  -2   11.61    1.67
  -8  -4  -2   12.04    1.63
   8  -4  -2    7.41    1.28
   8  -4  -2    9.55    2.34
   8  -4  -2    7.18    1.26
  -8  -4   2   10.39    1.61
   8   4   2   11.50    1.85
   8  -4  -2    7.85    1.71
  10  -4   2    7.72    1.55
  10   4  -2    5.05    3.10
  10  -4   2    5.93    1.18
  10   4  -2    4.87    2.07
 -10  -4  -2    7.80    1.75
  10  -4   2    6.96    3.08
  10   4   2    6.74    2.08
 -10  -4   2    6.35    1.68
  10  -4  -2    6.77    1.50
  10  -4  -2   11.81    2.91
  12  -4   2    1.52    1.65
  12   4  -2   -2.13    1.99
 -12  -4  -2    0.50    1.56
 -12  -4   2   -3.15    1.48
  12   4   2   -1.58    1.31
  12  -4  -2    0.16    1.66
  12   4   2    0.01    1.84
  14  -4   2    1.63    1.73
  14   4  -2    0.70    1.80
  14   4   2   -2.54    1.35
  14   4   2   -1.49    1.54
  14  -4  -2   -1.56    1.90
  16  -4   2   -1.99    1.55
  16   4  -2    0.76    1.62
  16   4   2    0.93    1.66
  16  -4  -2   -2.27    1.66
   0  -6   2   92.89    4.69
   0   6  -2   91.51    4.85
   2  -6   2   43.38    2.47
   2  -6  -2   41.47    2.38
   4  -6   2    0.35    0.66
   4  -6   2   -1.20    0.61
  -4  -6  -2    0.68    0.74
  -4  -6   2    0.19    0.73
   4  -6  -2   -0.30    1.01
  -4  -6   2    1.04    0.66
   4  -6  -2    0.75    0.62
  -6  -6  -2   29.84    2.42
  -6  -6  -2   29.25    2.60
   6  -6   2   35.44    2.37
   6  -6   2   34.00    2.07
  -6  -6  -2   28.27    2.24
   6  -6   2   35.13    2.47
   6   6   2   31.87    2.44
   6  -6  -2   34.44    2.47
   6  -6  -2   31.33    2.30
  -6  -6   2   31.22    2.68
  -6  -6   2   31.64    2.40
   6  -6  -2   29.86    3.42
   8  -6   2    2.47    1.80
  -8  -6  -2    0.62    1.13
   8  -6   2    3.07    1.11
   8   6  -2   -1.45    1.40
   8  -6   2    0.23    0.69
   8  -6  -2    1.93    1.70
   8  -6  -2    0.94    1.05
  -8  -6   2    0.59    1.12
   8   6   2   -0.55    1.43
   8  -6  -2    1.92    1.11
  10  -6   2    0.59    2.65
  12   6  -2    2.84    2.17
 -12  -6  -2    2.73    1.64
  12  -6   2    4.00    1.65
  12   6   2   -2.07    1.77
 -12  -6   2    1.93    1.63
  12  -6  -2    0.13    1.74
  14  -6   2   -0.78    1.61
  14   6  -2   -0.65    1.42
  14   6  -2   -0.99    1.85
 -14  -6  -2    1.38    1.75
  14  -6  -2   -1.73    1.90
  14   6   2   -1.57    1.62
 -14  -6   2    2.68    2.32
  14   6   2   -2.08    1.39
  16  -6   2    1.34    1.62
  16   6  -2    1.39    1.78
  16  -6  -2    0.97    1.78
  16   6   2   -0.76    1.57
   0   8  -2  195.27   10.17
   0  -8   2  206.18   10.00
  -2  -8  -2   30.79    2.08
   2  -8   2   34.19    2.08
  -2  -8   2   30.70    1.85
   2  -8  -2   32.71    1.96
  -2  -8   2   30.97    2.11
  -4  -8  -2  112.65    5.68
   4  -8   2  101.59    5.66
   4  -8   2  108.66    5.51
  -4  -8   2   93.30    5.60
   4  -8  -2  107.38    5.63
   6  -8   2   25.15    2.15
  -6  -8  -2   23.73    2.23
  -6  -8  -2   20.75    2.21
   6  -8   2   24.60    2.28
   6  -8   2   24.63    1.81
   6  -8  -2   22.97    2.18
  -6  -8   2   23.02    2.23
  -6  -8   2   22.03    2.20
   6  -8  -2   22.64    3.01
   6  -8  -2   25.08    2.04
   8  -8   2   -0.32    0.81
   8  -8   2   -0.22    1.17
   8   8  -2   -0.98    1.28
   8  -8   2    1.31    1.78
  -8  -8  -2    0.10    1.12
  -8  -8   2    1.01    1.27
   8  -8  -2   -0.42    1.06
   8   8   2    0.07    1.40
   8  -8  -2    0.18    1.66
   8  -8  -2    0.56    1.17
 -10  -8  -2    2.28    1.51
  10  -8   2    1.05    1.39
  10   8  -2    1.25    1.78
  10  -8   2    3.19    2.39
  10   8   2    2.66    1.78
  10  -8  -2    4.12    2.41
  10  -8  -2    5.27    1.57
 -10  -8   2    2.10    1.42
  12   8  -2    2.72    2.02
 -12  -8  -2   -2.64    1.61
  12  -8   2    2.26    1.62
  12  -8  -2    0.20    1.67
 -12  -8   2   -0.85    1.52
  12   8   2   -2.08    1.77
 -14  -8  -2    1.44    1.99
  14  -8   2    2.27    1.62
  14   8  -2    1.71    1.88
  14   8   2    1.71    1.40
  14  -8  -2    2.64    1.89
  14   8   2    1.60    1.63
 -14  -8   2    2.71    1.79
  16   8  -2    0.97    1.58
  16  -8   2    0.53    1.51
  16  -8  -2    1.76    1.63
  16   8   2   -0.19    1.58
  16   8   2    1.85    1.68
   0  10  -2  141.04    7.02
   0 -10  -2  122.01    6.81
   0 -10   2  141.39    6.78
   0 -10   2  126.99    6.83
   2 -10   2    5.91    0.86
  -2 -10  -2    5.28    0.94
   2 -10   2    6.76    0.96
  -2 -10   2    5.08    0.91
   2 -10  -2    6.57    0.84
   4 -10   2  102.21    5.62
  -4 -10  -2  104.58    5.60
  -4 -10  -2   97.54    5.56
   4 -10   2  111.05    5.55
   4 -10   2  101.47    5.52
   4 -10  -2   98.88    5.49
  -4 -10   2   95.66    5.57
  -4 -10   2  103.30    5.58
   4 -10  -2  107.87    5.57
   6 -10   2   46.70    2.91
  -6 -10  -2   48.35    3.16
   6 -10   2   46.38    3.10
  -6 -10  -2   49.76    3.34
   6 -10   2   45.80    3.33
   6 -10  -2   39.71    3.95
   6 -10  -2   44.91    2.72
  -6 -10   2   47.14    3.24
  -6 -10   2   46.97    3.15
   6 -10  -2   48.21    3.28
   6 -10  -2   49.06    3.05
  -8 -10  -2    2.25    1.34
   8  10  -2    0.94    1.45
   8 -10   2    1.31    1.37
   8 -10   2    0.25    1.12
   8 -10  -2   -1.04    1.61
   8  10   2    0.43    1.43
   8 -10  -2    0.68    1.21
   8 -10  -2    1.01    0.70
   8 -10  -2    0.16    1.14
  -8 -10   2    1.65    1.23
  10 -10   2   10.28    1.69
  10 -10   2    6.04    2.47
  10  10  -2   14.12    2.35
 -10 -10  -2    3.18    1.67
  10 -10  -2    7.84    1.72
  10  10   2   12.07    2.21
 -10 -10   2    7.73    1.86
 -12 -10  -2   -1.22    1.61
  12  10  -2    1.08    2.02
  12 -10   2    0.10    1.37
  12  10   2    1.94    1.90
  12 -10  -2    6.70    1.80
 -12 -10   2    0.55    1.61
 -14 -10  -2    3.43    2.00
  14 -10   2   -1.29    1.45
  14  10  -2   -1.08    1.65
  14 -10  -2   -0.66    1.58
  14  10   2   -0.75    1.50
 -14 -10   2    0.82    1.90
  16  10  -2    1.03    1.54
  16 -10   2    1.21    1.52
  16 -10  -2    1.22    1.69
  16  10   2    1.27    1.53
   0 -12  -2   20.37    1.80
   0 -12   2   28.89    1.93
   0 -12  -2   26.60    1.93
   0 -12   2   26.97    1.72
   0 -12   2   21.75    1.83
  -2 -12  -2    0.16    0.63
   2 -12   2   -0.05    0.70
   2 -12   2   -0.08    0.56
  -2 -12  -2   -0.87    0.76
   2 -12   2    0.35    0.59
   2 -12  -2    0.32    0.49
  -2 -12   2    0.36    0.68
   2 -12  -2    0.81    0.73
   2 -12  -2   -0.56    0.51
  -2 -12   2   -0.70    0.79
   4 -12   2   14.62    1.56
  -4 -12  -2   11.98    1.55
  -4 -12  -2    8.37    1.29
   4 -12   2   11.03    1.39
   4 -12   2    8.62    1.04
  -4 -12   2   12.11    1.53
   4 -12  -2   11.98    1.41
   4 -12  -2   12.18    1.40
  -4 -12   2    8.98    1.34
   4 -12  -2    9.25    1.04
   6 -12   2   57.65    3.45
  -6 -12  -2   64.73    3.94
   6 -12   2   61.79    3.82
  -6 -12  -2   64.90    4.05
   6 -12   2   58.55    4.09
   6 -12   2   66.37    3.77
  -6 -12   2   63.51    3.91
   6 -12  -2   57.82    3.48
   6 -12  -2   61.43    3.80
  -6 -12   2   58.48    4.01
   6 -12  -2   63.36    3.99
  -6 -12   2   58.77    3.46
   8 -12   2    3.82    1.23
  -8 -12  -2    0.71    1.38
   8 -12   2    1.44    1.50
  -8 -12  -2    1.30    1.38
  -8 -12   2    0.83    1.34
   8 -12  -2    0.42    1.17
   8 -12  -2    1.71    1.35
   8 -12  -2    1.39    0.71
  -8 -12   2    0.50    1.45
  10  12  -2    8.57    2.23
  10 -12   2    2.81    1.41
 -10 -12  -2    0.24    1.74
  10  12   2    5.83    2.18
  10 -12  -2    4.66    2.26
  10 -12  -2    4.39    1.49
 -10 -12   2    4.09    1.76
  12  12  -2    0.78    1.96
  12 -12   2    0.19    1.40
 -12 -12  -2    2.11    1.69
  12  12   2    0.05    1.79
 -12 -12   2    0.70    1.70
  12 -12  -2   -2.27    1.50
  14 -12   2    1.65    1.48
 -14 -12  -2    1.73    2.06
  14  12  -2   -0.06    1.64
 -14 -12   2    1.60    2.00
  14 -12  -2   -0.61    1.63
  14  12   2    0.65    1.55
  16 -12   2    0.88    1.59
  16  12  -2   -1.62    1.49
  16 -12  -2    1.60    1.61
  16  12   2    1.49    1.59
   0 -14   2    3.24    0.71
   0 -14  -2    3.92    0.83
   0 -14  -2    3.60    0.68
   0 -14  -2    3.19    0.92
   0 -14   2    4.01    0.93
   0 -14   2    2.52    0.61
   0 -14   2    3.46    0.83
  -2 -14  -2   40.25    2.86
   2 -14   2   47.53    2.87
  -2 -14  -2   43.35    2.95
   2 -14   2   50.15    2.91
   2 -14   2   43.38    2.83
   2 -14   2   51.46    2.71
  -2 -14  -2   45.88    2.65
   2 -14  -2   44.89    2.64
  -2 -14   2   46.19    2.65
   2 -14  -2   42.56    2.68
  -2 -14   2   46.72    2.99
   2 -14  -2   38.28    2.67
  -2 -14   2   44.06    2.96
   2 -14  -2   41.48    2.86
  -4 -14  -2    1.75    0.91
   4 -14   2    2.32    1.00
   4 -14   2    1.49    0.73
  -4 -14  -2    0.28    0.54
   4 -14   2    0.64    0.54
   4 -14   2    1.16    0.89
  -4 -14  -2   -0.82    1.17
   4 -14  -2    1.26    0.84
  -4 -14   2    1.40    1.16
  -4 -14   2    0.46    0.96
  -4 -14   2    1.57    0.63
   4 -14  -2    0.91    0.52
   4 -14  -2    1.31    0.99
   6 -14   2   21.51    2.37
  -6 -14  -2   21.58    2.49
   6 -14   2   21.44    2.25
   6 -14   2   21.80    1.67
  -6 -14  -2   25.38    2.45
   6 -14  -2   19.61    1.66
   6 -14  -2   22.19    2.29
  -6 -14   2   16.84    1.71
  -6 -14   2   20.67    2.44
  -6 -14   2   23.46    2.55
   6 -14  -2   20.95    2.23
  -8 -14  -2   16.15    2.20
  -8 -14  -2   12.98    2.15
   8 -14   2    8.99    2.00
   8 -14   2   13.70    1.81
   8 -14  -2   15.17    1.55
  -8 -14   2   14.27    2.14
   8 -14  -2   13.45    1.82
  -8 -14   2   10.17    2.08
   8 -14  -2   12.30    2.06
  10  14  -2    0.41    1.89
 -10 -14  -2   -1.12    1.61
  10 -14   2    2.11    1.28
  10  14   2   -0.12    1.97
  10 -14  -2    0.47    1.34
 -10 -14   2   -0.47    1.64
  12  14  -2   -0.38    1.74
 -12 -14  -2    0.49    1.80
  12 -14   2   -1.25    1.34
 -12 -14   2    0.37    1.83
  12  14   2    0.97    1.71
  12 -14  -2   -1.29    1.47
  14  14  -2   -0.10    1.51
  14 -14   2    1.24    1.44
 -14 -14  -2    1.54    2.06
  14  14   2    0.77    1.54
  14 -14  -2    1.70    1.62
 -14 -14   2    2.32    2.20
  16  14  -2    0.32    1.44
  16 -14   2   -0.52    1.42
  16  14   2   -1.06    1.48
  16 -14  -2    0.08    1.51
   0 -16  -2  357.83   17.67
   0 -16   2  363.58   17.52
   0 -16   2  334.81   17.67
   0 -16  -2  349.06   17.50
   0 -16  -2  342.95   17.62
   0 -16   2  361.28   17.69
   2 -16   2    1.88    0.58
  -2 -16  -2    4.19    1.23
  -2 -16  -2    2.58    0.93
   2 -16   2    3.42    0.98
   2 -16   2    2.49    0.82
  -2 -16  -2    2.28    0.67
   2 -16   2    3.39    0.87
   2 -16  -2    2.79    1.00
  -2 -16   2    3.16    0.72
  -2 -16   2    2.71    0.99
   2 -16  -2    1.74    0.59
  -2 -16   2    4.04    1.22
   4 -16   2    1.83    0.98
   4 -16   2    1.69    0.80
  -4 -16  -2    1.08    0.97
   4 -16   2    1.47    0.96
  -4 -16  -2    0.66    1.36
  -4 -16  -2    2.95    0.69
   4 -16   2    1.79    0.60
  -4 -16   2    1.28    1.30
   4 -16  -2    1.26    0.95
  -4 -16   2    1.63    0.70
   4 -16  -2    2.20    1.01
   4 -16  -2    1.72    0.62
  -4 -16   2    1.70    1.06
   6 -16   2    4.05    1.27
  -6 -16  -2    4.44    1.42
  -6 -16  -2    5.41    1.66
   6 -16   2    3.14    0.76
   6 -16   2    2.91    1.38
  -6 -16   2    4.02    1.64
   6 -16  -2    4.72    1.37
  -6 -16   2    4.26    1.43
   6 -16  -2    2.03    0.75
  -6 -16   2    3.74    0.92
   6 -16  -2    6.12    1.37
  -8 -16  -2    6.52    1.87
   8 -16   2    7.19    1.96
  -8 -16  -2    9.49    2.04
   8 -16   2    4.66    1.15
   8 -16   2    7.79    1.60
  -8 -16   2    8.52    1.99
   8 -16  -2    6.84    1.80
   8 -16  -2    8.50    1.72
  -8 -16   2    6.00    1.88
   8 -16  -2    6.97    1.14
  10  16  -2   25.88    3.04
  10 -16   2   14.24    2.14
 -10 -16  -2   19.59    2.55
  10  16   2   21.59    2.64
  10 -16  -2   14.87    2.27
 -10 -16   2   20.05    2.89
  12  16  -2    2.09    1.81
 -12 -16  -2    0.82    2.03
  12 -16   2    3.61    1.61
  12 -16  -2    2.11    1.61
  12  16   2    1.81    1.72
 -12 -16   2    5.26    2.20
 -14 -16  -2   -0.83    2.09
  14  16  -2   -0.18    1.55
  14 -16   2   -0.44    1.49
 -14 -16   2   -1.20    2.04
  14 -16  -2   -0.64    1.41
  14  16   2    0.19    1.38
   0 -18   2  134.35    6.95
   0 -18  -2  133.76    7.16
   0 -18   2  133.64    7.17
   0 -18  -2  124.96    7.09
   0 -18   2  129.36    7.20
   0 -18  -2  131.56    6.93
  -2 -18  -2   54.98    3.56
   2 -18   2   51.30    3.37
   2 -18   2   45.73    3.45
  -2 -18  -2   50.54    3.16
   2 -18   2   52.70    3.20
  -2 -18  -2   59.21    3.64
   2 -18   2   48.72    3.40
   2 -18  -2   54.77    3.47
   2 -18  -2   50.76    3.19
  -2 -18   2   55.39    3.22
  -2 -18   2   57.63    3.63
  -2 -18   2   55.88    3.61
  -4 -18  -2    4.91    1.45
   4 -18   2    8.52    1.43
  -4 -18  -2    6.78    1.07
   4 -18   2    8.95    1.13
  -4 -18  -2   10.18    1.83
   4 -18   2   10.51    1.58
   4 -18  -2    8.79    1.15
   4 -18  -2    8.00    1.41
  -4 -18   2    8.84    1.24
  -4 -18   2    9.28    1.85
  -4 -18   2    8.94    1.56
   4 -18  -2    6.69    1.42
   6 -18   2   22.99    2.59
   6 -18   2   19.87    1.87
  -6 -18  -2   20.29    2.50
  -6 -18  -2   25.64    2.88
   6 -18   2   21.11    2.35
   6 -18  -2   20.44    2.57
  -6 -18   2   23.14    2.80
  -6 -18   2   24.30    2.71
  -6 -18   2   19.60    2.00
   6 -18  -2   20.83    2.44
   6 -18  -2   19.68    1.88
  -8 -18  -2    5.85    1.99
   8 -18   2    4.46    0.99
   8 -18   2    2.99    1.40
  -8 -18  -2    4.68    1.81
   8 -18  -2    5.98    1.61
  -8 -18   2    5.50    1.99
   8 -18  -2    4.77    1.08
  -8 -18   2    7.71    2.10
 -10 -18  -2   47.54    4.22
  10  18  -2   48.58    4.09
  10 -18   2   38.51    3.73
  10 -18  -2   41.46    3.79
  10  18   2   50.06    4.05
 -10 -18   2   40.99    4.48
 -12 -18  -2    1.91    2.14
  12  18  -2    2.65    1.69
  12 -18   2    8.53    1.92
  12 -18  -2    4.11    1.76
  12  18   2    2.90    1.67
 -12 -18   2    7.98    2.33
  14 -18   2    0.07    1.68
  14  18  -2    1.01    1.50
  14  18   2    0.40    1.51
  14 -18  -2    0.62    1.53
   0 -20  -2   93.01    6.09
   0 -20  -2   84.41    5.14
   0 -20   2   86.40    4.88
   0 -20   2   91.03    5.29
   0 -20  -2   85.09    4.85
   0 -20   2   83.35    5.12
   2 -20   2   33.37    2.28
   2 -20   2   29.01    2.64
  -2 -20  -2   34.19    2.85
  -2 -20  -2   29.08    2.21
   2 -20   2   27.20    2.43
   2 -20   2   29.33    2.55
  -2 -20  -2   27.43    2.72
  -2 -20   2   31.08    2.26
   2 -20  -2   31.72    2.57
   2 -20  -2   31.00    2.24
  -2 -20   2   35.16    2.90
  -2 -20   2   30.49    2.83
   4 -20   2    3.01    1.08
  -4 -20  -2    4.93    1.60
  -4 -20  -2    0.88    0.74
  -4 -20  -2   -0.35    1.04
   4 -20   2    0.57    1.02
   4 -20   2    0.49    0.66
   4 -20  -2    0.04    0.88
   4 -20  -2    0.91    1.03
  -4 -20   2    1.80    0.84
   4 -20  -2    0.85    0.66
  -4 -20   2    2.10    1.43
  -4 -20   2    1.54    1.15
   6 -20   2   10.60    1.70
  -6 -20  -2    9.48    2.19
  -6 -20  -2    5.01    1.64
   6 -20   2    6.35    1.16
  -6 -20   2    7.78    1.31
  -6 -20   2    8.15    1.90
   6 -20  -2   11.68    1.82
  -6 -20   2    9.09    2.07
   6 -20  -2    8.34    1.24
   8 -20   2    4.50    1.04
  -8 -20  -2    6.37    2.11
  -8 -20  -2    5.92    2.13
   8 -20   2    4.04    1.52
   8 -20  -2    3.87    1.06
  -8 -20   2    3.55    2.17
   8 -20  -2    3.71    1.50
  -8 -20   2    6.90    2.25
  10  20  -2   27.75    3.45
 -10 -20  -2   20.19    2.96
  10 -20   2   27.13    3.04
  10 -20  -2   27.11    3.20
 -10 -20   2   27.44    3.81
  10  20   2   26.63    3.38
  12  20  -2    1.52    1.61
 -12 -20  -2    5.63    2.36
  12 -20   2    3.94    1.69
  12 -20  -2    3.78    1.77
 -12 -20   2    6.76    2.35
  12  20   2    2.73    1.63
  14  20  -2    0.87    1.46
  14 -20   2    1.47    1.57
  14  20   2    1.92    1.60
  14 -20  -2   -0.99    1.48
   0 -22   2   47.89    3.56
   0 -22   2   51.56    3.28
   0 -22   2   51.72    3.76
   0 -22  -2   48.90    3.59
   0 -22  -2   52.17    3.26
  -2 -22  -2   15.06    2.00
  -2 -22  -2   18.51    2.26
  -2 -22  -2   13.65    1.59
   2 -22   2   13.84    1.94
   2 -22   2   15.90    1.65
  -2 -22   2   17.20    2.20
  -2 -22   2   20.74    2.49
  -2 -22   2   13.07    1.56
   2 -22  -2   15.51    2.03
   2 -22  -2   13.05    1.60
  -4 -22  -2   -1.47    1.06
   4 -22   2    1.42    1.04
  -4 -22  -2   -1.06    1.36
  -4 -22  -2   -0.11    0.72
   4 -22   2    0.58    0.71
  -4 -22   2   -0.17    1.38
  -4 -22   2    0.31    0.83
  -4 -22   2   -0.86    1.29
   4 -22  -2    0.14    0.63
   4 -22  -2    0.38    1.05
   6 -22   2    2.34    1.23
  -6 -22  -2   -1.37    1.84
   6 -22   2    1.86    0.91
  -6 -22  -2   -1.95    1.31
  -6 -22   2    2.19    1.08
  -6 -22   2    2.25    1.58
   6 -22  -2    2.60    1.35
  -6 -22   2    2.05    1.81
   6 -22  -2    1.77    0.86
   8 -22   2    5.97    1.14
   8 -22   2    4.20    1.55
  -8 -22  -2    5.44    2.30
  -8 -22  -2    5.34    2.26
  -8 -22   2    5.55    2.34
  -8 -22   2    4.18    2.59
   8 -22  -2    6.32    1.70
   8 -22  -2    5.12    1.17
 -10 -22  -2   11.66    2.40
  10 -22   2    9.99    2.04
  10  22  -2    6.95    1.94
  10 -22  -2    9.00    2.04
 -10 -22   2   13.59    3.26
  10  22   2    6.15    1.91
  12  22  -2   -0.16    1.54
  12 -22   2    0.87    1.60
  12  22   2    0.74    1.49
  12 -22  -2    0.46    1.58
   0 -24   2   14.43    2.14
   0 -24   2   16.52    2.20
   0 -24  -2   17.09    1.79
   0 -24  -2   16.83    2.19
   0 -24   2   16.13    1.78
   2 -24   2    4.22    1.07
   2 -24   2    4.43    1.40
  -2 -24  -2    3.90    1.70
  -2 -24  -2    3.04    1.01
   2 -24  -2    5.15    1.10
  -2 -24   2    3.60    1.58
  -2 -24   2    3.91    1.14
  -2 -24   2    4.56    1.46
   2 -24  -2    4.65    1.46
  -4 -24  -2    2.43    1.77
   4 -24   2    2.65    0.95
  -4 -24  -2    2.50    1.02
  -4 -24  -2    2.05    1.39
   4 -24   2    2.14    1.39
  -4 -24   2    2.02    1.07
   4 -24  -2    3.43    0.95
   4 -24  -2    2.36    1.29
  -4 -24   2    1.08    1.54
  -4 -24   2    3.38    1.47
   6 -24   2    5.77    1.25
   6 -24   2    4.10    1.49
  -6 -24  -2    2.11    2.15
  -6 -24  -2    1.41    1.66
   6 -24  -2    4.59    1.12
  -6 -24   2    0.81    2.04
  -6 -24   2    5.69    2.17
  -6 -24   2    4.61    1.35
   6 -24  -2    4.42    1.53
  -8 -24  -2    1.68    2.40
   8 -24   2    2.46    1.51
  -8 -24  -2    0.96    2.00
   8 -24   2    1.43    0.98
   8 -24  -2    1.12    1.49
  -8 -24   2   -0.49    2.60
   8 -24  -2    0.92    0.97
  -8 -24   2    0.87    2.11
  10 -24   2   -0.80    1.48
  10  24  -2    0.35    1.37
 -10 -24  -2    0.10    1.78
  10  24   2    0.50    1.44
  10 -24  -2    0.08    1.41
 -10 -24   2   -5.75    2.61
  12  24  -2    1.10    1.42
  12 -24   2   -0.27    1.57
  12 -24  -2    1.66    1.59
  12  24   2   -1.11    1.38
   0 -26   2   -0.14    0.73
   0 -26   2    0.22    1.27
   0 -26  -2    1.79    1.41
   0 -26  -2   -0.69    0.76
   2 -26   2    1.81    0.90
  -2 -26  -2    1.53    1.62
  -2 -26  -2    1.63    0.99
   2 -26   2    1.48    1.33
  -2 -26   2   -0.02    1.44
  -2 -26   2    1.12    0.89
   2 -26  -2    2.14    0.90
   2 -26  -2    0.63    1.30
  -2 -26   2    1.68    1.54
   4 -26   2   12.42    1.70
   4 -26   2    9.52    1.93
  -4 -26  -2   11.40    1.69
  -4 -26  -2   10.69    2.15
  -4 -26  -2    8.03    2.20
  -4 -26   2   11.29    1.71
   4 -26  -2    7.50    1.86
   4 -26  -2   10.07    1.50
  -4 -26   2    6.52    2.02
  -4 -26   2    9.22    2.12
   6 -26   2    9.64    2.04
  -6 -26  -2    5.70    2.38
  -6 -26  -2    9.05    2.18
   6 -26   2    9.65    1.52
  -6 -26   2    7.50    2.55
  -6 -26   2   11.68    1.87
  -6 -26   2    4.70    2.34
   6 -26  -2    9.47    1.56
   6 -26  -2    6.02    1.90
   8 -26   2    0.28    1.54
  -8 -26  -2   -2.78    2.60
   8 -26   2    0.06    0.92
  -8 -26  -2   -1.37    1.99
   8 -26  -2    0.95    1.03
   8 -26  -2   -0.05    1.45
  -8 -26   2    4.65    2.90
  -8 -26   2   -0.01    2.07
  10 -26   2   -0.29    1.56
  10  26  -2    0.65    1.33
  10 -26  -2    0.78    1.55
  10  26   2   -0.07    1.29
   0 -28  -2    7.15    1.43
   0 -28  -2    5.71    1.92
   0 -28   2   10.25    2.06
   0 -28   2    7.24    1.47
   2 -28   2   -0.89    0.85
  -2 -28  -2   -1.14    1.57
  -2 -28  -2    0.45    1.09
   2 -28   2    0.00    1.34
   2 -28  -2    0.01    1.29
  -2 -28   2   -0.01    0.98
   2 -28  -2    0.96    0.95
  -2 -28   2    1.23    1.54
   4 -28   2   17.98    2.55
  -4 -28  -2   16.68    2.15
   4 -28   2   19.31    2.23
  -4 -28  -2   13.87    2.61
  -4 -28   2   12.58    2.48
  -4 -28   2   12.55    2.48
   4 -28  -2   16.92    2.05
  -4 -28   2   14.28    2.01
   4 -28  -2   18.44    2.57
   6 -28   2   21.61    2.91
  -6 -28  -2   12.81    2.71
   6 -28   2   25.10    2.52
  -6 -28  -2   18.52    3.11
  -6 -28   2   19.12    3.84
   6 -28  -2   22.92    2.53
   6 -28  -2   20.25    2.91
  -6 -28   2   16.89    2.88
   8 -28   2    3.09    1.78
   8 -28   2    2.78    1.25
  -8 -28  -2    0.73    2.03
  -8 -28   2    0.10    2.22
   8 -28  -2    1.40    1.17
   8 -28  -2    1.35    1.74
   0 -30  -2    9.12    1.67
   0 -30   2    9.38    2.20
   0 -30  -2   10.26    2.27
   0 -30   2    9.22    1.69
   2 -30   2    0.60    1.47
  -2 -30  -2    1.75    1.23
  -2 -30  -2    0.87    1.88
   2 -30   2    1.16    1.11
   2 -30  -2    0.39    1.67
  -2 -30   2    0.48    1.71
  -2 -30   2    1.01    1.14
   2 -30  -2    0.09    1.10
  -4 -30  -2   12.65    2.64
   4 -30   2   18.37    2.19
  -4 -30  -2   17.46    2.30
   4 -30   2   18.24    2.58
   4 -30  -2   18.33    2.19
  -4 -30   2   18.33    2.33
   4 -30  -2   14.82    2.47
  -4 -30   2   17.47    2.90
   6 -30   2   21.00    2.79
   6 -30   2   24.93    2.65
  -6 -30   2   20.96    3.08
   6 -30  -2   22.41    2.67
   6 -30  -2   23.48    2.94
   8 -30   2    2.47    1.26
   8 -30  -2    1.73    1.25
   0 -32  -2    2.58    1.20
   0 -32  -2    1.07    1.55
   0 -32   2    0.14    1.15
   0 -32   2    3.46    1.94
   2 -32   2   -0.20    1.59
   2 -32   2   -0.24    1.09
  -2 -32  -2   -0.98    1.81
  -2 -32  -2   -0.98    1.25
  -2 -32   2   -1.64    1.76
   2 -32  -2    0.25    1.62
   2 -32  -2    1.32    1.18
  -2 -32   2    0.80    1.28
  -4 -32  -2   10.38    3.18
   4 -32   2    7.93    1.97
   4 -32   2    8.92    1.66
  -4 -32  -2    4.11    2.32
   4 -32  -2    6.74    2.01
   4 -32  -2    8.60    1.56
  -4 -32   2    3.92    2.31
  -4 -32   2    7.77    1.79
  -1   1   3  269.21   13.29
  -1   1   3  278.67   13.22
   1   1  -3  304.28   13.40
  -1  -1  -3  247.21   13.16
   1  -1   3  274.47   13.21
  -1  -1   3  271.72   13.36
  -1  -1   3  300.21   13.35
   1  -1  -3  233.04   13.28
  -1   1  -3  268.48   13.21
   1  -1  -3  273.03   13.30
   1   1   3  251.12   13.32
  -3  -1  -3   41.71    2.40
   3  -1   3   46.60    2.44
   3   1  -3   45.98    3.00
   3  -1  -3   42.55    2.91
  -3  -1   3   40.42    2.44
   3  -1  -3   39.72    2.60
   3  -1  -3   42.97    2.45
   3   1   3   41.41    2.35
  -3   1  -3   44.08    2.43
   5   1  -3  198.12   10.64
  -5  -1  -3  206.05    9.93
  -5  -1  -3  190.99    9.95
   5  -1   3  188.94    9.95
   5  -1   3  193.29    9.83
   5  -1  -3  196.79   10.00
   5   1   3  183.76    9.88
   5  -1  -3  215.07   10.73
  -5   1  -3  185.52    9.96
  -5   1  -3  206.74    9.89
   7  -1   3    8.82    1.44
  -7   1   3    7.69    1.13
   7  -1   3    6.12    0.98
   7   1  -3    5.05    2.04
  -7  -1  -3    7.22    1.21
   7   1  -3    8.00    1.32
   7   1   3    9.62    1.56
  -7   1  -3    8.44    1.20
   7  -1  -3    7.27    1.28
   7  -1  -3    6.24    1.17
  -7  -1   3    6.12    1.13
   7  -1  -3    4.46    1.86
  -9   1   3   40.63    3.24
  -9  -1  -3   46.32    3.45
   9  -1   3   52.99    3.46
   9  -1   3   50.24    3.19
  -9  -1   3   54.11    3.46
   9  -1  -3   47.17    3.47
   9   1   3   50.77    3.57
   9  -1  -3   42.31    5.55
   9   1   3   49.66    3.23
  11  -1   3   23.94    2.48
  11   1  -3   21.62    4.21
  11   1  -3   29.96    3.22
  11  -1   3   24.03    2.82
  11  -1  -3   27.90    4.24
 -11  -1   3   23.67    2.80
  11   1   3   25.43    2.96
  11   1   3   22.13    2.57
  11  -1  -3   27.42    3.08
  13  -1   3    0.65    1.77
  13  -1   3    0.21    1.39
  13   1  -3   -2.16    1.90
  13   1   3   -0.93    1.31
  13   1   3   -0.78    1.62
  13  -1  -3   -0.97    1.82
  15   1  -3    8.74    2.30
  15  -1   3    1.40    1.75
  15   1   3    1.67    1.71
  15  -1  -3    1.93    1.99
  17  -1   3   -1.85    1.49
  17   1  -3   -1.09    1.66
  17  -1  -3    1.20    1.74
  17   1   3   -0.44    1.47
   1   3  -3  141.53    6.39
   1  -3   3  131.68    6.32
   1  -3   3  122.82    6.31
   1  -3   3  126.23    6.25
  -1  -3  -3  105.31    6.33
   1   3  -3  138.42    6.48
   1  -3  -3  111.21    6.36
  -1  -3   3  132.87    6.46
  -1   3  -3  123.22    6.25
   1  -3  -3  124.52    6.20
  -1   3  -3  119.20    6.34
   3  -3   3  130.93    6.47
  -3   3  -3  123.82    6.46
   3  -3  -3  127.62    6.44
   3  -3  -3  122.54    6.73
   5  -3   3  114.00    5.76
   5  -3   3  104.05    5.52
  -5  -3  -3  117.11    5.71
  -5  -3   3  102.40    5.63
   5  -3  -3  114.15    5.75
   5   3   3   97.50    5.53
  -5  -3   3  100.95    5.66
  -7  -3  -3    4.12    1.11
   7   3  -3    4.33    1.17
  -7   3   3    3.11    0.96
   7  -3   3    1.79    0.92
   7  -3   3    3.31    0.75
   7  -3   3    4.52    1.05
   7  -3  -3    5.13    1.68
   7   3   3    4.19    1.35
  -7  -3   3    3.48    1.09
   7  -3  -3    3.16    1.10
   7  -3  -3    2.42    0.93
   7  -3  -3    4.19    0.80
   9   3  -3   24.49    3.63
  -9  -3  -3   24.45    2.63
   9  -3   3   26.45    2.14
   9  -3   3   25.76    2.37
  -9  -3   3   23.10    2.35
   9  -3  -3   23.28    3.45
   9   3   3   25.24    2.76
   9  -3  -3   22.00    2.38
  11   3  -3    2.74    2.13
  11   3  -3    2.49    3.29
  11  -3   3    4.76    1.35
  11  -3   3    3.14    1.53
 -11  -3  -3    6.68    1.73
  11   3   3    4.65    1.99
  11  -3  -3    5.18    3.03
  11   3   3    3.89    1.36
  11  -3  -3    2.89    1.64
 -11  -3   3    1.96    1.51
  13   3  -3   -3.91    1.89
  13  -3   3    1.09    1.65
  13  -3  -3   -1.31    1.79
  13   3   3   -2.23    1.63
  13   3   3   -0.69    1.42
  15   3  -3    3.47    1.94
  15  -3   3   -2.21    1.52
  15   3   3   -1.10    1.53
  15  -3  -3   -0.63    1.94
  15   3   3   -1.18    1.56
  17  -3   3   -0.90    1.47
  17   3  -3   -1.05    1.58
  17  -3  -3   -2.16    1.61
  17   3   3   -0.25    1.49
   1   5  -3   15.64    1.38
   1  -5   3   17.66    1.19
   1  -5   3   18.04    1.12
  -1   5  -3   12.31    1.12
  -1  -5   3   14.26    1.03
  -3  -5  -3   28.14    1.91
   3  -5   3   27.76    1.84
   3  -5   3   28.39    1.98
   3  -5  -3   21.92    2.20
  -3  -5   3   23.01    1.80
   3  -5  -3   26.70    1.74
  -5  -5  -3    8.19    1.14
  -5  -5  -3    8.07    1.00
   5  -5   3    7.18    1.05
   5  -5   3    7.09    0.83
  -5  -5   3    7.23    1.05
   5  -5  -3    7.92    1.11
  -5  -5   3    6.64    1.11
   5  -5  -3    6.28    1.44
   7  -5   3   12.41    1.63
   7   5  -3   17.65    2.07
   7  -5   3   17.28    1.85
  -7  -5  -3   22.80    2.08
   7  -5   3   13.94    1.42
   7   5   3   18.84    2.13
   7  -5  -3   11.76    2.13
  -7  -5   3   18.03    1.98
   7  -5  -3   19.86    2.00
   7  -5  -3   14.25    1.72
   9  -5   3   -0.53    0.77
   9   5  -3   -2.16    2.49
   9   5  -3   -3.45    1.51
   9  -5   3   -0.23    1.17
  -9  -5  -3    0.51    1.17
   9  -5  -3    0.27    2.02
   9   5   3   -3.63    1.55
   9  -5  -3   -0.15    1.13
  11   5  -3   -0.36    1.97
 -11  -5  -3   -0.26    1.40
  11  -5   3   -0.88    1.10
  11  -5   3   -2.52    1.40
  11  -5   3    0.78    3.22
 -11  -5   3   -2.99    1.33
  11  -5  -3    4.14    2.79
  11   5   3   -3.74    1.68
  13  -5   3    0.33    1.59
 -13  -5  -3   -0.07    1.65
  13   5  -3   -4.06    1.92
  13   5   3   -1.42    1.42
 -13  -5   3   -1.82    1.66
  13   5   3   -1.38    1.63
  13  -5  -3   -0.26    1.82
  15   5  -3   -1.11    1.78
  15  -5   3    0.22    1.61
  15   5   3   -0.13    1.37
  15  -5  -3   -1.76    1.84
  15   5   3   -1.66    1.58
  17   5  -3   -1.28    1.56
  17  -5   3    1.98    1.54
  17   5   3    1.62    1.48
  17  -5  -3    3.42    1.87
   1   7  -3   13.43    1.43
   1  -7   3   12.48    1.12
   1  -7   3   13.97    1.24
  -1  -7   3   13.34    1.04
  -1  -7   3   13.42    1.17
   3  -7   3   24.71    1.70
  -3  -7  -3   30.70    2.00
   3  -7   3   24.40    1.85
   3  -7  -3   23.91    2.32
   3  -7  -3   26.50    1.75
  -3  -7   3   24.64    1.90
  -5  -7  -3   -0.14    0.80
   5  -7   3    0.02    0.74
   5  -7   3    1.03    0.63
   5  -7  -3    0.47    0.69
  -5  -7   3    0.52    0.76
   5  -7  -3    0.65    0.80
   5  -7  -3   -0.09    1.14
  -5  -7   3   -0.48    1.07
  -5  -7   3   -0.92    0.79
   7  -7   3   14.04    1.61
   7  -7   3   12.50    1.63
   7   7  -3   14.72    1.72
   7  -7   3   13.47    1.50
  -7  -7  -3   13.79    1.66
   7   7   3   20.15    1.88
   7  -7  -3   12.04    1.51
  -7  -7   3   13.57    1.67
   7  -7  -3   12.18    2.25
   7  -7  -3   18.15    2.04
   9   7  -3    8.58    1.91
   9  -7   3   11.14    2.69
   9  -7   3    9.04    1.31
   9  -7   3    6.64    1.58
  -9  -7  -3   10.32    1.75
   9  -7  -3    8.50    1.49
   9  -7  -3    8.30    2.33
   9   7   3   11.33    1.87
  -9  -7   3   12.28    1.76
  11   7  -3    2.75    2.07
 -11  -7  -3   -0.57    1.59
  11  -7   3    3.35    1.69
  11  -7   3   -0.92    2.94
 -11  -7   3    2.01    1.55
  11  -7  -3    1.00    1.65
  11   7   3    1.48    1.89
  11  -7  -3    0.51    4.28
 -13  -7  -3    0.93    1.72
  13  -7   3   -0.48    1.55
  13   7  -3   -0.53    2.04
  13  -7  -3   -1.97    1.86
  13   7   3    0.11    1.25
 -13  -7   3   -1.94    1.59
  13   7   3   -0.61    1.62
  15   7  -3   -0.77    1.74
  15  -7   3    0.56    1.57
  15   7   3   -2.30    1.34
  15   7   3    0.07    1.51
  15  -7  -3   -1.24    1.74
  17   7  -3   -0.20    1.46
  17  -7   3    0.34    1.72
  17  -7  -3    0.50    1.55
  17   7   3   -0.90    1.45
   1  -9   3  185.73    9.00
   1  -9   3  168.08    8.99
   1   9  -3  193.69    9.38
  -1  -9  -3  175.97    9.05
  -1  -9   3  175.36    8.92
  -1  -9   3  172.18    9.02
   3  -9   3  101.39    5.28
   3  -9   3   99.91    5.21
  -3  -9  -3   95.01    5.23
   3  -9  -3   97.32    5.17
  -3  -9   3   92.14    5.26
  -5  -9  -3   24.07    2.15
   5  -9   3   19.30    2.07
   5  -9   3   23.06    2.05
  -5  -9  -3   23.63    2.14
   5  -9   3   25.85    1.85
  -5  -9   3   24.87    2.20
   5  -9  -3   24.86    1.97
   5  -9  -3   25.02    2.04
   5  -9  -3   20.55    2.84
  -5  -9   3   24.84    2.17
  -7  -9  -3   -0.96    0.97
   7  -9   3    1.63    1.04
   7  -9   3    0.31    0.74
   7  -9   3   -0.85    0.99
  -7  -9  -3   -0.32    1.22
  -7  -9   3   -0.65    1.22
  -7  -9   3    0.31    1.00
   7  -9  -3   -0.16    1.44
   7  -9  -3   -0.50    1.02
   7  -9  -3   -0.91    0.96
   7  -9  -3   -0.11    0.50
  -9  -9  -3    4.96    1.61
   9  -9   3    5.51    1.53
   9  -9   3    2.56    1.47
   9   9  -3    6.39    1.96
   9  -9  -3    6.39    2.37
  -9  -9   3    7.57    1.77
   9  -9  -3    9.19    1.59
   9   9   3    5.70    1.81
  11  -9   3    5.63    1.57
  11   9  -3    6.35    2.07
 -11  -9  -3    4.28    1.82
 -11  -9   3    4.74    1.61
  11   9   3    6.17    2.02
  11  -9  -3    6.39    1.84
  13  -9   3    0.24    1.46
 -13  -9  -3   -0.33    1.74
  13   9  -3    0.90    2.08
  13   9   3    0.90    1.53
 -13  -9   3    3.08    1.75
  13  -9  -3   -0.13    1.67
  15   9  -3    1.03    1.71
  15  -9   3   -0.45    1.60
  15  -9  -3    1.00    1.58
  15   9   3    0.34    1.53
  15   9   3    1.46    1.52
  17   9  -3   -0.83    1.52
  17  -9   3    1.79    1.46
  17   9   3    1.01    1.41
  17  -9  -3   -2.39    1.53
   1 -11   3   43.38    2.60
   1  11  -3   45.25    3.00
  -1 -11  -3   38.03    2.56
   1 -11   3   40.28    2.60
  -1 -11   3   46.17    2.52
  -1 -11   3   38.67    2.61
  -1 -11   3   45.88    2.91
   3 -11   3    1.21    0.66
   3 -11   3    1.07    0.63
  -3 -11  -3   -0.97    0.88
  -3 -11  -3   -0.42    0.61
   3 -11  -3    0.80    0.76
  -3 -11   3   -0.07    0.48
  -3 -11   3   -0.21    0.75
  -3 -11   3    0.09    0.92
   3 -11  -3    0.66    0.55
   5 -11   3   81.71    4.65
   5 -11   3   88.89    4.66
   5 -11   3   78.59    4.78
  -5 -11  -3   79.57    4.68
  -5 -11  -3   79.20    4.74
   5 -11  -3   84.64    4.72
   5 -11  -3   79.20    4.59
   5 -11  -3   79.43    4.40
  -5 -11   3   80.64    4.78
  -5 -11   3   81.96    4.70
   7 -11   3    0.50    0.73
   7 -11   3   -2.41    1.03
   7 -11   3    1.09    0.98
  -7 -11  -3   -0.75    1.09
  -7 -11  -3    0.34    1.20
  -7 -11   3    0.18    1.08
   7 -11  -3    0.62    1.08
   7 -11  -3    0.27    0.58
  -7 -11   3    0.88    1.24
   7 -11  -3    0.17    0.97
  -9 -11  -3   29.25    3.25
   9 -11   3   25.09    2.74
   9  11  -3   33.49    2.96
   9 -11  -3   33.68    2.78
   9 -11  -3   28.51    4.30
   9 -11  -3   22.07    3.89
  -9 -11   3   31.15    3.32
  11 -11   3   -1.68    1.36
 -11 -11  -3   -0.05    1.67
  11  11  -3    0.84    1.97
  11 -11  -3   -0.24    1.33
  11  11   3    2.30    1.94
 -11 -11   3   -0.64    1.56
  13 -11   3   -2.04    1.39
  13  11  -3    0.67    1.88
 -13 -11  -3    1.56    1.90
  13 -11  -3   -0.50    1.48
  13  11   3    0.36    1.56
 -13 -11   3    0.05    1.77
  15 -11   3    1.22    1.55
 -15 -11  -3    5.14    2.19
  15  11  -3   -0.48    1.58
  15  11   3    2.18    1.46
 -15 -11   3    4.06    2.24
  15 -11  -3   -0.09    1.72
  15  11   3   -1.61    1.43
  17  11  -3    0.64    1.50
  17 -11  -3    0.61    1.56
  -1 -13  -3   14.09    1.64
   1 -13   3   13.48    1.52
   1 -13   3   15.46    1.23
   1 -13   3   13.58    1.39
  -1 -13  -3   14.35    1.46
   1 -13   3   11.54    1.40
   1 -13  -3   13.40    1.49
  -1 -13   3   13.14    1.51
   1 -13  -3   12.43    1.36
  -1 -13   3   17.38    1.36
  -1 -13   3   16.36    1.59
  -1 -13   3   15.89    1.25
   1 -13  -3   14.72    1.20
   3 -13   3   37.68    2.55
   3 -13   3   34.23    2.17
   3 -13   3   37.02    2.47
  -3 -13  -3   35.08    2.47
   3 -13   3   37.13    2.50
  -3 -13  -3   32.23    2.56
  -3 -13   3   36.13    2.65
  -3 -13   3   39.52    2.30
   3 -13  -3   31.35    2.49
  -3 -13   3   34.74    2.18
   3 -13  -3   33.95    2.33
   3 -13  -3   32.90    2.20
  -3 -13   3   36.61    2.62
   5 -13   3    0.80    0.47
  -5 -13  -3    1.12    0.92
   5 -13   3   -0.96    0.88
   5 -13   3    0.70    0.77
  -5 -13  -3    3.48    1.19
   5 -13   3    0.37    0.92
  -5 -13   3    1.68    0.63
  -5 -13   3    0.25    0.71
   5 -13  -3    0.39    0.84
  -5 -13   3    2.96    1.15
   5 -13  -3    0.78    0.53
  -5 -13   3   -0.72    1.08
   5 -13  -3    1.08    0.92
  -7 -13  -3   15.26    2.05
   7 -13   3   12.57    1.98
   7 -13   3   13.22    1.37
  -7 -13  -3   14.30    1.96
   7 -13   3   14.37    1.75
  -7 -13   3   15.32    2.13
  -7 -13   3   13.11    1.92
   7 -13  -3   13.01    1.42
   7 -13  -3   15.40    1.97
   7 -13  -3   16.96    2.01
   9 -13   3    5.16    1.35
  -9 -13  -3    0.07    1.64
   9  13  -3    2.47    1.88
   9 -13  -3    1.58    1.02
   9 -13  -3    0.22    1.84
  -9 -13   3    2.07    1.69
   9 -13  -3    1.33    1.35
   9  13   3    4.36    1.88
 -11 -13  -3    1.57    1.80
  11  13  -3   -0.08    2.10
  11 -13   3    1.44    1.30
  11  13   3    4.29    1.99
 -11 -13   3   -1.31    1.85
  11 -13  -3   -0.80    1.41
  13  13  -3   -0.25    1.80
  13 -13   3    1.32    1.41
 -13 -13  -3    1.29    2.04
  13  13   3   -0.19    1.70
  13 -13  -3   -0.51    1.46
 -13 -13   3    0.26    1.88
  15  13  -3    0.85    1.63
  15 -13   3    0.30    1.55
 -15 -13  -3    2.22    3.28
  15 -13  -3    1.44    1.57
 -15 -13   3   -1.01    2.78
  15  13   3   -0.96    1.41
  15  13   3    2.29    1.64
   1 -15   3   55.46    3.55
   1 -15   3   59.54    3.59
  -1 -15  -3   59.27    3.58
  -1 -15  -3   58.41    3.36
   1 -15   3   60.79    3.41
   1 -15   3   60.03    3.51
  -1 -15  -3   59.02    3.66
  -1 -15   3   63.76    3.65
   1 -15  -3   55.45    3.44
  -1 -15   3   62.24    3.48
   1 -15  -3   58.70    3.58
  -1 -15   3   60.14    3.37
  -1 -15   3   59.94    3.66
   1 -15  -3   59.04    3.37
   3 -15   3    4.14    1.06
   3 -15   3    5.09    1.07
  -3 -15  -3    4.52    0.98
   3 -15   3    4.99    1.03
  -3 -15  -3    4.95    1.33
   3 -15   3    4.39    0.74
  -3 -15  -3    3.77    0.77
   3 -15  -3    5.04    0.94
  -3 -15   3    3.43    1.07
  -3 -15   3    2.98    0.74
   3 -15  -3    3.95    1.10
  -3 -15   3    5.61    1.35
   3 -15  -3    4.09    0.79
   5 -15   3   22.17    2.01
   5 -15   3   17.68    1.54
  -5 -15  -3   17.65    2.22
   5 -15   3   20.12    2.11
   5 -15   3   17.43    2.13
  -5 -15  -3   23.32    2.29
   5 -15  -3   18.65    2.13
   5 -15  -3   18.01    2.01
   5 -15  -3   18.00    1.62
  -5 -15   3   23.04    2.29
  -5 -15   3   18.50    2.14
  -5 -15   3   19.54    1.67
  -7 -15  -3    3.45    1.53
  -7 -15  -3    4.27    1.60
   7 -15   3    2.36    1.24
   7 -15   3    2.28    1.38
   7 -15   3    2.09    0.68
  -7 -15   3    3.07    1.55
   7 -15  -3    3.85    1.41
   7 -15  -3    2.98    0.80
  -7 -15   3    1.67    1.39
  -7 -15   3    2.07    1.10
   7 -15  -3    3.20    1.25
  -9 -15  -3   -0.34    1.56
   9 -15   3    0.19    1.13
  -9 -15   3   -1.34    1.39
   9 -15  -3   -0.74    0.75
   9  15   3   -1.26    1.81
   9 -15  -3    1.61    1.90
   9 -15  -3   -2.15    1.32
  -9 -15   3   -2.05    1.56
 -11 -15  -3    0.37    1.82
  11  15  -3    1.71    2.12
  11 -15   3    0.15    1.23
  11  15   3    1.88    1.96
 -11 -15   3   -1.66    1.94
  11 -15  -3   -0.39    1.46
 -13 -15  -3   -2.37    1.97
  13 -15   3    1.33    1.48
  13  15  -3   -0.60    1.62
 -13 -15   3   -0.45    2.07
  13  15   3    1.66    1.63
  13 -15  -3   -0.38    1.56
  15 -15   3   -0.42    1.50
  15  15  -3   -0.53    1.58
  15  15   3   -2.78    1.41
  15 -15  -3   -0.03    1.49
  -1 -17  -3  129.55    6.86
  -1 -17  -3  131.60    6.89
   1 -17   3  120.71    6.82
  -1 -17  -3  122.40    6.60
   1 -17   3  130.89    6.67
   1 -17   3  116.28    6.85
   1 -17   3  123.99    6.76
   1 -17  -3  121.07    6.64
  -1 -17   3  130.16    6.68
  -1 -17   3  132.89    6.86
   1 -17  -3  123.77    6.84
  -1 -17   3  126.93    6.69
  -1 -17   3  125.08    6.94
  -3 -17  -3    6.58    0.95
   3 -17   3    5.33    1.21
   3 -17   3    5.71    1.21
  -3 -17  -3    4.53    1.20
  -3 -17  -3    6.09    1.50
   3 -17   3    7.76    1.27
   3 -17   3    5.80    0.90
   3 -17  -3    7.08    1.01
  -3 -17   3    5.26    0.92
  -3 -17   3    6.67    1.53
  -3 -17   3    5.36    1.25
   3 -17  -3    6.45    1.24
   3 -17  -3    7.60    1.17
   5 -17   3   30.98    2.62
   5 -17   3   31.35    2.15
  -5 -17  -3   24.93    2.23
  -5 -17  -3   30.03    2.84
   5 -17   3   29.57    2.78
  -5 -17  -3   34.19    2.88
  -5 -17   3   29.67    2.23
   5 -17  -3   30.69    2.23
  -5 -17   3   32.81    2.83
   5 -17  -3   31.37    2.65
   5 -17  -3   27.61    2.56
  -5 -17   3   30.28    2.83
   7 -17   3   12.59    1.98
  -7 -17  -3    9.34    1.90
   7 -17   3   10.15    1.78
   7 -17   3    9.23    1.22
  -7 -17  -3   14.38    2.15
   7 -17  -3    8.70    1.23
   7 -17  -3   11.22    1.92
  -7 -17   3   13.35    2.07
  -7 -17   3   10.66    1.97
   7 -17  -3    9.66    1.77
   9 -17   3   14.95    2.13
  -9 -17  -3   21.04    2.61
  -9 -17  -3   20.37    2.80
  -9 -17   3   19.85    2.60
  -9 -17   3   17.73    2.80
   9 -17  -3   19.12    2.46
   9 -17  -3   19.36    1.98
 -11 -17  -3    9.97    2.35
  11 -17   3    6.75    1.83
  11  17  -3   11.28    2.35
  11  17   3    6.92    2.12
  11 -17  -3    7.89    2.00
 -11 -17   3    7.68    2.63
  13  17  -3   -1.70    1.50
 -13 -17  -3   -2.10    2.06
  13 -17   3    1.34    1.49
  13  17   3   -2.00    1.37
  13 -17  -3   -1.03    1.40
 -13 -17   3    1.36    2.21
  15 -17   3   -0.44    1.57
  15  17  -3   -0.07    1.55
  15  17   3   -1.67    1.38
  15 -17  -3    1.25    1.54
   1 -19   3   75.29    4.69
  -1 -19  -3   83.25    4.70
  -1 -19  -3   79.48    4.71
  -1 -19  -3   72.47    4.31
   1 -19   3   74.18    4.63
   1 -19   3   74.51    4.34
   1 -19   3   74.20    4.51
   1 -19  -3   72.18    4.34
  -1 -19   3   80.00    4.39
   1 -19  -3   75.41    4.63
  -1 -19   3   80.52    4.69
  -1 -19   3   79.52    4.78
   3 -19   3   -0.59    0.83
   3 -19   3   -0.43    0.79
  -3 -19  -3    0.38    0.57
   3 -19   3    0.95    0.61
  -3 -19  -3   -1.99    0.90
   3 -19   3    0.28    0.84
  -3 -19  -3    1.24    1.32
  -3 -19   3   -0.72    1.02
  -3 -19   3    0.83    0.77
  -3 -19   3    0.80    1.30
   3 -19  -3    1.14    0.97
   3 -19  -3    0.33    0.60
   5 -19   3   39.26    3.22
   5 -19   3   40.45    3.02
   5 -19   3   35.01    2.55
  -5 -19  -3   33.74    2.54
  -5 -19  -3   35.36    3.23
  -5 -19  -3   37.72    3.33
   5 -19  -3   38.19    3.09
   5 -19  -3   33.31    2.98
  -5 -19   3   40.04    3.36
  -5 -19   3   38.34    3.22
  -5 -19   3   36.59    2.74
   5 -19  -3   39.10    2.65
   7 -19   3    1.90    1.20
   7 -19   3    1.65    0.76
  -7 -19  -3    2.63    1.54
  -7 -19  -3    5.35    1.76
  -7 -19   3    3.31    1.58
   7 -19  -3    0.78    0.76
  -7 -19   3    3.78    1.69
   7 -19  -3    1.05    1.15
  -9 -19  -3   17.66    2.70
  -9 -19  -3   14.58    2.61
   9 -19   3   10.95    1.96
  -9 -19   3   10.06    2.84
   9 -19  -3   10.13    2.00
  -9 -19   3   14.39    2.50
   9 -19  -3    9.16    1.41
  11  19  -3   11.86    2.23
 -11 -19  -3   17.57    2.85
  11 -19   3   14.05    2.25
  11 -19  -3   10.94    2.14
  11  19   3   13.94    2.29
 -11 -19   3   25.95    3.80
 -13 -19  -3   -3.54    2.60
  13 -19   3   -0.23    1.58
  13  19  -3   -0.41    1.43
  13 -19  -3   -0.35    1.57
  13  19   3   -0.73    1.49
 -13 -19   3    0.56    2.84
   1 -21   3   22.59    2.31
   1 -21   3   19.18    2.07
   1 -21   3   22.22    1.90
  -1 -21  -3   24.83    2.46
   1 -21   3   24.22    2.44
  -1 -21  -3   21.40    1.89
  -1 -21   3   21.90    2.54
  -1 -21   3   23.31    1.95
   1 -21  -3   23.62    2.44
   1 -21  -3   22.88    1.92
  -1 -21   3   24.11    2.54
  -3 -21  -3   -0.83    1.01
   3 -21   3   -0.59    0.90
  -3 -21  -3    0.07    1.41
   3 -21   3    0.17    0.58
  -3 -21  -3    0.21    0.65
  -3 -21   3    1.12    1.28
   3 -21  -3   -0.57    0.55
  -3 -21   3   -1.21    1.32
  -3 -21   3   -0.55    0.70
   3 -21  -3    1.55    1.12
  -5 -21  -3    9.69    1.97
  -5 -21  -3   16.91    2.41
  -5 -21  -3   11.83    1.50
   5 -21   3   12.68    1.84
   5 -21   3   11.27    1.44
   5 -21  -3   13.97    1.60
  -5 -21   3   10.51    2.06
  -5 -21   3   10.11    1.52
  -5 -21   3   12.48    2.08
   5 -21  -3   12.94    1.96
  -7 -21  -3   -0.97    1.63
   7 -21   3    0.73    0.80
  -7 -21  -3    3.01    1.66
   7 -21   3    1.57    1.22
   7 -21  -3    3.15    1.42
  -7 -21   3    0.20    1.77
   7 -21  -3    1.80    0.89
  -7 -21   3    3.20    1.78
   9 -21   3   11.53    2.11
  -9 -21  -3   19.36    3.01
  -9 -21  -3   14.12    2.68
   9 -21  -3   16.76    1.97
   9 -21  -3   13.70    2.21
  -9 -21   3   14.08    3.22
  -9 -21   3   15.26    2.76
  11 -21   3    2.59    1.58
  11  21  -3    0.29    1.64
 -11 -21  -3    4.04    2.09
  11 -21  -3    4.33    1.67
  11  21   3    0.67    1.60
 -11 -21   3    0.26    2.72
  13  21  -3   -0.03    1.37
  13 -21   3   -0.04    1.55
  13  21   3    0.05    1.48
  13 -21  -3    1.63    1.53
   1 -23   3    2.52    1.33
   1 -23   3    3.79    0.94
   1 -23   3    3.24    1.33
  -1 -23  -3    3.60    1.50
  -1 -23  -3    2.51    0.91
  -1 -23   3    4.45    1.55
   1 -23  -3    4.36    1.39
  -1 -23   3    3.96    0.96
  -1 -23   3    5.01    1.55
   1 -23  -3    4.56    1.00
  -3 -23  -3   -1.09    1.09
  -3 -23  -3   -2.12    1.37
  -3 -23  -3   -0.14    0.71
   3 -23   3    0.14    0.63
   3 -23   3   -0.38    1.07
  -3 -23   3    2.20    1.51
   3 -23  -3   -0.61    1.03
  -3 -23   3    0.09    0.81
  -3 -23   3    0.46    1.11
   3 -23  -3   -0.14    0.60
   5 -23   3    0.15    1.06
   5 -23   3   -0.28    0.72
  -5 -23  -3    0.04    0.91
  -5 -23  -3   -1.13    1.61
  -5 -23  -3   -2.23    1.25
   5 -23  -3   -0.10    0.69
   5 -23  -3   -0.27    1.10
  -5 -23   3   -0.06    0.93
  -5 -23   3    0.22    1.55
  -5 -23   3    0.61    1.39
   7 -23   3    0.33    1.22
   7 -23   3    0.49    0.82
  -7 -23  -3   -0.25    1.58
  -7 -23  -3    1.37    1.87
  -7 -23   3   -1.07    1.84
  -7 -23   3   -0.91    2.08
   7 -23  -3    0.30    0.75
   7 -23  -3    0.10    1.30
   9 -23   3    0.61    1.46
  -9 -23  -3    0.19    2.09
  -9 -23  -3    2.63    1.77
   9 -23  -3    7.04    1.32
  -9 -23   3    3.12    2.95
  -9 -23   3    1.36    2.29
   9 -23  -3    2.42    1.57
  11 -23   3   -0.37    1.43
  11  23  -3    0.27    1.48
 -11 -23  -3   -0.59    2.84
 -11 -23   3   -1.90    3.16
  11  23   3   -0.53    1.48
  11 -23  -3    0.67    1.55
  13  23  -3    0.52    1.45
  13 -23   3   -0.38    1.84
  13 -23  -3   -0.58    1.50
   1 -25   3    0.78    1.13
  -1 -25  -3   -0.76    1.29
   1 -25   3    0.40    0.76
  -1 -25  -3   -0.33    0.77
   1 -25  -3    0.10    0.77
  -1 -25   3    0.77    1.37
  -1 -25   3   -0.09    0.77
   1 -25  -3    0.77    1.22
  -1 -25   3    0.53    1.38
   3 -25   3   -0.17    1.12
  -3 -25  -3    0.53    0.91
  -3 -25  -3    0.05    1.52
   3 -25   3   -1.09    0.70
   3 -25  -3   -0.34    1.25
  -3 -25   3   -0.78    0.88
   3 -25  -3   -0.62    0.69
  -3 -25   3    0.00    1.35
  -3 -25   3   -1.27    1.38
  -5 -25  -3    3.48    1.61
  -5 -25  -3    5.69    2.16
   5 -25   3    4.81    1.62
   5 -25   3    6.26    1.27
  -5 -25   3    5.06    1.44
  -5 -25   3    4.14    1.98
   5 -25  -3    6.65    1.79
   5 -25  -3    6.24    1.33
  -5 -25   3    5.62    2.02
  -7 -25  -3    4.18    2.13
   7 -25   3    2.89    1.14
  -7 -25  -3    2.15    2.02
   7 -25   3    3.68    1.52
  -7 -25   3    3.12    2.61
   7 -25  -3    4.63    1.30
  -7 -25   3    4.17    2.16
   7 -25  -3    3.74    1.69
  -9 -25  -3   -3.12    1.89
   9 -25   3   -0.49    1.51
  -9 -25  -3   -0.32    1.48
  -9 -25   3   -1.87    1.98
   9 -25  -3   -0.21    1.53
  -9 -25   3    5.82    2.77
   9 -25  -3   -0.22    1.01
  11 -25   3    0.87    1.53
  11  25  -3   -0.31    1.44
  11 -25  -3   -0.14    1.55
  11  25   3    1.44    1.42
  -1 -27  -3    9.76    1.60
   1 -27   3   10.21    1.57
   1 -27   3   12.43    2.21
  -1 -27  -3    9.86    2.14
  -1 -27   3    9.86    1.56
   1 -27  -3   10.82    1.61
   1 -27  -3    9.98    1.98
  -1 -27   3    8.26    2.03
  -3 -27  -3    3.61    1.87
   3 -27   3    2.84    1.11
   3 -27   3    2.16    1.48
  -3 -27  -3    3.90    1.27
  -3 -27   3    3.03    1.81
   3 -27  -3    4.72    1.18
   3 -27  -3    3.82    1.68
  -3 -27   3    4.82    1.71
  -3 -27   3    3.61    1.19
  -5 -27  -3   10.76    2.57
   5 -27   3   11.34    2.25
   5 -27   3   13.75    1.78
  -5 -27   3   12.66    1.87
   5 -27  -3   12.84    1.75
   5 -27  -3   10.46    2.32
  -5 -27   3   13.64    2.71
  -5 -27   3   10.03    2.45
   7 -27   3    5.22    1.30
   7 -27   3    4.60    1.84
  -7 -27  -3    0.89    1.99
  -7 -27  -3    2.22    2.42
   7 -27  -3    6.55    1.53
  -7 -27   3    2.15    2.95
   7 -27  -3    7.24    2.06
  -7 -27   3    4.38    2.36
  -9 -27  -3    0.92    1.97
   9 -27   3    1.04    1.58
  -9 -27   3    0.40    2.03
   9 -27  -3   -0.63    1.08
   9 -27  -3   -1.69    1.48
  -1 -29  -3    9.89    2.25
   1 -29   3    9.02    2.09
  -1 -29  -3   11.54    1.77
   1 -29   3    8.23    1.59
   1 -29  -3   10.29    1.71
  -1 -29   3   10.47    1.72
   1 -29  -3   10.41    2.19
  -1 -29   3   11.03    2.25
   3 -29   3    1.48    1.14
   3 -29   3    3.02    1.55
  -3 -29  -3    2.35    1.28
  -3 -29  -3    1.50    1.93
   3 -29  -3    3.08    1.61
  -3 -29   3    1.19    1.22
   3 -29  -3    1.64    1.10
  -3 -29   3    1.82    2.01
  -3 -29   3    1.02    1.72
  -5 -29  -3   13.35    2.81
   5 -29   3   20.90    2.45
   5 -29   3   21.86    2.87
   5 -29  -3   18.87    2.29
   5 -29  -3   21.07    2.85
  -5 -29   3   20.11    2.42
  -5 -29   3   14.91    2.87
  -5 -29   3   20.96    3.61
  -7 -29  -3    7.36    2.35
   7 -29   3   11.64    1.75
   7 -29   3    9.81    2.11
   7 -29  -3   12.15    1.86
  -7 -29   3    7.29    2.53
   7 -29  -3    6.62    2.26
   9 -29  -3    5.05    1.44
  -1 -31  -3    6.20    1.57
  -1 -31  -3    5.88    2.14
   1 -31   3    6.69    1.59
   1 -31   3    3.00    1.85
   1 -31  -3    7.65    2.19
   1 -31  -3    8.26    1.59
  -1 -31   3    5.92    1.53
  -1 -31   3    5.43    2.25
   3 -31   3    1.81    1.61
  -3 -31  -3    3.03    1.50
   3 -31   3    1.57    1.18
  -3 -31  -3    1.01    1.90
   3 -31  -3    2.61    1.27
  -3 -31   3    5.06    1.49
   3 -31  -3    3.46    1.80
  -3 -31   3    1.42    1.97
   5 -31   3   15.08    2.03
   5 -31   3   14.03    2.32
  -5 -31  -3    7.96    2.34
  -5 -31   3   15.64    2.14
  -5 -31   3   10.64    2.53
   5 -31  -3   11.97    2.27
   5 -31  -3   15.51    2.08
  -1 -33  -3   -0.45    1.93
   1 -33   3   -0.37    1.06
  -1 -33  -3    0.08    1.10
   1 -33   3   -0.23    1.57
   1 -33  -3   -0.86    1.63
   1 -33  -3   -0.18    1.10
  -1 -33   3    0.39    1.96
  -1 -33   3    0.49    1.22
   3 -33   3   -0.14    1.12
  -3 -33  -3    0.99    1.31
   3 -33  -3    0.57    1.16
  -3 -33   3    2.33    1.32
  -3 -33   3    1.00    2.63
   0   0   4  181.38    9.86
   0   0   4  195.62    9.79
   0   0  -4  205.55    9.80
   0   0  -4  214.00    9.92
   2   0  -4    4.23    0.69
   2   0  -4    3.26    0.58
   2   0   4    5.96    0.65
   2   0  -4    5.13    0.76
  -2   0   4    3.65    0.61
  -2   0  -4    4.16    0.53
  -4   0  -4   24.66    1.75
   4   0   4   24.62    1.63
   4   0  -4   23.13    2.09
   4   0  -4   26.15    2.60
  -4   0  -4   26.69    1.75
   4   0   4   23.54    1.67
  -6   0  -4  122.54    6.35
   6   0  -4  133.63    7.40
   6   0   4  115.00    6.26
  -6   0   4  123.19    6.34
   6   0   4  117.68    6.39
   6   0  -4  114.11    6.44
  -8   0   4   12.05    1.53
   8   0  -4    6.94    2.43
   8   0  -4    8.80    1.49
  10   0   4   18.73    2.20
  10   0   4   18.39    2.15
  10   0  -4   21.78    2.73
  10   0  -4   16.81    3.57
  12   0   4    2.40    1.54
  12   0   4    4.55    1.69
  12   0  -4   -0.08    1.98
  14   0  -4    3.94    2.01
  14   0   4    1.83    1.70
  14   0   4    2.98    1.57
  16   0  -4    3.81    1.97
  16   0   4    1.72    1.54
  18   0  -4   -0.97    1.72
   0  -2   4   33.04    1.82
   0  -2   4   30.07    1.66
   0  -2   4   29.05    1.74
   0   2  -4   29.33    1.65
   0   2  -4   27.96    1.71
  -2   2   4   51.50    3.03
   2  -2   4   59.30    2.99
   2  -2  -4   56.63    3.09
  -2   2  -4   54.60    2.98
   4  -2   4   24.08    1.58
  -4  -2  -4   24.00    1.66
   4   2  -4   21.40    2.14
   4  -2   4   23.51    1.70
  -4  -2  -4   24.59    1.71
   4  -2  -4   23.72    1.77
   4  -2  -4   24.25    1.96
  -4  -2   4   22.94    1.76
  -4   2  -4   22.82    1.72
   4  -2  -4   21.66    2.32
   4   2   4   24.17    1.56
  -6  -2  -4    4.55    1.03
   6  -2   4    6.49    1.06
  -6  -2  -4    7.34    1.15
   6   2  -4    5.54    1.86
   6   2  -4    6.28    1.12
   6  -2   4    6.52    0.89
   6   2   4    5.28    1.10
   6  -2  -4    3.31    1.21
   6  -2  -4    6.76    1.13
   6  -2  -4    6.16    1.16
  -6  -2   4    7.18    1.14
   6  -2  -4    5.69    1.72
   8   2  -4    2.25    1.31
   8   2  -4    0.80    2.28
  -8  -2   4    0.08    1.10
   8  -2  -4    2.21    1.97
   8  -2  -4    0.13    1.02
  10  -2   4   25.34    2.58
 -10  -2  -4   27.44    2.73
  10   2  -4   23.86    3.87
  10  -2   4   23.84    2.38
  10  -2  -4   27.15    3.91
  10   2   4   27.36    2.49
  10   2   4   27.76    2.91
 -10  -2   4   22.99    2.33
  10  -2  -4   24.67    2.71
  12  -2   4   -0.60    1.28
  12   2  -4    0.26    1.98
  12  -2   4    1.44    1.54
  12   2   4   -2.64    1.68
  12   2   4   -2.93    1.25
  12  -2  -4   -2.21    1.81
  14  -2   4   -0.44    1.61
  14   2  -4    0.69    2.05
  14   2   4    2.72    1.53
  14   2   4    1.91    1.63
  14  -2  -4    2.55    2.01
  16  -2   4    0.78    1.64
  16   2  -4    2.78    1.92
  16  -2  -4    1.76    1.95
  16   2   4    2.78    1.70
  18   2  -4    0.40    2.04
   0   4  -4   81.71    4.73
   0   4  -4   99.64    4.85
   0  -4   4   94.47    4.83
   0  -4   4   88.10    4.62
   2  -4   4   10.88    1.22
  -2  -4  -4    8.85    1.18
   2   4  -4    9.66    1.21
   2  -4   4    9.81    1.04
   2  -4  -4    8.45    1.10
   2  -4  -4    9.56    0.88
  -4  -4  -4   24.86    1.75
   4  -4   4   22.58    1.52
   4  -4   4   23.79    1.75
   4  -4  -4   19.51    2.26
   4  -4  -4   24.32    1.74
  -4  -4   4   22.39    1.76
  -4  -4   4   18.11    1.72
  -6  -4  -4    3.89    1.00
   6  -4   4    3.36    0.97
  -6  -4  -4    2.73    0.91
   6   4  -4    4.81    1.16
   6  -4   4    2.67    0.70
   6  -4  -4    3.90    0.90
   6  -4  -4    3.26    1.01
   6  -4  -4    1.10    1.02
  -6  -4   4    5.78    1.04
   8  -4   4   -0.36    0.69
   8  -4   4   -0.59    1.07
   8   4  -4   -0.15    1.23
  -8  -4  -4   -0.10    1.16
   8   4   4   -1.33    1.42
   8  -4  -4    0.30    0.92
   8  -4  -4    2.15    1.84
   8  -4  -4    3.08    1.33
  -8  -4   4   -2.33    1.06
  10   4  -4    1.13    1.87
  10   4  -4    5.63    2.87
  10  -4   4    2.59    1.42
  10  -4   4    2.66    1.13
 -10  -4  -4    2.46    1.48
  10  -4  -4    1.70    1.34
  10   4   4    5.00    1.89
  10  -4  -4    0.85    2.59
 -10  -4   4    0.52    1.42
 -12  -4  -4    1.77    1.55
  12  -4   4    0.29    1.53
  12  -4   4   -0.99    1.26
  12   4  -4    0.98    2.04
  12  -4  -4   -2.23    1.74
  12   4   4   -3.07    1.27
 -12  -4   4    0.12    1.64
  12   4   4   -3.98    1.63
  14  -4   4   -0.85    1.61
  14   4  -4   -0.17    2.03
  14  -4  -4   -0.65    1.92
  14   4   4    0.33    1.31
  14   4   4   -1.78    1.59
  16  -4   4    0.49    1.49
  16   4  -4    2.03    1.85
  16   4   4   -2.18    1.56
  16  -4  -4   -2.73    1.73
   0  -6   4    4.68    0.66
   0  -6   4    5.43    0.92
   0   6  -4    6.16    0.92
   2   6  -4   10.46    1.35
   2  -6   4   10.26    1.06
   2  -6   4   10.23    1.10
  -2  -6   4    9.27    1.12
   2  -6  -4    9.00    1.21
   2  -6  -4   10.29    0.96
   4  -6   4   37.90    2.59
  -4  -6  -4   38.59    2.42
   4  -6   4   35.78    2.36
   4  -6   4   34.21    2.19
   4  -6  -4   35.79    2.32
   4  -6  -4   31.45    2.96
  -4  -6   4   31.48    2.31
   6  -6   4    1.01    0.63
  -6  -6  -4    1.36    0.89
  -6  -6  -4    0.34    0.80
   6  -6   4    0.83    1.01
   6  -6   4    0.61    0.79
  -6  -6   4    1.48    0.88
  -6  -6   4    0.15    1.22
   6  -6  -4    0.52    0.84
   6   6   4    0.96    1.21
   6  -6  -4    0.53    1.26
   6  -6  -4    0.95    0.84
   8  -6   4   -0.64    0.76
   8  -6   4   -2.74    1.15
   8   6  -4   -0.81    1.33
  -8  -6  -4   -0.76    1.12
   8  -6  -4    0.84    0.99
   8  -6  -4    0.29    0.88
   8  -6  -4    1.16    1.28
  -8  -6   4   -1.12    1.15
   8   6   4   -0.97    1.39
   8  -6  -4    0.88    1.80
  10  -6   4    8.13    1.37
 -10  -6  -4    6.82    1.78
  10  -6   4    7.29    1.68
  10   6  -4    6.58    2.13
  10  -6  -4    4.52    2.58
 -10  -6   4    7.67    1.69
  10   6   4   10.53    2.05
  12   6  -4    8.68    2.37
  12  -6   4    1.41    1.60
 -12  -6  -4    0.72    1.65
  12   6   4    2.19    1.34
 -12  -6   4    3.76    1.56
  12   6   4    0.83    1.72
  12  -6  -4    0.76    1.87
  14  -6   4   -1.17    1.47
  14   6  -4   -2.88    1.84
  14   6   4   -2.18    1.26
  14  -6  -4   -0.66    1.89
  14   6   4    0.21    1.56
  16   6  -4   -2.63    1.65
  16  -6   4    0.95    1.44
  16   6   4    1.43    1.54
  16  -6  -4   -0.47    1.70
  16   6   4    0.04    1.52
   0  -8   4  167.73    8.83
   0  -8   4  174.29    8.79
   0   8  -4  183.30    9.08
   2  -8   4   21.06    1.60
  -2  -8  -4   21.42    1.71
   2  -8   4   20.93    1.63
   2   8  -4   25.63    2.16
  -2  -8   4   21.69    1.52
  -2  -8   4   20.43    1.68
   2  -8  -4   21.24    1.48
  -4  -8  -4    3.57    0.97
   4  -8   4    3.44    0.90
  -4  -8   4    3.95    0.97
  -4  -8   4    4.93    1.29
   4  -8  -4    4.01    0.83
   4  -8  -4    2.81    1.23
  -6  -8  -4    2.56    1.00
  -6  -8  -4    2.39    1.21
   6  -8   4    1.59    0.91
   6  -8   4    1.80    0.75
   6  -8   4    3.14    1.05
  -6  -8   4    2.21    1.15
   6  -8  -4    2.02    0.96
   6  -8  -4    2.15    1.04
  -6  -8   4    0.42    1.00
   8  -8   4   -0.73    0.85
   8   8  -4   -1.05    1.21
   8  -8   4   -1.43    1.19
  -8  -8  -4    1.95    1.23
   8  -8  -4   -0.47    0.59
  -8  -8   4    0.57    1.23
   8   8   4   -0.87    1.38
   8  -8  -4    0.39    1.26
   8  -8  -4   -1.18    1.62
   8  -8  -4    0.43    1.04
 -10  -8  -4   33.48    3.28
  10  -8   4   37.14    3.20
  10   8  -4   44.61    3.46
  10  -8   4   38.19    2.96
  10  -8   4   25.15    4.08
 -10  -8   4   38.51    3.34
  10   8   4   41.56    3.36
 -12  -8  -4    1.20    1.72
  12   8  -4    1.00    2.03
  12  -8   4   -2.47    1.43
  12   8   4    0.11    1.62
  12  -8  -4   -1.02    1.80
 -12  -8   4   -1.75    1.51
  14   8  -4   -1.38    1.84
 -14  -8  -4   -0.82    1.82
  14  -8   4    1.47    1.43
  14   8   4   -1.18    1.51
  14   8   4   -2.36    1.31
  14  -8  -4   -0.92    1.77
  16   8  -4    0.36    1.66
  16  -8   4   -1.86    1.54
  16   8   4    2.68    2.17
  16   8   4   -1.96    1.52
  16  -8  -4    1.76    1.67
   0 -10   4  187.63    9.32
   0  10  -4  196.04    9.65
   0 -10   4  170.26    9.35
   2 -10   4    6.28    0.95
  -2 -10  -4    6.48    0.99
   2 -10   4    6.10    0.92
  -2 -10   4    6.67    1.05
  -2 -10   4    5.82    0.78
   4 -10   4   12.00    1.42
   4 -10   4   14.41    1.46
  -4 -10  -4   12.87    1.59
  -4 -10  -4   13.76    1.55
   4 -10   4   11.00    1.38
  -4 -10   4   10.55    1.39
  -4 -10   4   13.02    1.51
   4 -10  -4   11.69    1.31
   4 -10  -4   12.15    1.43
  -6 -10  -4    6.99    1.40
   6 -10   4    5.40    0.96
   6 -10   4    6.62    1.21
   6 -10   4    7.06    1.29
  -6 -10  -4    5.49    1.23
  -6 -10   4    6.17    1.37
   6 -10  -4    5.08    1.26
  -6 -10   4    6.52    1.40
   6 -10  -4    4.82    1.69
   6 -10  -4    6.32    1.13
   6 -10  -4    4.47    0.78
  -8 -10  -4   37.71    3.04
   8 -10   4   31.50    2.52
   8 -10   4   30.38    2.77
   8  10  -4   34.35    2.92
  -8 -10   4   36.26    2.98
   8 -10  -4   32.57    2.74
   8 -10  -4   31.77    3.09
   8 -10  -4   34.47    2.26
   8 -10  -4   31.13    4.15
  10 -10   4   10.63    2.79
 -10 -10  -4   12.80    2.20
  10  10  -4   17.16    2.58
  10 -10  -4   14.20    1.96
  10 -10  -4   10.10    2.72
  10  10   4   14.06    2.27
 -10 -10   4   11.35    2.07
  12  10  -4    5.37    2.20
 -12 -10  -4    2.57    1.84
  12 -10   4    1.42    1.42
 -12 -10   4    3.31    1.72
  12 -10  -4    0.85    1.65
  12  10   4    4.00    1.90
  14  10  -4   -0.76    1.88
 -14 -10  -4    3.88    2.08
  14 -10   4   -2.22    1.44
  14  10   4   -0.36    1.23
  14 -10  -4    0.37    1.57
  14  10   4    0.08    1.49
 -14 -10   4    1.86    1.88
  16 -10   4    1.93    1.54
  16  10  -4    0.46    1.46
  16 -10  -4   -0.32    1.74
  16  10   4    0.30    1.52
   0  12  -4  112.83    6.01
   0 -12  -4  101.42    5.61
   0 -12   4  109.87    5.72
   0 -12   4   99.87    5.69
   0 -12  -4  104.66    5.68
   0 -12   4  113.55    5.68
  -2 -12  -4   -0.60    0.78
   2 -12   4    0.17    0.60
  -2 -12  -4    0.42    0.64
  -2 -12   4    0.21    0.81
   2 -12  -4    1.40    0.75
  -2 -12   4    0.51    0.50
  -2 -12   4    0.26    0.74
   2 -12  -4    0.51    0.39
  -4 -12  -4   10.45    1.45
   4 -12   4   11.38    1.47
   4 -12   4    9.58    1.05
   4 -12   4   12.69    1.55
   4 -12   4   10.86    1.36
  -4 -12  -4   13.23    1.65
   4 -12  -4   12.79    1.44
  -4 -12   4   13.89    1.64
  -4 -12   4   10.06    1.44
   4 -12  -4   12.01    1.47
  -4 -12   4   13.32    1.40
   4 -12  -4    9.81    1.16
  -4 -12   4    9.70    1.12
   6 -12   4    9.57    1.33
  -6 -12  -4   12.33    1.73
   6 -12   4   10.37    1.13
  -6 -12  -4   14.05    1.75
   6 -12   4   10.80    1.67
   6 -12   4   12.65    1.57
  -6 -12   4   10.92    1.19
   6 -12  -4   12.85    1.73
   6 -12  -4   13.57    1.57
  -6 -12   4    9.86    1.67
  -6 -12   4   13.62    1.79
   6 -12  -4   12.81    1.27
  -8 -12  -4   35.70    2.99
   8 -12   4   32.84    2.69
  -8 -12  -4   35.92    3.27
   8 -12  -4   33.72    3.19
   8 -12  -4   29.65    2.24
   8 -12  -4   29.62    2.79
  -8 -12   4   30.83    2.99
  -8 -12   4   33.54    3.20
  10  12  -4   17.14    2.52
  10 -12   4    9.95    1.71
 -10 -12  -4    6.39    1.97
 -10 -12   4    8.35    2.04
  10 -12  -4   10.48    1.83
  10  12   4   10.64    2.33
  12 -12   4    1.27    1.31
  12  12  -4    1.31    2.09
 -12 -12  -4   -4.05    1.72
 -12 -12   4   -1.90    1.61
  12  12   4   -0.36    1.75
  12 -12  -4   -0.02    1.46
  14 -12   4    1.75    1.47
 -14 -12  -4    0.13    2.01
  14  12  -4    0.54    1.72
 -14 -12   4    1.27    1.87
  14  12   4    0.06    1.23
  14 -12  -4   -0.28    1.64
  14  12   4   -0.57    1.52
  16  12  -4    0.00    1.52
  16 -12   4    1.44    1.51
  16  12   4    0.37    1.47
  16 -12  -4    1.72    1.57
   0 -14   4    1.85    0.55
   0 -14  -4    1.87    0.85
   0 -14   4    3.36    0.93
   0 -14  -4    1.99    0.59
   0 -14  -4    2.10    0.74
   0 -14   4    1.91    0.77
   0 -14   4    2.16    0.68
  -2 -14  -4   -0.17    0.40
   2 -14   4    0.99    0.70
   2 -14   4    1.45    0.77
  -2 -14  -4    0.15    0.64
   2 -14   4   -0.34    0.43
   2 -14   4    0.54    0.62
  -2 -14  -4    1.11    0.94
   2 -14  -4   -0.24    0.43
  -2 -14   4    0.83    0.88
  -2 -14   4    0.17    0.55
  -2 -14   4   -0.68    0.75
   2 -14  -4    0.91    0.74
  -2 -14   4   -0.15    0.43
  -4 -14  -4    1.00    0.56
  -4 -14  -4    1.88    0.97
   4 -14   4    2.43    0.99
   4 -14   4    2.38    0.93
   4 -14   4    1.83    0.54
   4 -14   4    1.15    0.80
  -4 -14  -4   -0.26    1.15
   4 -14  -4    1.51    0.61
   4 -14  -4    1.75    0.80
  -4 -14   4    1.78    0.76
  -4 -14   4    1.80    0.65
  -4 -14   4    1.57    1.14
   4 -14  -4    1.82    1.00
  -4 -14   4    0.96    1.02
   6 -14   4    6.48    1.15
   6 -14   4    8.16    1.49
  -6 -14  -4    5.55    1.48
   6 -14   4    5.00    0.79
   6 -14   4    5.47    1.35
  -6 -14  -4    6.73    1.63
  -6 -14   4    6.79    1.56
   6 -14  -4    5.69    1.29
  -6 -14   4    6.77    1.03
   6 -14  -4    4.92    0.87
  -6 -14   4    5.52    1.54
  -6 -14   4    5.81    1.20
   6 -14  -4    7.35    1.46
  -8 -14  -4    1.51    1.59
   8 -14   4    2.09    1.18
  -8 -14  -4    0.50    1.50
  -8 -14   4    0.95    1.65
   8 -14  -4    1.14    0.71
  -8 -14   4    2.57    1.51
   8 -14  -4    3.56    2.05
   8 -14  -4    2.47    1.32
   8 -14  -4    1.63    1.52
  10 -14   4    2.41    1.29
 -10 -14  -4    1.97    1.83
  10  14  -4    6.80    2.09
  10  14   4    3.11    2.10
 -10 -14   4    1.26    1.97
  10 -14  -4    2.03    1.41
 -12 -14  -4   -1.98    1.74
  12 -14   4    1.51    1.33
  12  14  -4    1.55    1.90
  12 -14  -4    2.10    1.59
 -12 -14   4    1.69    1.80
  12  14   4    1.68    1.81
  14 -14   4    0.94    1.43
  14  14  -4   -0.12    1.65
 -14 -14  -4   -0.47    2.00
 -14 -14   4    0.60    1.91
  14 -14  -4    0.46    1.47
  14  14   4   -0.81    1.49
  16 -14   4   -0.17    1.49
  16  14  -4   -1.53    1.36
  16 -14  -4    1.31    1.60
  16  14   4   -0.90    1.55
   0 -16  -4   53.81    3.28
   0 -16   4   48.42    3.32
   0 -16  -4   55.81    3.37
   0 -16  -4   49.14    3.04
   0 -16   4   49.84    3.03
   0 -16   4   52.70    3.32
   0 -16   4   51.77    3.21
  -2 -16  -4   27.37    2.33
  -2 -16  -4   24.92    1.83
  -2 -16  -4   28.12    2.19
   2 -16   4   24.76    2.17
   2 -16   4   27.76    2.14
   2 -16   4   23.23    2.16
   2 -16   4   27.24    1.88
  -2 -16   4   24.86    1.88
  -2 -16   4   26.88    2.04
   2 -16  -4   24.94    1.92
  -2 -16   4   27.23    2.35
   2 -16  -4   23.61    2.20
  -2 -16   4   29.12    2.33
   4 -16   4   72.69    4.51
   4 -16   4   72.97    4.44
  -4 -16  -4   73.46    4.60
   4 -16   4   73.42    4.15
  -4 -16  -4   74.24    4.58
   4 -16   4   71.99    4.45
  -4 -16  -4   66.53    4.06
   4 -16  -4   69.68    4.18
  -4 -16   4   78.89    4.60
   4 -16  -4   73.70    4.37
  -4 -16   4   72.43    4.58
  -4 -16   4   82.94    4.27
   4 -16  -4   71.48    4.45
  -4 -16   4   77.34    4.19
   6 -16   4   27.73    2.07
   6 -16   4   30.38    2.68
  -6 -16  -4   28.11    2.86
   6 -16   4   31.11    2.85
  -6 -16  -4   29.89    2.91
  -6 -16   4   32.29    2.96
  -6 -16   4   27.00    2.24
   6 -16  -4   34.88    2.81
   6 -16  -4   26.76    2.77
  -6 -16   4   30.61    2.50
  -6 -16   4   25.30    2.98
   6 -16  -4   27.54    2.18
  -8 -16  -4   -0.47    1.49
  -8 -16  -4   -1.31    1.42
   8 -16   4    0.64    1.12
  -8 -16   4   -0.28    1.45
   8 -16  -4   -0.29    0.69
   8 -16  -4    0.97    1.30
   8 -16  -4   -0.32    1.55
  -8 -16   4    1.11    1.49
 -10 -16  -4    5.88    2.03
  10 -16   4    3.05    1.34
  10  16  -4    2.17    1.89
  10  16   4    2.09    1.93
 -10 -16   4    3.21    2.24
  10 -16  -4    2.58    1.62
  12 -16   4    1.92    1.48
  12  16  -4   -1.96    1.66
 -12 -16  -4   -0.66    1.89
  12 -16  -4   -2.11    1.33
 -12 -16   4    0.53    2.26
  12  16   4    0.90    1.69
  14  16  -4    0.21    1.53
 -14 -16  -4   -1.74    2.16
  14 -16   4   -0.37    1.46
 -14 -16   4    0.40    2.39
  14  16   4   -0.49    1.43
  14 -16  -4   -0.11    1.40
   0 -18  -4  215.69   11.40
   0 -18  -4  215.27   11.22
   0 -18   4  229.77   11.26
   0 -18   4  216.05   11.39
   0 -18   4  226.85   11.53
   0 -18   4  216.18   11.33
  -2 -18  -4    1.73    0.93
  -2 -18  -4    2.23    0.66
   2 -18   4    1.36    0.57
  -2 -18  -4    1.08    1.14
   2 -18   4    1.77    0.90
   2 -18   4    1.82    0.95
   2 -18   4    1.94    0.83
   2 -18  -4    0.94    1.00
  -2 -18   4    1.08    0.96
   2 -18  -4    1.66    0.69
  -2 -18   4    1.90    1.20
  -2 -18   4    1.45    0.77
  -2 -18   4    1.35    0.66
  -4 -18  -4   42.29    2.78
  -4 -18  -4   47.29    3.56
   4 -18   4   44.59    3.33
   4 -18   4   45.94    3.26
   4 -18   4   45.56    2.85
   4 -18   4   45.18    3.19
  -4 -18  -4   37.00    3.34
   4 -18  -4   44.83    3.24
  -4 -18   4   42.05    2.88
   4 -18  -4   41.07    3.07
  -4 -18   4   46.65    3.47
  -4 -18   4   51.74    3.53
   4 -18  -4   42.27    2.87
   6 -18   4   47.69    3.58
  -6 -18  -4   52.62    3.91
   6 -18   4   50.26    3.93
  -6 -18  -4   48.60    3.86
   6 -18   4   46.20    3.07
  -6 -18   4   49.91    3.84
   6 -18  -4   51.40    3.24
   6 -18  -4   46.66    3.72
  -6 -18   4   44.22    3.94
   6 -18  -4   49.13    3.66
  -6 -18   4   50.79    3.29
   8 -18   4    0.65    1.23
  -8 -18  -4    0.09    1.68
  -8 -18  -4    0.12    1.58
   8 -18  -4    0.94    0.83
  -8 -18   4   -0.08    1.75
   8 -18  -4    0.81    1.35
  -8 -18   4    2.19    1.65
  10  18  -4   16.57    2.51
 -10 -18  -4   17.57    2.64
  10 -18   4    8.96    1.92
  10 -18  -4    9.34    2.03
 -10 -18   4   10.74    2.94
  10  18   4   10.92    2.15
 -12 -18  -4    1.82    2.05
  12  18  -4    1.02    1.68
  12 -18   4    1.97    1.64
  12  18   4    1.05    1.59
  12 -18  -4    1.09    1.53
 -12 -18   4   -4.01    2.29
  14  18  -4    2.15    1.57
  14 -18   4    2.58    1.68
  14 -18  -4    1.48    1.53
  14  18   4    2.35    1.62
   0 -20   4   61.19    3.64
   0 -20   4   62.30    4.11
   0 -20  -4   58.79    3.93
   0 -20   4   59.52    3.91
   0 -20  -4   59.23    3.61
   0 -20   4   59.28    3.75
  -2 -20  -4    2.43    0.74
  -2 -20  -4    0.28    0.94
   2 -20   4    0.54    0.89
  -2 -20  -4    0.64    1.23
   2 -20   4    0.62    1.00
   2 -20   4    0.84    0.91
   2 -20   4    0.56    0.60
   2 -20  -4    1.64    1.03
  -2 -20   4    2.94    1.29
  -2 -20   4    1.62    1.27
   2 -20  -4    1.40    0.68
  -2 -20   4    1.27    0.76
  -4 -20  -4   27.81    2.22
  -4 -20  -4   29.48    3.13
   4 -20   4   28.98    2.25
  -4 -20  -4   26.46    2.85
   4 -20   4   28.99    2.88
   4 -20   4   30.66    2.64
   4 -20  -4   32.49    2.32
  -4 -20   4   28.02    2.38
   4 -20  -4   31.44    2.99
  -4 -20   4   33.68    3.03
  -4 -20   4   31.81    2.97
   4 -20  -4   28.07    2.72
   6 -20   4   23.58    2.07
   6 -20   4   24.35    2.57
  -6 -20  -4   25.99    3.10
  -6 -20  -4   21.59    2.67
  -6 -20   4   23.16    2.92
  -6 -20   4   24.04    2.38
   6 -20  -4   23.49    2.18
   6 -20  -4   24.23    2.68
  -6 -20   4   25.37    3.09
   8 -20   4    0.52    1.27
   8 -20   4    0.12    1.06
  -8 -20  -4   -1.24    1.56
  -8 -20  -4   -1.46    1.58
   8 -20  -4   -0.12    0.82
  -8 -20   4    2.63    1.81
  -8 -20   4   -1.85    1.90
   8 -20  -4    0.43    1.30
  10  20  -4   10.56    2.19
 -10 -20  -4   16.48    2.66
  10 -20   4   10.20    1.94
  10  20   4   10.40    2.12
 -10 -20   4   13.35    3.27
  10 -20  -4   11.77    2.16
  10 -20  -4    9.90    1.62
  12  20  -4   -0.31    1.54
 -12 -20  -4   -2.17    1.98
  12 -20   4    1.56    1.47
  12 -20  -4   -1.56    1.38
 -12 -20   4    1.07    2.40
  12  20   4    0.08    1.46
  14  20  -4    2.05    1.56
  14 -20   4    1.98    1.64
  14 -20  -4    0.31    1.63
  14  20   4    2.25    1.58
   0 -22   4    1.84    1.30
   0 -22  -4    1.76    1.24
   0 -22  -4    1.87    0.79
   0 -22   4    0.22    1.14
   0 -22   4    1.37    0.72
   2 -22   4   -0.24    1.03
   2 -22   4   -1.64    0.90
   2 -22   4    0.27    0.65
  -2 -22  -4   -0.44    0.65
  -2 -22  -4    1.19    1.33
  -2 -22   4   -0.26    0.70
   2 -22  -4    0.35    0.67
  -2 -22   4    0.24    1.21
  -2 -22   4    1.43    1.22
   2 -22  -4   -0.23    0.96
   4 -22   4    6.76    1.50
  -4 -22  -4    7.96    2.00
  -4 -22  -4    2.55    1.55
  -4 -22  -4    6.42    1.19
   4 -22   4    7.17    1.17
   4 -22  -4    7.50    1.64
  -4 -22   4   10.29    2.03
  -4 -22   4    6.27    1.26
  -4 -22   4    6.93    1.69
   4 -22  -4    5.83    1.14
   6 -22   4   10.13    1.83
  -6 -22  -4   10.70    2.07
   6 -22   4   10.06    1.44
  -6 -22  -4   12.06    2.51
   6 -22  -4   11.11    1.90
  -6 -22   4   13.57    2.33
   6 -22  -4   12.43    1.61
  -6 -22   4   10.96    1.62
  -6 -22   4   10.94    2.30
  -8 -22  -4    0.46    1.91
   8 -22   4   -0.33    1.34
  -8 -22  -4    1.60    1.90
   8 -22   4    2.22    0.90
   8 -22  -4    2.10    0.99
  -8 -22   4    0.51    2.37
  -8 -22   4    3.72    2.07
   8 -22  -4    2.48    1.41
  10  22  -4    0.41    1.58
  10 -22   4    2.37    1.51
 -10 -22  -4    1.06    1.88
  10  22   4    0.76    1.54
  10 -22  -4    2.74    1.18
 -10 -22   4    4.04    2.77
  10 -22  -4    1.77    1.64
  12 -22   4   -0.45    1.53
  12  22  -4   -0.51    1.33
  12  22   4    1.30    1.45
  12 -22  -4    0.09    1.54
   0 -24   4    1.90    1.34
   0 -24   4    2.85    0.93
   0 -24  -4    4.02    1.41
   0 -24  -4    3.65    0.99
   0 -24   4    2.97    1.46
  -2 -24  -4    3.46    1.64
   2 -24   4    1.82    1.23
   2 -24   4    2.02    0.86
  -2 -24  -4    2.21    0.98
   2 -24  -4    1.74    0.84
  -2 -24   4    4.43    1.55
   2 -24  -4    2.02    1.34
  -2 -24   4    3.99    1.60
  -2 -24   4    3.19    1.00
  -4 -24  -4   -1.71    1.19
  -4 -24  -4    0.91    0.98
   4 -24   4    0.30    0.77
  -4 -24  -4   -0.83    1.59
   4 -24   4   -0.53    1.04
   4 -24  -4   -0.03    1.16
  -4 -24   4    0.35    1.46
   4 -24  -4   -0.32    0.71
  -4 -24   4   -0.13    0.89
  -4 -24   4   -1.95    1.29
  -6 -24  -4   -3.58    1.73
   6 -24   4   -0.79    1.12
   6 -24   4   -0.47    0.73
  -6 -24  -4    0.72    1.50
  -6 -24   4   -1.30    1.05
   6 -24  -4   -0.29    1.32
  -6 -24   4   -1.12    1.83
   6 -24  -4    0.24    0.88
  -6 -24   4   -2.05    1.89
  -8 -24  -4   -0.06    1.92
   8 -24   4   -0.63    1.36
  -8 -24  -4    1.08    1.52
   8 -24   4   -0.03    0.79
   8 -24  -4    0.12    0.92
  -8 -24   4    2.66    2.03
   8 -24  -4   -0.38    1.54
  -8 -24   4   -7.58    2.35
 -10 -24  -4    0.06    1.76
  10  24  -4   -1.68    1.40
  10 -24   4    1.36    1.55
  10 -24  -4    0.36    1.54
  10  24   4   -0.18    1.25
 -10 -24   4   -1.27    2.68
  10 -24  -4    0.37    1.14
  12 -24   4    1.65    1.50
  12  24  -4    1.09    1.46
  12 -24  -4    1.64    1.65
  12  24   4    0.17    1.42
   0 -26   4   21.72    2.20
   0 -26  -4   22.04    2.19
   0 -26   4   21.30    2.68
   0 -26  -4   24.18    2.83
   0 -26   4   21.92    2.91
   2 -26   4    3.29    1.45
  -2 -26  -4    6.36    1.29
   2 -26   4    3.93    1.04
  -2 -26  -4    6.53    1.95
  -2 -26   4    4.70    1.68
  -2 -26   4    4.44    1.72
   2 -26  -4    4.53    1.14
   2 -26  -4    4.41    1.61
  -2 -26   4    2.82    1.14
   4 -26   4    0.80    0.92
  -4 -26  -4    0.92    1.13
   4 -26   4    0.22    1.33
  -4 -26  -4   -0.40    1.65
   4 -26  -4    0.79    0.87
  -4 -26   4    3.58    1.69
  -4 -26   4    2.25    1.21
  -4 -26   4   -0.90    1.58
   4 -26  -4   -0.03    1.51
   6 -26   4    6.98    1.84
   6 -26   4    6.33    1.33
  -6 -26  -4    2.43    1.84
  -6 -26  -4    3.07    2.09
   6 -26  -4    4.47    1.26
  -6 -26   4    3.67    1.51
  -6 -26   4    5.50    2.22
  -6 -26   4    5.56    2.55
   6 -26  -4    5.18    1.85
  -8 -26  -4    1.90    2.00
  -8 -26  -4    0.43    1.47
   8 -26   4   -0.49    1.61
   8 -26   4    1.10    1.01
  -8 -26   4   -0.04    2.78
   8 -26  -4   -1.90    1.48
   8 -26  -4    1.86    1.15
  -8 -26   4    3.94    2.13
  10  26  -4    1.91    1.38
  10 -26   4    4.57    1.77
  10 -26  -4    7.47    2.05
  10  26   4    4.19    1.35
  10 -26  -4    6.45    1.87
   0 -28  -4   33.20    2.87
   0 -28   4   36.16    2.91
   0 -28   4   33.34    3.44
   0 -28  -4   35.00    3.52
  -2 -28  -4    5.91    2.08
   2 -28   4    7.73    1.42
   2 -28   4    7.30    1.89
  -2 -28  -4    8.65    1.57
   2 -28  -4    7.70    1.97
  -2 -28   4    4.30    2.16
   2 -28  -4    7.70    1.46
  -2 -28   4    8.83    2.23
  -2 -28   4    8.55    1.54
   4 -28   4    2.12    1.63
   4 -28   4    3.15    1.17
  -4 -28  -4    0.54    1.82
  -4 -28  -4    4.42    1.39
   4 -28  -4    3.82    1.30
  -4 -28   4    2.05    2.20
   4 -28  -4    1.12    1.64
  -4 -28   4    4.10    1.40
  -4 -28   4    3.91    1.90
  -6 -28  -4   17.90    2.94
   6 -28   4   25.23    2.59
   6 -28   4   22.95    2.96
  -6 -28   4   24.81    3.29
  -6 -28   4   28.31    4.08
   6 -28  -4   25.40    2.71
  -6 -28   4   25.73    2.83
   6 -28  -4   22.76    3.21
  -8 -28  -4   -1.55    2.00
   8 -28   4   -0.49    1.11
   8 -28   4   -1.79    1.58
   8 -28  -4   -1.39    1.66
  -8 -28   4    1.14    2.32
   8 -28  -4   -0.66    1.06
   0 -30  -4   29.75    2.83
   0 -30   4   28.01    3.41
   0 -30  -4   26.20    3.38
   0 -30   4   33.41    2.87
   2 -30   4    9.88    1.69
  -2 -30  -4   11.26    1.89
   2 -30   4    8.73    2.07
  -2 -30  -4    6.76    2.22
   2 -30  -4    9.06    2.14
   2 -30  -4    9.62    1.63
  -2 -30   4    4.84    2.21
  -2 -30   4   10.43    1.75
  -4 -30  -4   10.55    2.44
   4 -30   4   15.84    2.43
   4 -30   4   15.63    2.00
  -4 -30   4   13.43    2.05
  -4 -30   4   10.67    2.59
   4 -30  -4   14.73    2.39
   4 -30  -4   15.67    2.00
   6 -30   4    7.05    1.98
   6 -30   4   13.49    1.83
  -6 -30  -4    4.31    2.12
   6 -30  -4   11.50    2.28
  -6 -30   4   13.28    2.55
   6 -30  -4   10.57    1.77
   8 -30  -4    0.65    1.19
   0 -32   4   23.47    3.29
   0 -32  -4   20.68    2.45
   0 -32   4   21.99    2.56
   0 -32  -4   19.82    2.97
  -2 -32  -4   -0.75    1.15
   2 -32   4    0.31    1.63
   2 -32   4    0.41    1.10
  -2 -32  -4    0.74    1.85
  -2 -32   4    1.48    1.89
   2 -32  -4    0.06    1.65
  -2 -32   4   -1.62    1.10
   2 -32  -4    0.04    1.10
   4 -32   4    0.11    1.13
   4 -32   4   -0.10    1.41
  -4 -32  -4   -0.81    1.99
  -4 -32   4   -1.22    2.04
  -4 -32   4   -1.77    1.20
   4 -32  -4   -0.10    1.10
   4 -32  -4    0.71    1.70
   1   1  -5    1.52    0.42
  -1   1   5    1.94    0.46
  -1  -1  -5    1.54    0.34
  -1  -1  -5    1.72    0.50
   1  -1  -5    0.72    0.51
  -1   1  -5    2.75    0.39
  -1  -1   5    0.95    0.44
   1   1   5    0.61    0.28
  -1  -1   5    1.10    0.41
   3   1  -5  110.25    5.95
   3  -1   5  113.63    5.60
  -3  -1  -5  106.65    5.55
   3  -1  -5  107.42    5.84
   3  -1  -5  103.09    5.86
   3   1   5  111.88    5.53
  -3   1  -5  103.53    5.58
   5  -1   5   69.83    4.03
  -5  -1  -5   71.76    4.16
   5  -1   5   72.16    4.16
   5   1  -5   90.55    5.11
  -5  -1  -5   79.50    4.16
   5  -1  -5   81.74    4.98
   5   1   5   76.03    4.14
   5  -1  -5   71.50    4.58
  -5   1  -5   69.44    4.18
   7  -1   5   38.41    2.44
   7   1  -5   35.33    2.66
  -7   1   5   35.85    2.53
   7   1  -5   36.96    4.09
   7  -1  -5   36.67    2.63
  -7  -1   5   37.49    2.63
   7  -1  -5   39.76    3.94
   9   1  -5   21.83    3.45
   9   1  -5   29.25    2.72
   9  -1   5   18.99    2.43
   9  -1   5   22.24    2.10
   9  -1  -5   25.38    3.52
  -9  -1   5   22.56    2.18
  11  -1   5    6.62    1.53
  11   1  -5    4.83    1.94
  11  -1   5    0.03    1.25
  11   1  -5    4.57    3.23
  11   1   5    1.85    1.69
  11   1   5    1.69    1.20
  11  -1  -5    1.31    1.77
  11  -1  -5    3.26    3.14
  13  -1   5    1.51    1.56
  13  -1   5    1.53    1.43
  13   1  -5   -2.46    1.99
  13   1   5    1.99    1.53
  13  -1  -5   -3.29    1.86
  13   1   5   -0.18    1.31
  15  -1   5    4.16    1.76
  15   1  -5    6.04    2.13
  15  -1  -5    8.83    2.22
  15   1   5    2.44    1.64
  15   1   5    3.10    1.69
  17  -1   5    1.94    1.49
  17   1  -5    1.08    1.74
  17  -1  -5    1.78    1.72
  17   1   5    0.01    1.51
   1   3  -5    4.78    0.80
   1  -3   5    4.48    0.60
   1  -3   5    3.15    0.59
   1  -3   5    5.66    0.89
  -1  -3   5    3.50    0.67
  -1   3  -5    4.62    0.59
  -1  -3   5    3.06    0.50
  -1  -3   5    4.22    0.73
   3  -3   5   58.25    3.21
  -3   3   5   51.29    3.32
   3  -3   5   60.01    3.34
   3   3  -5   62.57    3.76
  -3  -3  -5   68.15    3.48
   3  -3  -5   60.32    3.32
  -3   3  -5   59.54    3.34
   5  -3   5   38.35    2.42
  -5  -3  -5   31.09    2.28
  -5  -3  -5   35.51    2.38
   5  -3   5   35.20    2.17
   5  -3  -5   34.77    2.63
   5  -3  -5   37.77    2.47
  -5  -3   5   34.06    2.39
   5   3   5   32.08    2.17
   7  -3   5   -0.03    0.64
   7  -3   5    0.57    1.01
  -7  -3  -5   -0.54    0.93
   7   3  -5   -0.43    1.70
   7   3  -5   -0.19    0.99
   7  -3  -5   -0.14    1.38
   7  -3  -5   -0.58    0.82
   7   3   5   -2.09    1.20
  -7  -3   5   -0.40    0.89
   7  -3  -5    1.47    1.00
   9  -3   5    0.36    1.22
   9   3  -5    3.52    2.45
   9  -3   5    2.02    0.90
   9   3  -5    1.17    1.49
  -9  -3  -5    2.16    1.23
  -9  -3   5   -0.96    1.17
   9  -3  -5    1.71    1.18
   9  -3  -5   -0.38    2.20
   9   3   5    3.11    1.65
 -11  -3  -5    1.51    1.45
  11  -3   5    3.94    1.60
  11  -3   5    0.29    1.21
  11   3  -5    2.42    2.96
  11   3  -5    0.08    1.90
  11  -3  -5   -1.46    1.58
  11  -3  -5   -2.14    2.88
  11   3   5   -1.17    1.14
 -11  -3   5    2.18    1.79
  11   3   5   -3.17    1.73
  13   3  -5    0.88    2.15
  13  -3   5    1.39    1.61
  13  -3   5    1.50    1.45
  13   3   5    1.50    1.67
  13  -3  -5   -1.20    1.98
  13   3   5    1.60    1.35
  15  -3   5    0.81    1.70
  15   3  -5    2.46    2.04
  15  -3  -5    2.56    1.93
  15   3   5    4.46    1.56
  15   3   5    0.08    1.66
  17   3  -5    1.05    1.68
  17  -3   5   -0.09    1.51
  17  -3  -5   -0.72    1.65
  17   3   5    0.36    1.55
  -1  -5  -5   41.23    2.84
   1  -5   5   47.87    2.77
   1   5  -5   53.14    3.02
   1  -5   5   45.85    2.63
  -1  -5   5   44.65    2.58
  -1  -5   5   50.97    2.95
   3   5  -5  161.20    8.73
   3  -5   5  160.29    8.20
   3  -5   5  182.08    8.50
  -3  -5  -5  173.96    8.23
   3  -5   5  161.74    8.29
   3  -5  -5  136.16    8.49
   3  -5  -5  165.00    8.25
  -3  -5   5  156.32    8.24
   5  -5   5   21.06    1.81
  -5  -5  -5   19.80    1.82
   5  -5   5   16.96    1.45
   5  -5  -5   18.18    1.83
  -5  -5   5   18.68    1.79
   5  -5  -5   14.89    2.03
  -5  -5   5   18.32    1.78
  -5  -5   5   25.24    2.80
  -7  -5  -5    8.35    1.35
   7   5  -5    7.89    1.38
   7  -5   5    5.67    0.93
   7  -5   5    8.06    1.34
   7  -5  -5    5.92    1.12
  -7  -5   5    7.26    1.30
   7   5   5    7.65    1.51
   7  -5  -5    5.84    1.77
   7  -5  -5    7.77    1.44
   9  -5   5   -0.27    0.84
  -9  -5  -5    0.85    1.25
   9   5  -5    1.01    1.59
   9  -5   5   -0.42    1.21
   9  -5  -5    1.13    1.16
   9   5   5    2.03    1.53
  -9  -5   5    0.71    1.29
   9  -5  -5   -0.91    2.13
  11   5  -5    3.01    3.06
  11  -5   5    3.92    1.35
 -11  -5  -5    2.85    1.65
  11  -5   5    2.25    1.62
  11   5  -5    5.01    2.22
  11   5   5    2.85    1.32
  11   5   5    3.33    1.80
  11  -5  -5   -0.27    3.40
  11  -5  -5    2.10    1.71
 -11  -5   5    3.01    1.55
  13   5  -5    2.36    2.24
  13  -5   5   -0.81    1.59
  13   5   5    0.06    1.60
  13  -5  -5    0.90    1.97
  13   5   5   -0.09    1.24
  15   5  -5   -2.25    1.89
  15  -5   5   -0.35    1.55
  15   5   5   -2.55    1.49
  15  -5  -5   -3.22    1.75
  15   5   5   -2.63    1.38
  17   5  -5   -1.18    1.55
  17  -5   5    1.14    1.42
  17  -5  -5   -0.06    1.60
  17   5   5    1.04    1.94
   1  -7   5   20.88    1.50
   1  -7   5   22.52    1.71
   1  -7   5   18.73    1.48
   1   7  -5   22.35    1.85
   1  -7  -5   26.08    2.00
  -1  -7   5   18.95    1.44
  -1  -7   5   18.45    1.49
  -3  -7  -5    2.50    0.77
   3  -7   5    3.40    0.77
   3  -7   5    2.14    0.62
   3  -7   5    2.96    0.64
   3  -7  -5    2.07    0.62
   3  -7  -5    1.78    0.96
  -3  -7   5    3.48    0.83
  -5  -7  -5   19.32    1.85
   5  -7   5   23.34    1.94
   5  -7   5   22.69    2.14
   5  -7   5   22.27    1.71
  -5  -7   5   22.14    2.10
   5  -7  -5   22.83    1.88
  -5  -7   5   18.81    1.99
   5  -7  -5   19.24    2.34
   5  -7  -5   21.39    1.86
   7  -7   5    1.51    1.28
  -7  -7  -5   -0.08    1.03
   7  -7   5    0.98    1.19
   7   7  -5    1.20    1.12
   7  -7   5    1.79    0.83
   7   7   5    0.15    1.24
   7  -7  -5    1.98    0.96
  -7  -7   5   -0.07    1.02
   7  -7  -5    4.33    1.75
   9  -7   5   22.20    2.36
   9   7  -5   12.02    2.04
  -9  -7  -5   16.30    2.02
   9  -7  -5   10.23    2.67
  -9  -7   5   16.67    2.13
   9  -7  -5    8.66    1.62
   9   7   5   18.38    2.13
  11  -7   5   13.12    2.13
 -11  -7  -5   16.58    2.28
  11  -7   5   15.94    2.10
  11  -7   5   16.54    4.92
 -11  -7   5   16.48    2.08
  13  -7   5    1.00    1.52
  13   7  -5    0.78    2.17
 -13  -7  -5    3.14    1.81
  13   7   5    0.85    1.55
  13   7   5   -0.71    1.28
 -13  -7   5   -2.51    2.24
  13  -7  -5    0.62    1.77
  15   7  -5   -2.25    1.76
  15  -7   5    2.34    1.48
  15   7   5   -1.60    1.27
  15  -7  -5   -2.67    1.68
  15   7   5    0.15    1.58
  17  -7   5   -1.79    1.41
  17   7  -5   -1.22    1.44
  17  -7  -5    1.28    1.59
   1  -9   5   22.67    1.77
   1  -9   5   24.19    1.79
   1  -9   5   25.27    2.04
  -1  -9  -5   28.38    1.91
   1   9  -5   26.87    2.17
  -1  -9   5   25.18    1.72
  -1  -9   5   25.32    1.80
   3  -9   5   15.64    1.55
  -3  -9  -5   14.06    1.52
   3  -9   5   16.98    1.48
  -3  -9   5   15.08    1.38
   3  -9  -5   12.92    2.02
   3  -9  -5   17.03    1.42
  -3  -9   5   13.42    1.62
   5  -9   5    0.98    0.83
  -5  -9  -5   -0.23    0.76
   5  -9   5    0.80    0.64
   5  -9   5   -0.56    0.73
  -5  -9  -5    0.52    1.01
  -5  -9   5    2.96    1.10
  -5  -9   5    0.29    0.91
   5  -9  -5    0.11    0.80
   5  -9  -5    0.85    0.82
   5  -9  -5   -0.67    1.16
   5  -9  -5   -0.01    0.45
   7  -9   5    2.24    0.87
   7  -9   5    3.11    1.15
   7  -9   5    3.30    1.22
  -7  -9  -5    3.01    1.17
   7  -9  -5    3.45    1.71
  -7  -9   5    2.82    1.38
   7   9   5    4.91    1.43
   7  -9  -5    2.65    0.73
  -7  -9   5    1.75    0.75
   7  -9  -5    4.18    1.38
  -7  -9   5    4.04    1.18
   7  -9  -5    2.75    1.15
  -9  -9  -5   54.34    3.98
   9  -9   5   53.94    3.60
   9  -9   5   58.56    3.66
   9   9  -5   59.36    4.01
   9  -9  -5   47.47    3.68
   9  -9  -5   44.54    3.44
  -9  -9   5   53.63    4.00
   9  -9  -5   45.58    5.89
   9   9   5   56.28    3.76
   9  -9  -5   44.82    5.32
 -11  -9  -5   16.89    2.43
  11  -9   5   12.64    1.97
 -11  -9   5   13.61    2.23
  11  -9  -5   23.81    2.82
  13   9  -5    0.85    2.07
  13  -9   5    1.35    1.42
 -13  -9  -5   -0.81    1.73
  13   9   5   -0.07    1.18
  13  -9  -5   -1.99    1.68
  13   9   5   -1.79    1.52
 -13  -9   5    1.19    1.62
  15  -9   5   -0.20    1.49
  15   9  -5   -1.70    1.58
  15   9   5   -0.37    1.31
  15   9   5   -0.80    1.45
  15  -9  -5    1.19    1.56
  17  -9   5    2.32    1.49
  17   9  -5   -0.34    1.45
  17  -9  -5   -3.06    1.54
   1 -11   5  108.29    5.76
   1 -11   5   98.26    5.72
  -1 -11  -5  109.56    5.68
   1 -11   5  112.22    5.73
  -1 -11   5  104.54    5.74
  -1 -11   5  115.37    5.71
  -1 -11   5  104.90    5.69
  -3 -11  -5    7.92    1.17
   3 -11   5   10.05    1.26
   3 -11   5    7.33    1.10
  -3 -11  -5    9.65    1.35
   3 -11   5   11.63    1.34
   3 -11  -5    9.11    0.98
  -3 -11   5    8.37    1.21
   3 -11  -5    8.32    1.08
  -3 -11   5    7.29    0.99
  -3 -11   5    9.29    1.35
   3 -11  -5    9.45    1.23
   5 -11   5   -0.54    0.79
   5 -11   5   -0.03    0.68
   5 -11   5   -0.02    0.83
  -5 -11  -5   -0.19    0.80
  -5 -11  -5    0.77    1.10
  -5 -11   5    0.05    1.01
   5 -11  -5    0.85    0.52
   5 -11  -5    0.53    0.81
  -5 -11   5    0.18    1.04
   5 -11  -5   -0.12    1.29
  -5 -11   5    1.55    0.58
   5 -11  -5    0.59    0.86
   7 -11   5    4.35    1.11
  -7 -11  -5    4.10    1.40
   7 -11   5    3.56    0.95
   7 -11   5    5.02    1.32
  -7 -11  -5    6.03    1.38
   7 -11  -5    3.02    1.07
  -7 -11   5    6.26    1.49
   7 -11  -5    4.09    1.71
  -7 -11   5    5.34    0.92
   7 -11  -5    1.76    1.30
  -7 -11   5    5.46    1.35
   7 -11  -5    3.75    0.80
  -9 -11  -5   29.59    3.18
   9 -11   5   31.21    2.83
   9 -11   5   32.21    2.66
   9  11  -5   34.46    3.12
   9 -11  -5   28.92    3.50
   9 -11  -5   33.24    2.91
   9  11   5   31.38    3.12
   9 -11  -5   31.40    2.28
  -9 -11   5   38.01    3.39
   9 -11  -5   21.85    3.56
  11  11  -5   21.86    2.71
 -11 -11  -5   12.59    2.29
  11 -11   5   13.26    1.95
 -11 -11   5   13.05    2.29
  11 -11  -5   14.17    2.14
  11  11   5   17.93    2.43
  13  11  -5    1.36    2.05
 -13 -11  -5   -1.17    1.80
  13 -11   5    1.10    1.37
  13 -11  -5    1.48    1.44
 -13 -11   5   -1.67    1.67
  13  11   5   -0.12    1.59
  15  11  -5   -0.13    1.63
  15 -11   5    1.69    1.45
  15  11   5   -0.60    1.33
  15 -11  -5   -1.33    1.62
  15  11   5   -2.00    1.41
  -1 -13  -5   19.16    1.49
   1 -13   5   22.66    1.81
  -1 -13  -5   19.61    1.87
   1 -13   5   20.69    1.52
  -1 -13  -5   20.41    1.71
   1 -13   5   19.92    1.80
   1 -13   5   21.39    1.74
  -1 -13   5   20.09    1.79
  -1 -13   5   23.01    1.70
   1 -13  -5   19.93    1.79
  -1 -13   5   19.20    1.79
  -1 -13   5   21.22    1.46
   1 -13  -5   21.01    1.57
   3 -13   5    7.42    0.89
   3 -13   5    6.30    1.10
   3 -13   5    9.47    1.33
  -3 -13  -5    6.43    1.15
  -3 -13  -5    7.76    1.37
   3 -13   5    7.51    1.17
   3 -13  -5    6.99    0.93
  -3 -13   5    8.76    1.44
   3 -13  -5    9.10    1.30
  -3 -13   5    5.70    0.97
  -3 -13   5    6.74    1.20
  -3 -13   5    7.14    0.90
   3 -13  -5    8.37    1.10
   5 -13   5   15.73    1.89
  -5 -13  -5   18.62    2.04
   5 -13   5   13.57    1.29
  -5 -13  -5   16.17    1.88
   5 -13   5   15.88    1.92
   5 -13   5   16.11    1.85
   5 -13  -5   16.97    1.79
   5 -13  -5   14.95    1.41
   5 -13  -5   16.09    1.94
  -5 -13   5   14.02    1.43
  -5 -13   5   15.82    1.93
  -5 -13   5   16.68    2.05
  -5 -13   5   19.62    1.83
  -7 -13  -5   20.77    2.51
   7 -13   5   25.47    2.74
  -7 -13  -5   20.14    2.38
   7 -13   5   24.29    2.28
   7 -13   5   24.15    2.25
  -7 -13   5   24.94    2.80
  -7 -13   5   23.58    2.02
  -7 -13   5   22.92    2.61
   7 -13  -5   23.65    2.34
   7 -13  -5   26.19    2.73
   7 -13  -5   22.82    1.89
   9  13  -5   32.63    3.29
  -9 -13  -5   29.51    3.53
   9 -13   5   31.58    2.88
  -9 -13   5   36.89    3.56
   9 -13  -5   32.70    3.03
   9 -13  -5   33.16    2.43
   9 -13  -5   36.44    4.82
   9  13   5   36.52    3.19
   9 -13  -5   31.63    3.96
  11 -13   5    0.95    1.27
  11  13  -5   -0.83    2.16
 -11 -13  -5   -0.65    1.67
 -11 -13   5   -0.14    1.76
  11 -13  -5   -1.20    1.38
  11  13   5   -3.90    1.72
 -13 -13  -5    0.68    1.99
  13  13  -5   -1.33    1.73
  13 -13   5    1.34    1.41
  13  13   5    1.62    1.58
 -13 -13   5    0.29    1.90
  13 -13  -5    0.13    1.49
  15 -13   5   -1.24    1.39
  15  13  -5   -0.26    1.56
  15  13   5   -1.42    1.46
  15 -13  -5    0.03    1.52
   1 -15   5    1.48    0.83
  -1 -15  -5    1.06    0.92
  -1 -15  -5    0.86    0.74
   1 -15   5    0.71    0.68
   1 -15   5    1.72    0.83
   1 -15   5    1.06    0.51
  -1 -15  -5    0.76    0.51
  -1 -15   5    0.64    0.64
  -1 -15   5    0.61    0.47
  -1 -15   5    0.68    0.81
  -1 -15   5    0.37    0.84
   3 -15   5    1.29    0.85
  -3 -15  -5    0.69    0.55
  -3 -15  -5    1.84    1.15
  -3 -15  -5    1.28    0.84
   3 -15   5    1.31    0.55
   3 -15   5    0.89    0.76
   3 -15   5    0.56    0.79
  -3 -15   5    0.60    0.70
   3 -15  -5    0.44    0.59
   3 -15  -5    0.42    0.89
  -3 -15   5    1.96    1.12
  -3 -15   5    0.63    0.97
  -3 -15   5    0.13    0.54
  -5 -15  -5   42.87    3.20
  -5 -15  -5   42.35    3.14
   5 -15   5   37.82    2.55
   5 -15   5   43.07    3.22
   5 -15   5   44.12    3.04
   5 -15   5   41.44    3.04
  -5 -15   5   42.88    2.71
  -5 -15   5   49.20    2.98
  -5 -15   5   38.08    3.06
   5 -15  -5   42.71    3.08
   5 -15  -5   40.10    3.09
   5 -15  -5   38.05    2.68
  -5 -15   5   43.72    3.31
  -7 -15  -5   31.87    3.15
   7 -15   5   32.90    2.94
   7 -15   5   31.03    2.92
  -7 -15  -5   29.21    3.00
   7 -15   5   38.33    3.37
   7 -15   5   34.24    3.57
  -7 -15   5   35.52    3.24
   7 -15  -5   35.36    3.26
  -7 -15   5   32.07    2.57
  -7 -15   5   29.95    2.86
   7 -15  -5   36.44    2.96
  -7 -15   5   35.94    3.17
   7 -15  -5   33.64    2.44
   9 -15   5    2.20    1.18
  -9 -15  -5    1.26    1.60
   9  15  -5   -0.59    1.80
  -9 -15   5    2.07    1.78
   9 -15  -5    0.97    0.82
   9 -15  -5    2.67    1.38
  -9 -15   5    1.81    1.51
   9  15   5   -0.81    1.79
  11 -15   5   -0.27    1.20
  11  15  -5    0.57    2.20
 -11 -15  -5    1.08    1.72
 -11 -15   5    0.18    2.01
  11  15   5   -0.43    1.84
  11 -15  -5    0.92    1.41
  13 -15   5    0.08    1.31
 -13 -15  -5   -2.11    1.92
  13  15  -5   -1.47    1.61
  13 -15  -5   -0.20    1.48
 -13 -15   5    1.82    2.10
  13  15   5    1.78    1.72
  15  15  -5   -0.63    1.50
  15 -15   5   -0.50    1.40
  15 -15  -5    2.29    1.60
   1 -17   5   43.67    3.04
   1 -17   5   41.94    2.94
   1 -17   5   44.85    2.81
  -1 -17  -5   46.44    3.00
   1 -17   5   41.63    3.07
  -1 -17  -5   44.37    3.14
  -1 -17  -5   44.17    2.75
  -1 -17   5   46.69    2.98
   1 -17  -5   42.94    3.05
  -1 -17   5   46.75    2.78
  -1 -17   5   44.25    3.10
  -1 -17   5   49.01    3.10
   1 -17  -5   43.56    2.83
   3 -17   5   19.40    1.96
   3 -17   5   21.26    1.63
   3 -17   5   18.20    2.02
   3 -17   5   17.13    2.10
  -3 -17  -5   22.65    2.32
  -3 -17  -5   20.66    2.13
  -3 -17  -5   19.32    1.63
  -3 -17   5   20.50    1.90
   3 -17  -5   18.20    1.97
  -3 -17   5   20.29    2.33
  -3 -17   5   19.64    1.70
  -3 -17   5   19.95    2.25
   3 -17  -5   17.93    1.65
  -5 -17  -5  129.92    7.45
   5 -17   5  136.52    7.53
   5 -17   5  125.46    6.89
  -5 -17  -5  137.47    7.32
   5 -17   5  130.02    7.27
   5 -17   5  128.53    7.22
   5 -17  -5  123.24    6.97
   5 -17  -5  123.88    7.22
  -5 -17   5  139.32    7.13
   5 -17  -5  123.76    7.24
  -5 -17   5  132.82    7.48
  -5 -17   5  131.75    6.97
  -5 -17   5  127.14    7.26
  -7 -17  -5   15.04    2.16
  -7 -17  -5   14.59    2.25
   7 -17   5   11.99    1.88
   7 -17   5   14.82    1.55
   7 -17   5   14.23    2.28
  -7 -17   5   13.35    2.12
   7 -17  -5   11.20    1.44
   7 -17  -5   15.59    2.11
  -7 -17   5   13.72    1.66
  -7 -17   5   16.77    2.23
   7 -17  -5   15.10    2.12
   9 -17   5    0.49    1.28
  -9 -17  -5   -1.33    1.43
   9 -17  -5   -1.52    0.78
  -9 -17   5   -0.67    1.49
   9 -17  -5   -1.54    1.33
   9  17   5   -2.94    1.81
  -9 -17   5   -1.43    1.77
  11 -17   5    0.76    1.41
 -11 -17  -5    2.13    1.81
  11  17  -5   -0.43    2.06
  11 -17  -5    3.58    1.59
 -11 -17   5    3.29    2.42
  11  17   5    0.65    1.86
 -13 -17  -5   -2.20    2.01
  13 -17   5   -0.90    1.53
  13  17  -5   -0.13    1.58
  13 -17  -5   -1.32    1.46
 -13 -17   5    0.88    2.09
  13  17   5    1.51    1.58
  15 -17   5    1.90    1.64
  15  17  -5    3.31    1.60
  15 -17  -5    1.48    1.58
  -1 -19  -5   51.17    3.13
   1 -19   5   51.13    3.15
  -1 -19  -5   49.63    3.46
   1 -19   5   46.84    3.38
   1 -19   5   48.59    3.53
   1 -19   5   49.61    3.36
   1 -19  -5   47.30    3.45
  -1 -19   5   50.71    3.47
  -1 -19   5   50.02    3.16
   1 -19  -5   48.71    3.17
  -1 -19   5   55.23    3.65
  -1 -19   5   54.60    3.34
  -3 -19  -5   33.89    3.05
   3 -19   5   36.53    3.09
   3 -19   5   38.69    2.90
  -3 -19  -5   38.25    2.59
   3 -19   5   37.19    3.01
   3 -19   5   39.93    2.63
  -3 -19  -5   34.58    3.26
   3 -19  -5   37.99    2.65
   3 -19  -5   40.18    3.05
  -3 -19   5   44.32    3.30
  -3 -19   5   39.75    3.30
  -3 -19   5   41.04    2.68
  -3 -19   5   41.05    2.81
   5 -19   5   49.04    3.21
  -5 -19  -5   48.98    3.90
   5 -19   5   55.34    4.01
  -5 -19  -5   55.92    4.02
   5 -19   5   52.22    3.71
   5 -19  -5   45.84    3.68
  -5 -19   5   54.39    4.04
   5 -19  -5   49.28    3.31
  -5 -19   5   51.30    3.36
   5 -19  -5   48.71    3.71
  -5 -19   5   55.09    3.85
   7 -19   5   22.91    2.09
   7 -19   5   22.74    2.73
  -7 -19  -5   19.71    2.58
  -7 -19  -5   27.58    3.07
  -7 -19   5   24.77    2.38
  -7 -19   5   27.57    3.02
  -7 -19   5   23.50    2.90
   7 -19  -5   24.36    2.26
   7 -19  -5   23.63    2.79
   9 -19   5    6.53    1.65
  -9 -19  -5    8.77    2.12
  -9 -19  -5    9.90    2.22
   9 -19  -5    6.49    1.28
  -9 -19   5   10.60    2.15
  -9 -19   5    7.05    2.52
   9 -19  -5    7.79    1.90
  11  19  -5    2.26    1.96
 -11 -19  -5    3.24    1.92
  11 -19   5    1.52    1.42
  11 -19  -5    1.61    1.54
 -11 -19   5    3.06    2.60
  11  19   5    2.28    1.87
  13 -19   5    0.75    1.54
  13  19  -5    0.70    1.43
  13  19   5   -0.95    1.50
  13 -19  -5   -0.95    1.54
  -1 -21  -5    6.69    1.57
  -1 -21  -5    5.37    1.06
   1 -21   5    5.64    1.44
   1 -21   5    5.22    0.98
   1 -21   5    8.27    1.58
   1 -21   5    6.71    1.34
  -1 -21   5    7.33    1.13
  -1 -21   5    6.91    1.58
  -1 -21   5    9.80    1.79
   1 -21  -5    6.72    1.14
  -1 -21   5    5.63    1.17
   1 -21  -5    5.93    1.49
   3 -21   5   24.34    2.67
  -3 -21  -5   27.11    2.22
  -3 -21  -5   28.55    3.08
   3 -21   5   29.94    2.26
  -3 -21  -5   21.82    2.69
   3 -21   5   25.24    2.53
  -3 -21   5   24.39    2.27
  -3 -21   5   32.60    2.99
   3 -21  -5   30.10    2.24
  -3 -21   5   29.06    2.95
   3 -21  -5   29.26    2.64
   5 -21   5   40.34    2.81
   5 -21   5   40.92    3.28
  -5 -21  -5   38.90    3.67
  -5 -21  -5   31.39    3.35
  -5 -21   5   41.96    3.06
   5 -21  -5   40.03    3.34
  -5 -21   5   39.73    3.47
  -5 -21   5   45.64    3.76
   5 -21  -5   42.60    2.92
  -7 -21  -5    3.84    1.72
   7 -21   5    3.95    1.02
   7 -21   5    3.58    1.49
  -7 -21  -5    7.17    2.02
   7 -21  -5    5.47    1.65
  -7 -21   5    4.13    1.31
  -7 -21   5    2.86    2.13
   7 -21  -5    5.02    1.14
  -7 -21   5    7.22    2.04
  -9 -21  -5    3.02    2.03
   9 -21   5    0.84    1.36
  -9 -21  -5    0.90    1.65
  -9 -21   5    2.23    1.92
  -9 -21   5   -3.76    2.36
   9 -21  -5    4.19    1.67
   9 -21  -5    2.85    1.12
 -11 -21  -5    4.73    1.86
  11  21  -5    0.14    1.58
  11 -21   5    2.32    1.59
  11  21   5    0.65    1.64
  11 -21  -5    4.62    1.72
 -11 -21   5   -0.75    2.51
  13  21  -5    0.88    1.41
  13 -21   5    1.12    1.54
  13 -21  -5    1.85    1.60
   1 -23   5    2.97    1.31
   1 -23   5    2.42    0.82
  -1 -23  -5    3.70    1.01
   1 -23   5    4.35    1.40
  -1 -23  -5    3.78    1.51
   1 -23  -5    2.53    1.37
  -1 -23   5    5.61    1.59
  -1 -23   5    2.64    0.88
  -1 -23   5    3.73    1.53
   1 -23  -5    1.54    0.81
  -3 -23  -5    7.09    1.93
   3 -23   5    8.72    1.69
  -3 -23  -5    8.11    1.36
   3 -23   5    6.16    1.21
   3 -23  -5    6.92    1.24
  -3 -23   5    8.36    1.92
  -3 -23   5    7.79    1.89
  -3 -23   5    6.17    1.28
   3 -23  -5   10.32    1.84
   5 -23   5   10.89    1.50
  -5 -23  -5    9.30    1.92
   5 -23   5   11.54    1.97
  -5 -23  -5    9.49    2.20
  -5 -23   5    9.98    1.63
   5 -23  -5   10.67    1.97
   5 -23  -5   11.23    1.55
  -5 -23   5   10.73    2.39
  -5 -23   5   10.88    2.14
   7 -23   5    3.07    1.48
  -7 -23  -5    3.26    1.90
  -7 -23  -5    3.06    1.68
   7 -23   5    3.67    1.00
  -7 -23   5    3.57    1.31
  -7 -23   5    3.81    2.03
   7 -23  -5    3.27    1.05
  -7 -23   5   -1.65    2.03
   7 -23  -5    1.92    1.44
  -9 -23  -5    2.40    1.68
   9 -23   5    0.37    1.39
  -9 -23  -5    1.36    1.96
  -9 -23   5   -4.72    2.60
  -9 -23   5   -0.97    1.97
   9 -23  -5    0.90    1.03
   9 -23  -5    2.99    1.66
  11 -23   5    0.70    1.53
  11  23  -5   -1.21    1.36
  11  23   5    0.99    1.55
  11 -23  -5    0.84    1.64
   1 -25   5   25.54    3.04
   1 -25   5   27.69    2.36
   1 -25   5   23.61    2.69
  -1 -25  -5   25.22    2.94
  -1 -25  -5   25.25    2.33
   1 -25  -5   27.43    2.30
  -1 -25   5   28.20    2.38
  -1 -25   5   22.91    2.97
   1 -25  -5   26.53    2.85
  -1 -25   5   23.34    2.88
   3 -25   5    0.74    1.21
   3 -25   5   -0.35    0.67
  -3 -25  -5    1.24    0.94
  -3 -25  -5   -0.22    1.51
  -3 -25   5    0.79    0.95
   3 -25  -5   -0.03    0.80
  -3 -25   5    0.52    1.40
  -3 -25   5    0.56    1.49
   3 -25  -5    0.99    1.39
   5 -25   5   -0.14    0.80
  -5 -25  -5   -0.30    1.70
  -5 -25  -5    0.42    1.52
   5 -25   5   -0.05    1.38
   5 -25  -5   -1.30    0.74
  -5 -25   5   -0.39    1.79
  -5 -25   5    0.91    1.08
  -5 -25   5    1.19    1.89
   5 -25  -5    0.48    1.36
   7 -25   5   -0.82    1.40
  -7 -25  -5   -1.06    1.38
   7 -25   5   -1.65    0.75
  -7 -25  -5   -0.39    1.82
  -7 -25   5   -2.67    2.42
   7 -25  -5   -1.07    0.87
  -7 -25   5    0.66    2.01
   7 -25  -5   -1.78    1.38
   9 -25   5   -0.29    1.51
  -9 -25  -5   -0.17    1.61
  -9 -25  -5    0.25    1.91
  -9 -25   5   -3.63    2.88
   9 -25  -5    1.51    1.68
  -9 -25   5   -3.07    1.88
   9 -25  -5    0.31    0.98
  11 -25   5    1.60    1.65
  11  25  -5    0.87    1.46
  11  25   5    2.77    1.69
  11 -25  -5    5.13    1.86
   1 -27   5   36.19    2.84
  -1 -27  -5   35.68    3.47
  -1 -27  -5   32.22    2.84
   1 -27   5   30.90    3.20
  -1 -27   5   33.92    3.46
   1 -27  -5   32.33    3.35
  -1 -27   5   36.88    3.93
   1 -27  -5   33.38    2.83
  -1 -27   5   38.38    2.92
  -3 -27  -5    4.10    1.29
   3 -27   5    4.53    1.16
  -3 -27  -5    5.28    2.00
   3 -27   5    5.09    1.70
   3 -27  -5    3.51    1.75
  -3 -27   5    4.46    1.92
  -3 -27   5    5.37    1.42
   3 -27  -5    4.25    1.18
  -3 -27   5    2.90    2.10
   5 -27   5    7.77    1.45
  -5 -27  -5    5.16    2.08
   5 -27   5    5.95    1.88
  -5 -27   5    6.90    1.67
   5 -27  -5    7.81    2.16
  -5 -27   5    5.62    2.24
  -5 -27   5    5.00    2.65
   5 -27  -5    6.34    1.44
  -7 -27  -5    4.55    2.18
  -7 -27  -5    4.21    2.22
   7 -27   5    5.23    1.94
   7 -27   5    7.74    1.44
   7 -27  -5    7.43    1.61
  -7 -27   5    4.01    2.25
   7 -27  -5    5.97    2.04
  -7 -27   5    6.99    3.03
   9 -27   5   10.23    2.15
  -9 -27   5   13.64    2.65
   9 -27  -5   12.13    2.28
   9  27   5    7.01    1.73
   1 -29   5   58.42    3.84
   1 -29   5   45.62    4.23
  -1 -29  -5   55.91    3.85
  -1 -29  -5   46.52    4.33
   1 -29  -5   54.35    3.77
  -1 -29   5   53.24    3.76
   1 -29  -5   49.52    4.23
  -1 -29   5   47.71    4.36
  -3 -29  -5    1.97    1.27
   3 -29   5   -2.04    1.47
  -3 -29  -5    0.57    1.83
   3 -29   5    0.87    1.09
  -3 -29   5    3.60    2.19
   3 -29  -5    0.26    0.99
  -3 -29   5    0.80    1.77
  -3 -29   5    0.14    1.14
   3 -29  -5    1.58    1.54
   5 -29   5   33.75    2.87
   5 -29   5   24.89    3.14
   5 -29  -5   28.39    3.49
  -5 -29   5   24.36    3.45
  -5 -29   5   31.40    2.99
   5 -29  -5   30.07    2.92
  -5 -29   5   29.89    4.43
   7 -29   5    1.39    1.07
   7 -29   5    0.72    1.50
  -7 -29  -5    1.25    1.91
  -7 -29   5   -0.88    2.09
   7 -29  -5   -0.96    1.05
   7 -29  -5   -1.47    1.63
  -1 -31  -5   22.67    3.22
   1 -31   5   27.27    3.46
  -1 -31  -5   35.69    3.08
   1 -31   5   39.05    3.09
  -1 -31   5   37.59    3.02
   1 -31  -5   38.56    3.07
   1 -31  -5   28.15    3.56
  -1 -31   5   33.80    3.81
  -3 -31  -5   -0.25    1.21
   3 -31   5   -0.43    1.46
   3 -31   5    0.18    1.09
  -3 -31  -5   -0.27    1.80
  -3 -31   5    0.80    1.92
   3 -31  -5   -0.25    1.08
  -3 -31   5    0.49    1.29
   3 -31  -5   -0.17    1.66
   5 -31   5    2.80    1.64
  -5 -31  -5    2.16    1.82
   5 -31   5    2.53    1.28
   5 -31  -5    1.84    1.22
  -5 -31   5    4.15    2.07
  -5 -31   5    3.39    1.49
   5 -31  -5    3.46    1.72
  -1 -33  -5   -6.36    4.18
   1 -33   5    2.77    1.28
   1 -33   5    1.77    2.06
  -1 -33  -5    1.24    1.16
  -1 -33   5    1.39    1.99
  -1 -33   5    2.94    1.31
   1 -33  -5    4.27    1.39
   0   0  -6   30.34    1.82
   0   0  -6   32.64    2.06
   0   0   6   32.17    1.83
   2   0  -6   62.13    3.61
  -2   0   6   61.65    3.56
  -2   0   6   61.44    3.56
   2   0  -6   57.40    3.57
  -2   0  -6   61.05    3.30
   2   0   6   67.34    3.32
  -4   0  -6  410.30   20.52
   4   0  -6  417.08   20.84
   4   0   6  422.72   20.47
   4   0  -6  424.45   20.96
   4   0   6  405.55   20.50
   6   0   6   73.38    4.29
  -6   0   6   78.96    4.38
   6   0  -6   76.24    4.44
   6   0  -6   88.37    5.42
   8   0  -6   25.75    2.38
  -8   0   6   27.40    3.06
   8   0   6   24.37    2.09
   8   0  -6   21.17    3.13
  10   0  -6   23.54    3.85
  10   0   6   31.63    2.93
  10   0  -6   41.78    3.24
  10   0   6   31.49    2.60
  12   0  -6   -0.12    1.96
  12   0   6   -0.49    1.21
  12   0   6    2.49    1.51
  14   0  -6    5.05    2.06
  14   0   6    5.33    1.86
  14   0   6    2.40    1.56
  16   0   6    3.11    1.78
  16   0  -6    7.31    1.98
   0  -2   6   37.96    2.36
   0  -2   6   39.35    2.19
   0   2   6   36.08    2.09
   0  -2   6   40.25    2.34
   0   2  -6   39.60    2.19
   0  -2  -6   38.85    2.46
  -2   2   6   54.88    3.41
  -2   2   6   57.88    3.45
   2   2  -6   70.16    3.73
  -2  -2  -6   60.34    3.20
  -2  -2  -6   60.12    3.53
   2  -2   6   65.40    3.33
   2  -2  -6   60.06    3.62
  -2  -2   6   57.68    3.56
  -2   2  -6   62.86    3.31
  -4  -2  -6   23.61    1.80
   4   2  -6   23.50    2.32
  -4  -2  -6   24.28    1.75
   4  -2   6   25.42    1.68
   4  -2   6   25.29    1.83
   4   2   6   22.35    1.61
   4  -2  -6   26.92    2.25
  -4   2  -6   26.72    1.86
   4  -2  -6   22.81    2.55
   6   2  -6  100.68    5.79
   6  -2   6  107.25    5.76
   6  -2   6  115.52    6.01
  -6  -2  -6  114.20    5.87
   6  -2  -6  112.26    6.68
   6  -2  -6  103.60    5.82
  -6  -2   6  112.33    5.81
   8   2  -6    2.85    1.28
   8  -2   6    0.26    1.09
   8  -2   6   -0.30    0.75
   8   2  -6   -2.29    2.16
  -8  -2   6   -1.21    1.04
   8  -2  -6    3.05    2.14
   8  -2  -6    2.67    1.16
  10   2  -6    0.10    1.70
  10  -2   6    2.57    1.38
  10   2  -6    1.40    2.87
  10  -2   6    3.11    1.14
  10   2   6    0.92    1.02
  10   2   6   -2.95    1.65
  10  -2  -6   -0.17    2.65
  10  -2  -6   -0.35    1.41
  12  -2   6    0.54    1.50
  12   2  -6   -0.96    1.95
  12  -2   6   -0.22    1.26
  12   2   6   -0.18    1.26
  12  -2  -6   -2.81    1.68
  12   2   6   -1.84    1.66
  14   2  -6    3.28    2.08
  14  -2   6    3.38    1.57
  14  -2   6    2.88    1.74
  14  -2  -6    5.50    2.10
  14   2   6    1.15    1.72
  14   2   6    4.40    1.59
  16  -2   6    1.72    1.61
  16   2  -6    3.31    2.04
  16   2   6    1.20    1.73
  16  -2  -6    6.25    1.99
   0  -4   6  324.08   15.90
   0   4  -6  339.99   16.06
   0  -4  -6  300.66   16.02
   0  -4   6  321.08   16.02
   0  -4   6  313.80   15.78
   2   4  -6    9.20    1.26
  -2   4   6    9.35    1.05
   2  -4   6    9.43    1.11
   2  -4   6    9.53    0.92
   2  -4   6   10.06    1.44
  -2  -4  -6    9.91    1.35
   2  -4  -6    7.77    1.12
  -2  -4   6    7.60    1.13
   4  -4   6   16.05    1.29
  -4  -4  -6   16.38    1.50
   4  -4   6   17.08    1.57
   4  -4  -6   15.91    1.56
   4  -4  -6   15.31    1.64
  -4  -4   6   13.43    1.54
   6  -4   6    0.62    0.76
  -6  -4  -6    1.12    0.91
   6  -4   6    0.74    0.61
   6   4  -6   -0.72    1.03
   6  -4  -6    0.30    1.02
  -6  -4   6    1.97    0.88
   6  -4  -6    1.17    1.22
   6  -4  -6    1.24    0.92
   6  -4  -6   -0.05    0.85
   8   4  -6    4.66    1.31
   8  -4   6    1.33    1.32
   8  -4   6    0.33    0.84
  -8  -4   6    0.80    1.21
   8  -4  -6    1.44    1.90
   8  -4  -6    2.45    1.03
  10  -4   6    5.80    1.32
  10   4  -6    3.27    2.71
  10   4  -6    2.27    1.87
  10  -4   6    4.97    1.52
 -10  -4  -6    2.80    1.49
  10   4   6   -0.06    1.07
  10   4   6   -2.73    1.63
 -10  -4   6    0.16    1.28
  10  -4  -6   -0.35    2.46
  10  -4  -6   -1.93    1.26
  12   4  -6   -0.05    1.99
  12  -4   6   -0.72    1.51
  12  -4   6   -1.90    1.27
  12   4   6   -1.39    1.13
  12  -4  -6   -2.09    1.80
  12   4   6   -2.45    1.58
  14   4  -6   -0.09    2.04
  14  -4   6    2.44    1.76
  14  -4  -6    4.38    2.13
  14   4   6    0.53    1.63
  14   4   6    0.60    1.44
  16  -4   6    0.86    1.49
  16   4  -6    0.08    1.75
  16  -4  -6    0.73    1.74
  16   4   6    0.28    1.63
  16   4   6   -1.55    1.56
   0  -6  -6  149.94    8.33
   0  -6   6  155.89    8.03
   0  -6   6  157.25    8.04
   0  -6   6  162.29    8.33
   0   6  -6  169.29    8.36
   2  -6   6  102.76    5.29
  -2  -6  -6  106.20    5.35
   2   6  -6  109.36    5.76
   2  -6   6   92.51    5.19
   2  -6   6  102.97    5.41
   2  -6  -6   85.35    5.51
   2  -6  -6   96.35    5.18
  -2  -6   6   98.82    5.24
  -2  -6   6  105.29    5.25
  -4  -6  -6   16.75    1.68
   4  -6   6   17.62    1.51
   4  -6   6   19.89    1.78
   4  -6   6   21.30    2.00
  -4  -6   6   18.44    1.81
   4  -6  -6   19.82    1.75
   4  -6  -6   16.95    2.40
   6  -6   6    3.31    1.00
   6  -6   6    5.54    1.25
   6  -6   6    2.17    1.02
   6  -6   6    2.86    0.73
   6   6  -6    3.05    1.09
  -6  -6  -6    3.52    1.04
   6  -6  -6    3.43    1.11
   6  -6  -6    1.41    0.98
   6  -6  -6    2.75    1.58
  -6  -6   6    3.85    1.05
  -8  -6  -6   10.98    1.68
   8   6  -6   11.70    1.74
   8  -6   6    9.40    1.69
   8  -6  -6   11.30    1.75
   8  -6  -6   11.62    1.28
  -8  -6   6    7.13    1.63
   8   6   6   12.54    1.73
   8  -6  -6    9.12    1.43
   8  -6  -6   10.30    2.48
 -10  -6  -6   17.52    2.24
  10  -6   6   17.10    2.05
  10   6  -6   14.98    2.33
  10  -6   6   14.68    1.84
  10  -6  -6    8.39    1.83
  10   6   6   15.32    2.16
  10  -6  -6    8.50    3.02
 -10  -6   6   13.11    1.96
  12  -6   6    4.10    1.70
  12   6  -6   10.84    2.51
  12  -6   6    7.86    1.69
 -12  -6  -6    8.65    1.96
  12   6   6    5.50    1.55
  12   6   6    4.26    1.69
 -12  -6   6    6.32    2.33
  12  -6  -6    3.89    2.01
  14   6  -6   -4.43    1.98
  14  -6   6    0.22    1.55
  14   6   6   -0.49    1.24
  14   6   6   -0.64    1.62
  14  -6  -6   -2.96    1.73
  16  -6   6   -1.12    1.39
  16   6  -6   -2.24    1.70
  16  -6  -6    2.35    1.87
  16   6   6   -0.15    1.47
   0  -8   6  175.59    8.70
   0  -8   6  157.70    8.28
   0  -8   6  157.49    8.30
   0  -8  -6  153.21    8.61
   0   8  -6  172.49    8.64
   2  -8   6   48.41    3.02
  -2  -8  -6   51.53    2.83
   2  -8   6   50.71    2.90
   2  -8   6   45.29    2.81
   2  -8  -6   41.91    3.19
  -2  -8   6   47.84    2.84
  -2  -8   6   50.67    2.80
   2  -8  -6   46.27    2.72
  -4  -8  -6   19.27    1.75
   4  -8   6   20.40    1.63
   4  -8   6   19.60    1.84
   4  -8  -6   20.77    1.78
   4  -8  -6   18.73    2.53
  -4  -8   6   21.10    1.97
  -4  -8   6   19.22    1.94
   4  -8  -6   20.68    2.14
   6  -8   6    7.30    1.30
  -6  -8  -6    7.69    1.41
  -6  -8  -6    6.62    1.23
   6  -8   6    5.01    0.95
   6  -8   6    6.09    1.29
   6  -8  -6    5.82    1.43
  -6  -8   6    5.21    1.20
   6  -8  -6    5.53    1.24
   6  -8  -6    5.48    1.77
   6  -8  -6    5.39    0.79
  -6  -8   6    8.64    1.48
   8   8  -6   24.40    2.66
   8  -8   6   21.93    2.68
   8  -8   6   27.04    2.52
   8  -8   6   27.98    2.38
  -8  -8  -6   28.95    2.68
   8   8   6   29.63    2.64
   8  -8  -6   33.39    2.57
   8  -8  -6   35.52    4.26
   8  -8  -6   36.68    3.16
   8  -8  -6   26.87    2.04
  -8  -8   6   26.45    2.68
 -10  -8  -6   36.32    3.28
  10  -8   6   38.79    3.14
  10  -8   6   26.04    4.13
  10   8  -6   38.70    3.45
  10  -8   6   33.17    3.10
  10  -8  -6   30.61    3.16
  10  -8  -6   24.20    3.88
 -10  -8   6   33.86    3.31
  10   8   6   44.71    3.30
  12  -8   6    9.81    1.87
  12   8  -6   15.53    2.61
 -12  -8  -6   12.43    2.20
  12   8   6    8.14    1.68
  12  -8  -6    9.10    2.19
 -12  -8   6   10.98    1.93
  12   8   6    6.81    1.84
  14  -8   6   -1.69    1.41
  14   8  -6   -1.65    1.93
  14   8   6    0.05    1.26
  14   8   6   -0.73    1.53
  14  -8  -6    0.83    1.70
  16   8  -6   -1.31    1.48
  16  -8   6   -1.23    1.45
  16  -8  -6   -0.20    1.48
   0 -10   6  211.27   10.84
   0  10  -6  234.06   11.26
   0 -10   6  199.58   10.84
  -2 -10  -6    1.77    0.76
   2 -10   6    3.06    0.81
   2 -10   6    3.18    0.80
  -2 -10   6    2.92    0.91
  -2 -10   6    1.68    0.64
  -2 -10   6    2.24    0.84
   4 -10   6    8.82    1.17
   4 -10   6    9.35    1.29
   4 -10   6   10.65    1.35
  -4 -10  -6    7.95    1.15
  -4 -10  -6   13.21    1.92
   4 -10  -6    7.37    0.89
   4 -10  -6    7.77    1.55
   4 -10  -6    9.59    1.17
  -4 -10   6    7.92    1.11
  -4 -10   6    9.23    1.36
  -4 -10   6    8.41    1.30
   4 -10  -6    9.07    1.18
  -6 -10  -6    0.40    0.92
  -6 -10  -6    1.09    1.12
   6 -10   6   -0.17    0.85
   6 -10   6   -0.41    0.98
   6 -10   6    0.26    0.67
   6 -10  -6   -0.09    1.02
   6 -10  -6   -0.51    0.81
  -6 -10   6    0.74    1.09
   6 -10  -6    0.05    0.50
   6 -10  -6    0.35    1.45
  -6 -10   6   -0.01    0.61
  -6 -10   6    0.37    1.16
   8  10  -6    0.48    1.48
   8 -10   6    1.43    1.12
  -8 -10  -6    3.80    1.46
   8 -10   6    3.23    1.00
   8 -10  -6    0.72    1.23
   8  10   6    5.49    1.61
  -8 -10   6    2.20    1.41
   8 -10  -6    1.66    2.12
   8 -10  -6    2.62    0.76
   8 -10  -6   -0.39    1.47
  10 -10   6   65.70    4.26
  10 -10   6   63.75    4.28
 -10 -10  -6   65.66    4.60
  10 -10  -6   61.44    4.36
 -10 -10   6   59.43    4.68
  10  10   6   68.89    4.42
  10 -10  -6   43.80    6.51
  12  10  -6    7.63    2.29
 -12 -10  -6    3.74    1.82
  12 -10   6    3.05    1.54
  12  10   6    3.91    1.63
  12 -10  -6    3.78    1.71
 -12 -10   6    4.65    1.76
  14 -10   6   -0.02    1.40
  14  10  -6   -2.61    1.74
  14 -10  -6    0.35    1.53
  14  10   6    0.23    1.52
  14  10   6   -0.94    1.24
  16 -10   6    0.51    1.48
  16  10  -6    0.08    1.54
  16 -10  -6   -0.54    1.70
   0 -12   6  146.44    7.30
   0 -12   6  150.34    7.48
   0 -12  -6  136.66    7.31
   0 -12   6  144.98    7.44
   0 -12  -6  144.04    7.43
   0 -12   6  134.21    7.46
   2 -12   6   31.67    2.32
  -2 -12  -6   32.73    2.29
  -2 -12  -6   31.95    2.30
   2 -12   6   32.98    2.04
   2 -12   6   34.20    2.31
   2 -12   6   29.94    2.27
   2 -12  -6   31.96    2.06
  -2 -12   6   35.35    2.36
  -2 -12   6   31.90    2.35
   2 -12  -6   27.63    2.24
  -2 -12   6   30.86    2.00
  -2 -12   6   37.22    2.23
   4 -12   6    2.45    0.97
  -4 -12  -6    3.46    1.21
   4 -12   6    3.78    1.01
   4 -12   6    1.88    0.90
   4 -12   6    3.29    0.59
  -4 -12  -6    2.07    0.90
   4 -12  -6    2.75    0.66
  -4 -12   6    4.33    0.87
  -4 -12   6    2.92    0.67
  -4 -12   6    3.96    1.14
  -4 -12   6    3.33    1.11
   4 -12  -6    3.90    0.98
   4 -12  -6    3.39    0.96
   6 -12   6   -0.63    0.84
   6 -12   6    0.04    0.77
   6 -12   6   -0.69    1.03
   6 -12   6   -0.06    0.56
  -6 -12  -6   -0.82    0.97
  -6 -12  -6    1.61    1.18
  -6 -12   6    0.77    1.13
   6 -12  -6    0.71    0.58
  -6 -12   6   -1.80    0.97
  -6 -12   6    0.23    0.63
   6 -12  -6   -0.87    1.03
   6 -12  -6    0.88    0.88
   8 -12   6   29.80    2.54
  -8 -12  -6   34.96    3.19
   8 -12   6   27.01    2.53
   8 -12  -6   27.53    3.33
  -8 -12   6   23.71    2.90
   8 -12  -6   22.71    3.47
  -8 -12   6   35.86    3.17
   8 -12  -6   27.03    2.67
   8  12   6   22.75    2.74
   8 -12  -6   31.47    2.20
  10  12  -6   28.82    3.17
  10 -12   6   26.40    2.71
 -10 -12  -6   23.16    2.81
  10 -12  -6   29.86    2.91
  10  12   6   25.93    2.86
 -10 -12   6   24.60    3.02
  12  12  -6    3.78    2.21
  12 -12   6    3.81    1.46
 -12 -12  -6    2.63    1.94
  12 -12  -6    2.55    1.60
 -12 -12   6    1.04    1.86
  12  12   6    3.35    1.85
  14  12  -6    1.57    1.89
  14 -12   6   -0.52    1.37
 -14 -12  -6    0.35    1.97
 -14 -12   6    2.59    1.93
  14 -12  -6   -2.35    1.54
  14  12   6   -0.86    1.30
  14  12   6   -1.11    1.54
  16  12  -6   -0.84    1.51
  16 -12   6   -1.60    1.46
  16 -12  -6   -0.47    1.45
   0 -14  -6   41.07    2.54
   0 -14   6   40.83    2.71
   0 -14  -6   40.31    2.70
   0 -14   6   41.53    2.69
   0 -14   6   37.82    2.72
   0 -14   6   42.77    2.48
  -2 -14  -6   14.78    1.78
   2 -14   6   14.04    1.57
   2 -14   6   11.84    1.55
   2 -14   6   12.25    1.53
   2 -14   6   13.20    1.25
  -2 -14  -6   13.50    1.54
  -2 -14  -6   12.38    1.26
  -2 -14   6   15.14    1.72
  -2 -14   6   13.65    1.50
  -2 -14   6   12.31    1.20
  -2 -14   6   13.39    1.63
   4 -14   6    8.43    1.35
  -4 -14  -6    7.48    1.51
   4 -14   6    5.32    1.12
   4 -14   6    7.54    1.24
  -4 -14  -6    4.80    0.88
   4 -14   6    5.68    0.82
  -4 -14  -6    6.08    1.27
  -4 -14   6    8.02    1.45
   4 -14  -6    6.91    1.24
  -4 -14   6    6.08    0.93
   4 -14  -6    8.45    1.34
  -4 -14   6    5.57    1.35
  -4 -14   6    5.94    1.08
   4 -14  -6    6.18    0.92
   6 -14   6    8.19    1.73
   6 -14   6    6.72    1.39
   6 -14   6    5.97    0.85
  -6 -14  -6    6.07    1.48
  -6 -14  -6    8.37    1.67
   6 -14   6    6.96    1.27
  -6 -14   6    9.19    1.67
   6 -14  -6    5.44    0.98
  -6 -14   6    8.05    1.64
   6 -14  -6    8.34    1.54
  -6 -14   6    8.41    1.19
   6 -14  -6    5.39    2.13
  -6 -14   6    7.70    1.30
   6 -14  -6    7.50    1.39
  -8 -14  -6   50.62    3.99
   8 -14   6   50.59    3.69
  -8 -14  -6   54.37    4.08
   8 -14   6   51.53    3.72
   8 -14  -6   51.27    3.83
  -8 -14   6   50.18    3.86
   8 -14  -6   55.25    3.46
  -8 -14   6   56.81    4.24
   8 -14  -6   62.62    4.55
  -8 -14   6   65.05    4.16
  10 -14   6   -0.44    1.05
  10  14  -6   -0.55    2.05
 -10 -14  -6    1.48    1.71
 -10 -14   6   -1.34    1.91
  10  14   6   -1.05    1.94
  10 -14  -6    1.47    1.34
  10 -14  -6    0.06    0.88
 -12 -14  -6   -0.08    1.90
  12 -14   6    1.18    1.28
  12  14  -6    1.94    2.07
  12 -14  -6    1.88    1.60
 -12 -14   6   -1.77    2.07
  12  14   6    0.06    1.67
  14 -14   6   -1.14    1.34
 -14 -14  -6   -0.37    1.97
  14  14  -6    2.52    1.76
  14  14   6    0.18    1.34
  14 -14  -6   -0.30    1.42
 -14 -14   6    1.08    1.89
  16  14  -6    0.55    1.43
  16 -14  -6    1.12    1.57
   0 -16   6    1.48    0.91
   0 -16   6    1.01    0.71
   0 -16  -6    2.77    0.98
   0 -16  -6    0.90    0.61
   0 -16   6    0.81    0.82
   0 -16   6    1.10    0.57
  -2 -16  -6    1.75    0.93
  -2 -16  -6    2.41    0.67
   2 -16   6    1.82    0.61
   2 -16   6    2.12    0.94
   2 -16   6    1.93    0.81
  -2 -16  -6    3.88    1.19
   2 -16   6    2.35    0.90
  -2 -16   6    1.89    0.64
  -2 -16   6    1.80    1.03
  -2 -16   6    3.57    1.12
  -2 -16   6    1.63    0.82
   4 -16   6   20.69    1.60
   4 -16   6   19.03    2.15
  -4 -16  -6   18.54    1.63
  -4 -16  -6   22.95    2.45
   4 -16   6   19.14    1.99
   4 -16   6   20.16    2.08
  -4 -16  -6   18.16    2.21
  -4 -16   6   19.15    1.69
   4 -16  -6   18.94    1.71
  -4 -16   6   22.12    2.28
   4 -16  -6   18.55    2.05
  -4 -16   6   21.34    2.32
   4 -16  -6   18.00    2.12
  -4 -16   6   22.98    1.99
   6 -16   6  112.93    6.88
   6 -16   6  110.69    6.62
  -6 -16  -6  114.14    6.67
  -6 -16  -6  113.71    6.74
   6 -16   6  110.37    6.18
   6 -16   6  112.02    6.59
  -6 -16   6  123.08    6.36
  -6 -16   6  116.37    6.51
   6 -16  -6  121.86    6.77
   6 -16  -6  108.53    6.33
  -6 -16   6  120.11    6.74
   6 -16  -6  116.42    6.69
  -6 -16   6  128.51    7.02
  -8 -16  -6    8.73    1.87
   8 -16   6    5.20    1.50
  -8 -16  -6    5.02    1.94
  -8 -16   6    5.92    1.88
   8 -16  -6    7.13    1.73
   8 -16  -6    6.55    1.20
  -8 -16   6    9.90    2.03
  10  16  -6   -0.50    1.85
 -10 -16  -6   -0.82    1.64
  10 -16   6   -0.19    1.15
  10  16   6   -2.22    1.87
  10 -16  -6   -1.23    1.34
  10 -16  -6   -1.25    0.82
 -10 -16   6   -1.77    1.88
 -12 -16  -6   -2.83    1.78
  12 -16   6    0.87    1.34
  12  16  -6   -0.31    1.75
  12  16   6    0.64    1.80
 -12 -16   6   -3.99    2.32
  12 -16  -6    3.93    1.61
  14  16  -6    0.66    1.55
  14 -16   6   -0.52    1.54
  14 -16  -6   -0.68    1.54
   0 -18   6   33.14    2.56
   0 -18   6   31.47    2.72
   0 -18   6   32.20    2.55
   0 -18   6   31.72    2.28
   0 -18  -6   35.30    2.37
   0 -18  -6   39.43    2.76
   2 -18   6    0.69    0.84
  -2 -18  -6   -1.45    0.99
   2 -18   6    0.22    0.82
  -2 -18  -6    0.61    0.62
   2 -18   6    0.11    0.87
   2 -18   6   -0.20    0.49
  -2 -18  -6   -0.12    0.82
   2 -18  -6    0.08    0.57
  -2 -18   6    0.06    0.74
  -2 -18   6    0.21    0.59
  -2 -18   6    0.27    0.99
   2 -18  -6   -0.66    0.82
  -2 -18   6    0.70    1.06
   4 -18   6   98.39    5.84
   4 -18   6   99.07    5.88
   4 -18   6   94.74    5.39
   4 -18   6   95.81    5.67
  -4 -18  -6  100.94    5.90
  -4 -18  -6   94.37    5.41
  -4 -18  -6   91.76    5.91
  -4 -18   6  108.75    5.99
   4 -18  -6   94.12    5.44
   4 -18  -6   95.07    5.71
  -4 -18   6   99.25    5.44
  -4 -18   6  100.01    5.59
  -4 -18   6   97.47    5.84
  -6 -18  -6   82.19    4.93
   6 -18   6   67.63    4.90
  -6 -18  -6   64.17    4.70
   6 -18   6   70.21    4.11
   6 -18   6   65.80    4.57
   6 -18   6   72.71    4.90
   6 -18  -6   71.29    4.29
  -6 -18   6   68.72    4.27
   6 -18  -6   69.78    4.67
  -6 -18   6   70.79    4.96
  -6 -18   6   70.01    4.75
  -8 -18  -6    3.26    1.82
   8 -18   6    3.78    1.39
  -8 -18  -6    6.84    1.69
   8 -18  -6    4.19    1.60
  -8 -18   6    3.94    1.77
  -8 -18   6    2.48    1.78
   8 -18  -6    3.32    1.07
  10 -18   6   -0.93    1.26
 -10 -18  -6    1.47    1.80
  10  18  -6    2.46    1.93
  10  18   6    1.35    1.87
  10 -18  -6    2.92    1.60
  10 -18  -6    1.74    0.96
 -10 -18   6    1.12    2.42
 -12 -18  -6   -0.74    1.95
  12  18  -6   -1.21    1.56
  12 -18   6   -2.31    1.34
  12  18   6   -0.90    1.47
  12 -18  -6    0.57    1.47
 -12 -18   6   -4.38    2.47
  14 -18   6    1.71    1.51
  14  18  -6    0.82    1.54
  14 -18  -6    2.10    1.63
   0 -20   6   60.22    3.91
   0 -20   6   64.37    3.75
   0 -20  -6   65.56    3.77
   0 -20   6   60.07    4.14
   0 -20   6   55.57    3.91
   0 -20  -6   61.21    4.04
  -2 -20  -6   10.14    1.33
   2 -20   6   10.51    1.77
   2 -20   6   10.63    1.71
   2 -20   6   11.69    1.76
   2 -20   6   12.07    1.40
  -2 -20  -6   12.61    1.92
  -2 -20   6    9.70    1.43
   2 -20  -6   10.46    1.34
  -2 -20   6   12.72    1.93
  -2 -20   6    9.61    1.32
   2 -20  -6   11.62    1.78
  -2 -20   6   12.69    1.91
   4 -20   6   75.77    4.41
  -4 -20  -6   73.78    5.06
   4 -20   6   73.99    5.01
   4 -20   6   71.91    4.88
  -4 -20  -6   68.89    4.88
  -4 -20  -6   77.42    4.44
   4 -20   6   73.94    4.73
   4 -20  -6   73.74    4.42
   4 -20  -6   74.00    4.79
  -4 -20   6   72.91    4.44
  -4 -20   6   73.56    4.96
  -4 -20   6   82.40    5.11
  -6 -20  -6   50.32    4.33
  -6 -20  -6   61.50    4.60
   6 -20   6   60.68    4.24
   6 -20   6   60.06    3.73
  -6 -20   6   62.33    4.49
  -6 -20   6   64.50    3.97
  -6 -20   6   53.87    4.66
   6 -20  -6   62.47    3.91
   6 -20  -6   57.74    4.28
  -8 -20  -6    0.77    1.74
   8 -20   6   -0.96    1.17
  -8 -20  -6    0.93    1.41
  -8 -20   6   -3.57    1.82
  -8 -20   6    1.52    1.77
   8 -20  -6    0.04    0.82
   8 -20  -6    0.13    1.30
 -10 -20  -6    7.10    2.07
  10  20  -6    0.60    1.73
  10 -20   6    3.79    1.64
  10 -20  -6    4.02    1.78
 -10 -20   6    1.72    2.81
  10 -20  -6    4.81    1.11
  10  20   6    3.40    1.90
  12  20  -6    0.14    1.50
 -12 -20  -6   -3.78    1.95
  12 -20   6    1.01    1.55
 -12 -20   6   -1.53    2.63
  12 -20  -6   -1.11    1.56
  12  20   6   -0.18    2.45
  14  20  -6    0.86    1.53
  14 -20   6    1.97    2.00
  14 -20  -6    1.54    1.66
   0 -22   6    9.98    1.84
   0 -22  -6   10.76    1.80
   0 -22   6    7.90    1.22
   0 -22   6    8.74    1.72
   0 -22  -6    8.69    1.29
   2 -22   6   16.48    1.75
  -2 -22  -6   17.39    2.37
   2 -22   6   16.24    2.14
  -2 -22  -6   17.57    1.80
   2 -22   6   13.62    2.11
  -2 -22   6   16.67    1.81
   2 -22  -6   17.41    2.31
  -2 -22   6   18.56    2.42
   2 -22  -6   15.62    1.72
  -2 -22   6   20.58    2.50
  -4 -22  -6   46.62    3.86
  -4 -22  -6   45.77    4.09
   4 -22   6   51.25    3.36
   4 -22   6   50.93    3.75
  -4 -22  -6   50.25    3.37
   4 -22  -6   52.03    3.41
  -4 -22   6   52.90    3.53
   4 -22  -6   49.12    3.80
  -4 -22   6   50.84    3.97
  -4 -22   6   58.70    4.17
  -6 -22  -6    9.58    1.99
   6 -22   6   13.31    1.59
  -6 -22  -6   10.66    2.38
   6 -22   6   13.68    2.14
   6 -22  -6   14.08    2.20
  -6 -22   6    9.69    2.33
   6 -22  -6   12.25    1.66
  -6 -22   6   13.50    1.83
  -6 -22   6   13.04    2.66
  -8 -22  -6    2.23    1.79
   8 -22   6   -0.37    1.30
  -8 -22  -6    0.87    1.43
   8 -22  -6    0.53    0.95
  -8 -22   6   -4.51    2.14
  -8 -22   6    1.19    1.92
   8 -22  -6    0.08    1.42
 -10 -22  -6    4.14    1.71
  10 -22   6    0.43    1.49
  10  22  -6   -0.08    1.52
 -10 -22   6   -0.82    2.84
  10 -22  -6    0.55    1.56
  10 -22  -6    0.87    1.01
  12  22  -6    0.35    1.46
  12 -22   6    0.33    1.58
  12 -22  -6   -0.63    1.54
   0 -24   6   23.61    2.64
   0 -24  -6   24.53    2.76
   0 -24  -6   24.98    2.19
   0 -24   6   24.81    2.17
   0 -24   6   22.49    2.79
   2 -24   6    8.91    1.37
  -2 -24  -6    6.74    1.30
  -2 -24  -6    8.07    1.97
   2 -24   6    7.66    1.77
   2 -24   6    7.96    1.73
   2 -24  -6   11.82    1.97
  -2 -24   6    7.43    1.28
   2 -24  -6    6.20    1.19
  -2 -24   6    6.41    1.87
  -2 -24   6   10.99    2.15
   4 -24   6    8.77    1.35
   4 -24   6    8.04    1.83
  -4 -24  -6    8.23    2.15
  -4 -24  -6   10.87    1.51
  -4 -24   6   10.55    2.12
  -4 -24   6    9.53    1.62
   4 -24  -6   11.12    2.09
  -4 -24   6    9.05    2.13
   4 -24  -6    7.57    1.37
  -6 -24  -6    8.47    2.27
   6 -24   6   12.16    1.61
   6 -24   6   11.36    2.08
  -6 -24  -6    8.53    1.94
  -6 -24   6   13.17    1.84
   6 -24  -6   11.94    1.66
   6 -24  -6   10.23    2.14
  -6 -24   6   11.85    2.68
  -6 -24   6    9.45    2.37
  -8 -24  -6    1.89    1.59
  -8 -24  -6    1.71    1.97
   8 -24   6    1.30    1.50
   8 -24  -6    2.45    1.69
  -8 -24   6    2.00    2.73
  -8 -24   6    2.82    2.06
   8 -24  -6    1.15    1.03
  10  24  -6    1.29    1.43
 -10 -24  -6    6.68    2.39
  10 -24   6    4.24    1.79
 -10 -24   6    2.98    3.82
  10 -24  -6    4.33    1.80
  10 -24  -6    4.91    1.26
  10  24   6    0.78    1.58
  12 -24   6    1.63    1.83
  12  24  -6    1.25    1.45
  12 -24  -6    2.54    1.76
   0 -26   6   61.78    4.50
   0 -26   6   51.43    4.14
   0 -26  -6   50.08    4.09
   0 -26   6   54.37    3.74
   0 -26  -6   57.19    3.74
   2 -26   6   22.84    2.24
   2 -26   6   21.46    2.70
  -2 -26  -6   22.10    2.34
  -2 -26  -6   25.43    3.07
  -2 -26   6   23.66    3.10
  -2 -26   6   23.03    2.32
   2 -26  -6   21.29    2.20
  -2 -26   6   22.80    2.96
   2 -26  -6   22.71    2.77
   4 -26   6   -0.25    0.82
  -4 -26  -6   -0.09    1.67
  -4 -26  -6   -0.38    1.17
   4 -26   6   -0.99    1.21
  -4 -26   6   -1.41    1.64
   4 -26  -6   -0.29    0.81
   4 -26  -6   -0.09    1.55
  -4 -26   6   -0.56    1.04
  -4 -26   6   -2.59    1.98
  -6 -26  -6    4.44    1.97
   6 -26   6    2.24    1.77
   6 -26   6    3.06    1.14
   6 -26  -6    3.28    1.87
  -6 -26   6    6.41    2.72
  -6 -26   6    1.82    1.32
  -6 -26   6    3.49    2.01
   6 -26  -6    2.70    1.14
  -8 -26  -6    2.70    1.79
   8 -26   6    5.73    1.93
  -8 -26  -6    3.88    2.21
  -8 -26   6    4.07    2.32
   8 -26  -6    5.76    1.98
  -8 -26   6    2.87    2.95
   8 -26  -6    4.00    1.38
  10  26  -6    1.84    1.34
  10 -26   6    5.30    1.72
  10 -26  -6    4.82    1.37
  10 -26  -6    5.78    1.84
   0 -28   6   80.07    4.96
   0 -28   6   74.56    5.43
   0 -28  -6   83.94    5.02
   0 -28  -6   78.48    5.45
   2 -28   6   25.08    3.11
  -2 -28  -6   21.53    3.00
   2 -28   6   29.09    2.59
  -2 -28  -6   29.41    2.73
  -2 -28   6   30.68    3.66
  -2 -28   6   27.15    2.62
   2 -28  -6   29.19    2.65
  -2 -28   6   24.32    3.11
   2 -28  -6   26.61    3.11
   4 -28   6    9.53    1.61
   4 -28   6    7.42    1.94
  -4 -28  -6    7.56    2.24
  -4 -28   6   14.65    3.07
  -4 -28   6    9.64    1.82
   4 -28  -6    8.77    2.24
   4 -28  -6    9.19    1.63
  -4 -28   6    7.59    2.31
  -6 -28  -6    3.66    2.00
   6 -28   6    5.94    1.88
   6 -28   6    7.11    1.46
  -6 -28   6    6.16    1.75
   6 -28  -6    5.37    2.10
  -6 -28   6    6.83    3.12
  -6 -28   6    4.74    2.19
   6 -28  -6    6.80    1.59
   8 -28   6    4.65    1.77
   8 -28  -6    7.38    1.51
   8 -28  -6    6.47    2.07
  -8 -28   6    2.38    2.19
   0 -30   6  101.49    5.95
   0 -30  -6   92.88    6.39
   0 -30  -6   99.67    5.95
   0 -30   6   96.78    6.45
   2 -30   6   12.55    2.45
   2 -30   6   16.92    2.01
  -2 -30  -6   13.35    1.95
  -2 -30  -6    8.88    2.38
  -2 -30   6   13.21    2.69
   2 -30  -6    9.08    2.32
  -2 -30   6   14.85    1.95
   2 -30  -6   14.64    1.90
   4 -30   6    1.28    1.69
  -4 -30  -6    3.78    2.13
   4 -30   6    1.61    1.18
   4 -30  -6    3.75    1.35
  -4 -30   6    4.53    1.48
  -4 -30   6    0.19    2.06
   4 -30  -6    3.66    1.74
  -6 -30  -6   -0.54    1.95
   6 -30   6    0.39    1.16
   6 -30   6    3.18    1.59
   6 -30  -6    1.97    1.71
   6 -30  -6    1.98    1.22
  -6 -30   6    0.17    1.95
  -6 -30   6    4.90    1.48
   0 -32   6   21.87    2.40
   0 -32  -6   12.69    2.67
   0 -32  -6   21.97    2.46
   0 -32   6   20.53    3.10
   2 -32   6    5.88    2.06
   2 -32   6    7.91    1.55
  -2 -32  -6    3.38    1.89
  -2 -32  -6    4.97    1.44
   2 -32  -6    6.40    2.18
   2 -32  -6    4.75    1.45
  -2 -32   6    6.63    1.50
  -2 -32   6    6.57    2.08
   4 -32   6   -1.56    1.03
   4 -32   6    0.83    1.52
   4 -32  -6    0.82    1.14
  -4 -32   6   -2.72    1.84
   4 -32  -6   -1.49    2.29
  -4 -32   6   -0.94    1.24
   1  -1   7   18.13    1.17
  -1   1   7   13.20    1.27
  -1  -1  -7   15.62    1.12
  -1   1   7   13.14    1.07
  -1  -1  -7   16.04    1.52
   1  -1  -7   13.86    1.62
   1   1   7   14.76    1.06
  -1  -1   7   14.31    1.32
  -1   1  -7   15.86    1.18
  -1  -1   7   13.52    1.34
  -1  -1   7   13.07    1.10
   3  -1   7   85.44    4.46
   3  -1   7   89.18    4.42
   3   1  -7   91.11    4.99
  -3   1   7   79.50    4.75
  -3  -1  -7   77.81    4.40
   3   1   7   87.58    4.42
   3  -1  -7   92.43    4.91
   3   1   7   82.14    4.39
   3  -1  -7   80.98    4.85
  -3  -1   7   74.80    4.76
  -3   1  -7   81.04    4.46
  -5  -1  -7  151.32    8.14
   5  -1   7  162.34    8.08
   5  -1   7  155.49    8.14
  -5  -1   7  153.21    8.44
   5  -1  -7  175.29    8.77
   5   1   7  149.42    8.06
  -5   1  -7  155.87    8.19
   5   1   7  158.40    8.06
   7  -1   7   98.61    5.56
   7   1  -7  111.28    6.74
   7   1  -7  103.43    5.69
  -7  -1   7   99.65    5.64
   7  -1  -7   95.88    5.62
   7   1   7  106.06    5.61
   7  -1  -7  108.24    6.78
   9  -1   7    1.20    1.16
   9   1  -7    0.89    1.43
   9  -1   7    2.03    1.00
   9   1  -7   -3.03    2.26
   9   1   7    0.47    0.88
   9   1   7    1.76    1.45
   9  -1  -7   -2.41    2.21
   9  -1  -7   -1.04    1.23
  11   1  -7    3.66    2.91
  11   1  -7    1.51    1.93
  11  -1   7    7.92    1.70
  11   1   7    2.51    1.26
  11   1   7    3.29    1.51
  11  -1  -7    2.46    3.07
  11  -1  -7    1.04    1.79
  13  -1   7    2.69    1.51
  13  -1   7    0.83    1.58
  13   1  -7   -0.36    2.07
  13   1   7    2.06    1.31
  13  -1  -7    0.84    1.98
  13   1   7    1.76    1.64
  15  -1   7    4.41    1.79
  15   1  -7    7.74    2.21
  15  -1   7    7.48    1.69
  15   1   7    2.52    1.80
  15  -1  -7    8.97    2.22
  15   1   7    1.80    1.50
  17   1  -7    3.51    1.94
  17  -1  -7    2.96    1.82
   1  -3   7   37.04    2.39
  -1   3   7   35.44    2.31
   1   3  -7   40.26    2.54
  -1  -3  -7   30.25    2.36
   1  -3   7   39.40    2.23
   1  -3   7   36.81    2.37
  -1   3  -7   39.07    2.26
  -1  -3   7   38.91    2.50
  -1  -3   7   41.38    2.48
  -1  -3   7   38.64    2.19
   1  -3  -7   33.21    2.58
   3   3  -7  114.31    6.02
  -3   3   7   95.41    5.62
  -3   3   7  108.94    5.81
   3  -3   7  109.57    5.49
  -3  -3  -7  109.61    5.41
   3  -3   7  103.97    5.39
   3  -3  -7   98.22    5.81
  -3   3  -7   91.49    5.58
  -5  -3  -7   34.96    2.53
   5  -3   7   39.68    2.46
  -5  -3  -7   40.97    2.60
   5  -3   7   42.20    2.67
   5  -3  -7   44.37    3.10
   5  -3  -7   42.95    3.54
  -5  -3   7   36.69    2.56
  -7  -3  -7   63.73    3.61
   7   3  -7   50.33    3.53
   7  -3   7   58.45    3.49
   7  -3   7   54.08    3.34
   7  -3  -7   50.81    3.42
   7  -3  -7   62.01    4.86
  -7  -3   7   52.04    3.46
   7   3   7   61.19    3.50
   9  -3   7   -1.53    0.82
  -9  -3  -7   -1.20    1.12
   9   3  -7    0.41    1.41
   9  -3   7   -0.61    1.26
   9   3  -7   -1.67    2.31
   9   3   7   -1.44    1.42
   9  -3  -7    0.21    1.16
   9   3   7   -0.54    0.87
   9  -3  -7   -1.71    2.18
  -9  -3   7   -3.35    1.17
  11   3  -7   -0.34    1.99
  11   3  -7    0.10    2.87
  11  -3   7    0.85    1.51
  11  -3   7    2.60    1.27
  11  -3  -7    2.43    3.94
  11   3   7    0.30    1.57
  11  -3  -7   -1.77    1.61
  11   3   7   -0.71    1.11
  13   3  -7   -1.05    2.11
  13  -3   7    0.84    1.59
  13  -3   7    0.99    1.41
  13  -3  -7   -0.23    1.90
  13   3   7    0.50    1.33
  13   3   7   -1.16    1.51
  15   3  -7    4.65    2.17
  15  -3   7    3.46    1.71
  15  -3  -7    6.34    2.15
  15   3   7    1.16    1.53
  17   3  -7    1.07    1.68
  17  -3  -7   -0.82    1.73
   1  -5   7   64.37    3.53
  -1  -5  -7   61.77    3.89
   1  -5   7   63.40    3.76
   1  -5   7   61.75    3.69
   1   5  -7   72.36    3.99
   1  -5   7   62.52    3.55
  -1  -5   7   69.87    3.58
   1  -5  -7   61.73    3.92
  -1  -5   7   68.11    3.92
  -1  -5   7   65.94    3.56
  -3  -5  -7   10.35    1.26
   3  -5   7   13.08    1.15
  -3   5   7    9.29    1.15
   3  -5  -7   10.87    1.47
  -3  -5   7   10.57    1.28
   5   5  -7   35.11    2.46
   5  -5   7   35.37    2.78
   5  -5   7   36.80    2.54
  -5  -5  -7   35.98    2.48
   5  -5   7   34.65    2.30
  -5  -5   7   32.90    2.48
   5  -5  -7   37.01    2.79
  -5  -5   7   37.21    2.64
  -7  -5  -7   -0.73    0.97
   7  -5   7    0.88    0.71
   7  -5   7   -0.82    1.16
   7   5  -7   -1.83    1.08
   7  -5  -7   -0.86    0.86
   7  -5  -7   -0.49    1.61
   7  -5  -7   -0.24    0.57
  -7  -5   7   -0.31    0.98
   9  -5   7   16.24    1.90
   9  -5   7   14.26    1.88
  -9  -5  -7   14.11    1.92
   9   5  -7   14.20    2.03
   9   5   7   16.26    1.96
   9  -5  -7   12.97    2.76
  -9  -5   7   10.43    1.87
  11   5  -7    8.55    2.27
 -11  -5  -7    4.71    1.74
  11  -5   7    2.44    1.70
  11  -5   7    4.50    1.45
  11  -5  -7    1.48    1.74
  11   5   7    4.79    1.43
  11   5   7    6.51    1.81
  13  -5   7    1.31    1.66
  13   5  -7   -1.18    2.14
  13  -5   7    3.92    1.61
  13   5   7    3.30    1.40
  13  -5  -7    0.90    2.01
  13   5   7    0.37    1.61
  15   5  -7   -3.81    1.85
  15  -5   7   -1.09    1.42
  15  -5  -7    3.61    2.06
  15   5   7   -0.14    1.47
  17   5  -7   -0.35    1.63
  17  -5  -7    0.68    1.66
   1  -7   7  132.55    6.80
   1  -7   7  125.34    6.49
  -1  -7  -7  112.92    6.82
   1  -7   7  125.54    6.51
   1   7  -7  131.64    6.94
  -1  -7   7  125.67    6.49
  -1  -7   7  132.12    6.95
   1  -7  -7  112.11    6.83
  -1  -7   7  130.26    6.51
   3  -7   7  109.22    5.90
   3  -7   7  105.20    5.70
   3  -7   7  102.13    5.89
  -3  -7  -7  111.25    5.71
   3  -7   7  109.99    5.79
   3  -7  -7  110.52    5.73
  -3  -7   7  113.44    5.80
   3  -7  -7   92.22    6.11
  -3  -7   7  116.91    5.77
  -5  -7  -7    1.41    0.81
   5  -7   7    1.18    0.98
   5  -7   7    0.57    0.62
   5  -7   7    1.30    0.82
  -5  -7   7    1.99    1.12
   5  -7  -7    1.98    0.93
  -5  -7   7    2.69    0.94
   5  -7  -7    1.72    0.93
   5  -7  -7    0.76    1.26
   7   7  -7    5.58    1.28
   7  -7   7    4.09    1.34
   7  -7   7    5.19    1.08
   7  -7   7    5.64    1.34
  -7  -7  -7    7.39    1.39
   7  -7  -7    5.21    0.87
   7  -7  -7    4.96    1.35
   7  -7  -7    5.73    1.21
   7  -7  -7    7.10    2.15
  -7  -7   7    6.73    1.32
  -7  -7   7    5.76    0.97
   9  -7   7   17.71    2.85
   9  -7   7   33.12    2.61
  -9  -7  -7   25.72    2.68
   9   7  -7   24.22    2.79
   9  -7  -7   19.93    3.33
   9   7   7   28.79    2.62
  -9  -7   7   23.55    2.50
   9  -7  -7   23.76    2.50
  11  -7   7   22.48    2.75
  11  -7   7   16.88    2.26
 -11  -7  -7   20.69    2.56
  11   7   7   25.35    2.58
 -11  -7   7   19.01    2.35
  11  -7  -7   15.07    2.39
  11   7   7   25.46    2.78
  13  -7   7    0.45    1.49
  13   7  -7    0.39    2.25
  13   7   7   -0.41    1.18
  13   7   7   -1.16    1.61
  13  -7  -7   -1.03    1.82
  15   7  -7   -3.04    1.75
  15  -7   7   -3.92    1.47
  15   7   7    0.62    1.41
  15  -7  -7   -1.28    1.70
  17   7  -7    0.13    1.63
  17  -7  -7   -0.33    1.52
   1  -9   7  215.84   11.26
   1  -9   7  240.15   11.65
  -1  -9  -7  238.35   11.16
   1  -9   7  213.42   11.26
  -1  -9   7  215.28   11.22
  -1  -9   7  228.12   11.28
   1  -9  -7  208.33   11.62
   3  -9   7    1.91    0.69
  -3  -9  -7    1.85    0.72
   3  -9   7    1.36    0.74
   3  -9   7    1.52    0.68
  -3  -9   7    2.23    0.95
   3  -9  -7    2.11    0.76
   3  -9  -7    1.24    0.99
  -3  -9   7    1.58    0.85
  -3  -9   7    1.75    0.66
   5  -9   7    0.68    0.64
  -5  -9  -7    1.17    0.83
  -5  -9  -7    1.65    1.05
   5  -9   7    0.93    0.86
   5  -9   7    0.82    0.84
   5  -9  -7    2.04    0.86
   5  -9  -7    0.15    0.87
  -5  -9   7    0.93    1.02
  -5  -9   7    0.45    0.94
  -5  -9   7   -0.24    0.55
   5  -9  -7    0.75    0.48
   5  -9  -7    0.08    1.35
   7  -9   7    0.34    0.99
   7  -9   7    1.51    0.87
  -7  -9  -7    1.41    1.14
   7  -9  -7    2.23    1.24
  -7  -9   7   -1.91    1.11
  -7  -9   7    1.45    1.19
  -7  -9   7    0.95    0.74
   7  -9  -7    0.51    0.99
   9  -9   7   50.14    3.33
   9  -9   7   48.36    3.28
   9   9  -7   42.76    3.62
  -9  -9  -7   40.78    3.47
   9  -9  -7   42.62    4.67
   9   9   7   46.44    3.29
   9  -9  -7   40.17    2.78
  -9  -9   7   38.86    3.61
   9  -9  -7   35.95    3.27
   9  -9  -7   33.33    4.36
  11  -9   7   25.02    2.93
  11  -9   7   31.69    3.03
 -11  -9  -7   32.69    3.34
 -11  -9   7   19.77    2.66
  11  -9  -7   33.81    3.22
 -13  -9  -7   -0.10    1.79
  13   9  -7    0.76    2.15
  13  -9   7    1.39    1.49
  13   9   7   -0.32    1.22
  13  -9  -7    0.23    1.68
  13   9   7    1.13    1.63
  15  -9   7    0.95    1.41
  15   9  -7   -0.96    1.69
  15   9   7    0.77    1.36
  15  -9  -7   -0.03    1.49
  17   9  -7   -0.81    1.44
  17  -9  -7   -4.22    1.63
   1 -11   7  128.16    7.18
   1 -11   7  128.69    7.16
   1 -11   7  141.45    7.13
  -1 -11  -7  147.45    7.10
  -1 -11   7  133.43    7.10
  -1 -11   7  142.46    7.22
  -1 -11   7  136.08    7.00
  -1 -11   7  135.76    7.16
  -3 -11  -7    8.02    1.11
   3 -11   7    6.89    1.12
   3 -11   7   10.71    1.29
   3 -11   7    8.42    1.23
  -3 -11   7    7.49    1.03
   3 -11  -7    8.09    1.50
  -3 -11   7    6.59    0.87
  -3 -11   7    9.01    1.30
  -3 -11   7    8.67    1.33
   3 -11  -7    7.34    0.90
   3 -11  -7    8.69    1.18
   3 -11  -7    8.29    1.12
   5 -11   7    3.58    1.03
   5 -11   7    2.69    0.92
   5 -11   7    2.57    0.62
  -5 -11  -7    2.41    0.93
   5 -11   7    3.10    1.05
  -5 -11  -7    3.98    1.28
  -5 -11   7    2.81    0.95
  -5 -11   7    4.62    1.25
  -5 -11   7    4.60    1.29
   5 -11  -7    2.35    0.65
   5 -11  -7    4.88    1.02
   5 -11  -7    3.00    1.53
   5 -11  -7    3.57    1.10
  -5 -11   7    3.12    0.73
   7 -11   7    2.85    0.95
   7 -11   7    3.36    1.05
  -7 -11  -7    1.24    1.30
  -7 -11  -7    2.32    1.27
   7 -11  -7    1.76    0.72
  -7 -11   7    2.59    1.37
   7 -11  -7    3.43    1.57
  -7 -11   7    2.25    0.85
   7 -11  -7    2.68    1.07
  -7 -11   7    1.45    1.26
   7 -11  -7    1.17    1.97
   9 -11   7   59.33    4.01
   9 -11   7   59.63    3.95
   9  11  -7   63.91    4.38
  -9 -11  -7   69.82    4.46
   9 -11  -7   49.85    5.93
   9  11   7   58.22    4.20
   9 -11  -7   53.23    4.00
   9 -11  -7   67.40    4.73
   9 -11  -7   57.41    3.62
  -9 -11   7   59.70    4.42
  11  11  -7   18.23    2.68
 -11 -11  -7   18.61    2.51
  11 -11   7   10.20    1.76
  11 -11  -7   13.17    2.04
 -11 -11   7   10.06    2.26
  13  11  -7    2.58    1.98
 -13 -11  -7   -1.59    1.79
  13 -11   7    5.16    1.56
 -13 -11   7    0.43    1.73
  13  11   7   -0.21    1.65
  13 -11  -7    1.25    1.54
  13  11   7   -1.29    1.13
  15  11  -7   -1.39    1.42
  15 -11   7    0.51    1.41
  15 -11  -7   -1.36    1.74
  15  11   7   -1.55    1.34
  -1 -13  -7  154.51    7.82
  -1 -13  -7  152.30    7.93
  -1 -13  -7  162.36    7.93
   1 -13   7  147.02    7.98
   1 -13   7  147.38    7.77
   1 -13   7  156.97    7.96
   1 -13   7  143.15    7.99
   1 -13  -7  140.34    7.88
  -1 -13   7  157.42    8.03
   1 -13  -7  145.77    7.82
  -1 -13   7  151.98    7.78
  -1 -13   7  157.80    7.98
  -1 -13   7  158.35    7.94
  -3 -13  -7    4.20    1.00
  -3 -13  -7    3.84    1.19
   3 -13   7    5.56    1.12
   3 -13   7    5.04    0.75
   3 -13   7    4.17    1.01
  -3 -13  -7    4.96    1.26
   3 -13   7    6.64    1.10
  -3 -13   7    5.70    1.02
  -3 -13   7    5.70    0.83
   3 -13  -7    5.83    1.16
  -3 -13   7    4.79    1.20
   3 -13  -7    4.89    0.80
  -3 -13   7    5.08    1.17
   3 -13  -7    5.20    1.01
  -5 -13  -7   -1.60    0.82
   5 -13   7   -0.12    0.35
   5 -13   7    0.64    0.79
   5 -13   7    0.00    0.89
  -5 -13  -7   -0.53    1.08
   5 -13   7    0.73    0.89
   5 -13  -7    0.00    0.87
   5 -13  -7    0.55    0.57
  -5 -13   7    0.44    0.82
  -5 -13   7   -0.49    1.08
  -5 -13   7   -0.12    1.02
   5 -13  -7   -0.29    1.00
  -5 -13   7   -0.49    0.59
   7 -13   7    9.04    1.49
  -7 -13  -7   12.73    1.85
   7 -13   7    8.76    1.47
  -7 -13  -7    9.91    1.83
   7 -13  -7   10.54    1.55
   7 -13  -7   12.31    2.83
   7 -13  -7   16.44    2.27
  -7 -13   7   15.55    2.01
  -7 -13   7   11.57    1.43
  -7 -13   7   10.01    1.98
  -7 -13   7    7.89    1.59
   7 -13  -7    9.52    1.26
   9 -13   7   21.18    2.44
  -9 -13  -7   20.90    2.59
   9  13  -7   25.49    2.80
   9 -13   7   19.67    2.34
   9 -13  -7   15.03    5.58
  -9 -13   7   20.74    2.71
   9 -13  -7   31.19    3.65
   9 -13  -7   20.76    2.63
   9 -13  -7   21.53    2.04
  11 -13   7    7.80    1.54
  11  13  -7   10.00    2.41
 -11 -13  -7   13.98    2.40
 -11 -13   7   12.24    2.45
  11 -13  -7    9.17    1.91
  11  13   7    6.99    2.10
  13  13  -7    1.87    1.97
 -13 -13  -7   -0.29    1.92
  13 -13   7   -0.14    1.24
 -13 -13   7    2.91    1.90
  13  13   7    1.85    1.28
  13 -13  -7    1.30    1.59
  15  13  -7    0.49    1.55
  15 -13   7   -1.22    1.41
  15 -13  -7   -0.15    1.59
   1 -15   7   24.10    2.11
  -1 -15  -7   23.90    2.22
   1 -15   7   24.43    2.19
   1 -15   7   25.71    1.83
  -1 -15  -7   24.97    2.21
   1 -15   7   24.72    2.12
  -1 -15  -7   26.17    1.90
  -1 -15   7   25.68    2.12
   1 -15  -7   31.78    2.01
  -1 -15   7   25.92    2.26
  -1 -15   7   28.46    2.13
  -1 -15   7   25.24    1.82
   3 -15   7   22.15    2.16
   3 -15   7   23.52    2.17
  -3 -15  -7   24.57    2.35
  -3 -15  -7   24.92    2.19
  -3 -15  -7   23.01    1.82
   3 -15   7   25.33    1.83
   3 -15   7   22.42    2.07
   3 -15  -7   27.32    1.91
  -3 -15   7   27.01    2.34
  -3 -15   7   25.19    2.06
  -3 -15   7   23.69    1.82
   3 -15  -7   31.08    2.29
  -3 -15   7   25.26    2.34
  -5 -15  -7   18.93    2.24
   5 -15   7   17.13    1.45
  -5 -15  -7   15.38    1.95
   5 -15   7   17.51    2.00
   5 -15   7   19.51    2.04
   5 -15   7   18.86    2.14
   5 -15  -7   19.81    2.12
   5 -15  -7   16.13    1.91
  -5 -15   7   19.55    2.29
  -5 -15   7   17.59    2.21
  -5 -15   7   16.03    1.68
   5 -15  -7   17.13    1.65
  -5 -15   7   19.89    2.01
   7 -15   7   40.59    3.29
  -7 -15  -7   43.22    3.49
  -7 -15  -7   45.64    3.51
   7 -15   7   42.21    3.26
  -7 -15   7   43.00    3.27
  -7 -15   7   44.25    3.57
   7 -15  -7   42.47    2.93
   7 -15  -7   44.60    3.88
  -7 -15   7   39.85    3.79
  -7 -15   7   44.02    3.06
   7 -15  -7   43.82    3.33
   9 -15   7    7.95    1.57
   9  15  -7    9.70    2.25
  -9 -15  -7    7.97    2.03
   9 -15  -7    7.76    1.19
   9  15   7    9.46    2.04
   9 -15  -7    6.80    1.70
  -9 -15   7    8.80    2.17
 -11 -15  -7   -0.53    1.81
  11  15  -7    1.13    2.13
  11 -15   7    0.57    1.21
  11 -15  -7    1.18    1.45
 -11 -15   7    0.73    2.18
  11  15   7    1.02    1.88
 -13 -15  -7    0.99    2.08
  13  15  -7    0.22    1.66
  13 -15   7    0.56    1.35
  13  15   7    0.82    1.18
  13 -15  -7    0.93    1.60
 -13 -15   7    1.82    2.01
  15 -15   7    0.52    1.65
  15  15  -7    1.36    1.59
  15 -15  -7    1.06    1.57
  -1 -17  -7    1.16    1.13
   1 -17   7    0.99    0.88
   1 -17   7    1.59    0.79
   1 -17   7    1.62    0.59
  -1 -17  -7    1.11    0.61
   1 -17   7    1.39    0.89
  -1 -17   7    1.85    0.95
  -1 -17   7    0.58    0.55
  -1 -17   7    1.75    0.81
  -1 -17   7    0.33    0.93
  -3 -17  -7   14.95    1.58
   3 -17   7   17.58    2.02
  -3 -17  -7   17.19    2.01
   3 -17   7   17.60    2.02
   3 -17   7   17.87    1.89
   3 -17   7   15.85    1.48
  -3 -17  -7   17.45    2.23
  -3 -17   7   18.48    1.90
  -3 -17   7   18.60    2.10
   3 -17  -7   17.16    1.64
  -3 -17   7   17.01    1.56
   3 -17  -7   16.79    2.02
  -3 -17   7   19.32    2.15
   5 -17   7   80.53    5.22
   5 -17   7   80.09    5.32
   5 -17   7   83.68    5.11
   5 -17   7   81.35    4.74
  -5 -17  -7   93.45    5.32
  -5 -17  -7   84.19    5.25
  -5 -17   7   91.48    5.08
   5 -17  -7   78.39    4.84
  -5 -17   7   86.57    5.25
   5 -17  -7   83.30    5.19
  -5 -17   7   87.84    4.87
  -5 -17   7   86.35    5.41
   5 -17  -7   85.55    5.19
  -7 -17  -7   53.95    4.11
   7 -17   7   51.75    4.02
   7 -17   7   53.69    3.95
  -7 -17  -7   52.30    4.19
  -7 -17   7   63.79    3.85
  -7 -17   7   57.99    4.58
   7 -17  -7   58.59    3.69
  -7 -17   7   62.67    4.32
   7 -17  -7   62.01    4.23
   9 -17   7   -0.62    1.10
  -9 -17  -7    0.04    1.60
   9 -17  -7    0.54    1.40
   9 -17  -7    0.07    0.80
  -9 -17   7    0.01    1.53
  -9 -17   7   -0.59    1.77
   9  17   7   -1.12    1.82
  11 -17   7    0.01    1.38
  11  17  -7    2.27    2.03
 -11 -17  -7    0.89    1.89
  11 -17  -7    1.80    1.56
 -11 -17   7    1.52    2.49
  11  17   7    0.54    1.78
  13  17  -7   -0.44    1.54
  13 -17   7   -1.48    1.44
 -13 -17  -7   -1.54    1.97
 -13 -17   7    1.61    2.12
  13 -17  -7    0.78    1.48
  15  17  -7    2.41    1.59
  15 -17  -7    0.48    1.59
  -1 -19  -7    8.40    1.61
   1 -19   7    6.65    1.43
  -1 -19  -7    7.60    1.10
   1 -19   7    6.83    1.10
   1 -19   7    8.88    1.50
   1 -19   7    6.77    1.28
   1 -19  -7    9.31    1.54
   1 -19  -7    7.16    1.08
  -1 -19   7    8.46    1.47
  -1 -19   7    7.75    1.53
  -1 -19   7    7.58    1.12
  -1 -19   7    8.35    1.30
   3 -19   7   40.21    3.23
  -3 -19  -7   36.42    3.07
  -3 -19  -7   38.63    3.29
  -3 -19  -7   38.77    2.70
   3 -19   7   40.93    3.25
   3 -19   7   36.74    2.62
   3 -19   7   39.19    2.97
  -3 -19   7   41.42    3.28
  -3 -19   7   44.39    3.01
  -3 -19   7   39.28    3.25
   3 -19  -7   37.37    2.71
  -3 -19   7   39.64    2.72
   3 -19  -7   39.00    3.12
   5 -19   7  127.72    7.31
   5 -19   7  121.68    7.61
  -5 -19  -7  122.43    7.46
   5 -19   7  124.63    7.45
  -5 -19  -7  136.87    7.51
   5 -19   7  126.28    6.95
   5 -19  -7  131.15    7.40
  -5 -19   7  129.51    7.07
   5 -19  -7  125.77    7.07
  -5 -19   7  134.32    7.48
  -5 -19   7  137.05    7.61
   7 -19   7   21.89    2.69
  -7 -19  -7   21.29    2.69
   7 -19   7   22.45    2.08
  -7 -19  -7   23.58    3.03
  -7 -19   7   25.08    2.56
   7 -19  -7   27.22    2.91
   7 -19  -7   26.88    2.29
  -7 -19   7   22.23    3.00
  -7 -19   7   26.47    3.08
  -9 -19  -7   -1.07    1.53
   9 -19   7    0.65    1.27
  -9 -19   7    0.87    1.68
  -9 -19   7    1.02    2.17
   9 -19  -7    0.02    0.89
   9  19   7    0.16    1.91
   9 -19  -7    0.51    1.43
 -11 -19  -7    1.06    1.94
  11 -19   7    1.15    1.41
  11  19  -7   -2.11    1.69
  11 -19  -7    3.37    1.66
 -11 -19   7    0.84    2.53
  13  19  -7   -0.13    1.50
  13 -19   7    2.53    1.61
  13 -19  -7    1.20    1.73
   1 -21   7    7.64    1.21
  -1 -21  -7    8.48    1.80
   1 -21   7    8.69    1.61
  -1 -21  -7    8.72    1.24
   1 -21   7    7.64    1.64
   1 -21  -7    9.20    1.70
  -1 -21   7    7.86    1.70
  -1 -21   7    7.28    1.22
  -1 -21   7   10.36    1.76
   1 -21  -7    8.05    1.22
  -3 -21  -7   79.64    5.18
  -3 -21  -7   77.49    4.60
   3 -21   7   78.08    4.61
   3 -21   7   77.07    5.05
   3 -21   7   76.35    4.93
  -3 -21   7   81.90    5.22
  -3 -21   7   72.25    5.09
   3 -21  -7   79.40    4.64
  -3 -21   7   78.45    4.62
   3 -21  -7   77.73    5.01
   5 -21   7   38.98    4.94
   5 -21   7   50.36    3.76
  -5 -21  -7   50.05    4.16
   5 -21   7   53.11    3.31
  -5 -21  -7   43.84    3.88
  -5 -21   7   50.58    4.18
   5 -21  -7   49.87    3.88
   5 -21  -7   51.22    3.44
  -5 -21   7   50.87    4.01
  -5 -21   7   54.00    3.50
  -7 -21  -7   12.76    2.19
   7 -21   7   21.29    1.99
   7 -21   7   15.92    2.26
  -7 -21  -7   16.84    2.70
   7 -21  -7   22.45    2.18
   7 -21  -7   20.95    2.60
  -7 -21   7   23.83    2.42
  -7 -21   7   17.48    2.92
  -7 -21   7   20.05    2.78
  -9 -21  -7    5.56    1.86
   9 -21   7    3.87    1.58
   9 -21  -7    4.30    1.21
   9 -21  -7    6.53    1.81
   9  21   7    6.40    2.19
  -9 -21   7    4.96    2.01
  -9 -21   7    3.92    2.70
  11  21  -7   -1.46    1.45
  11 -21   7    1.00    1.42
 -11 -21  -7    0.73    1.84
  11 -21  -7    5.91    1.72
 -11 -21   7    3.00    2.75
  13  21  -7    0.03    1.45
  13 -21   7    1.10    1.54
  13 -21  -7    2.75    1.60
  -1 -23  -7    0.79    1.41
   1 -23   7    1.93    1.18
   1 -23   7    2.36    0.81
   1 -23   7    0.43    1.17
  -1 -23  -7    2.32    0.87
  -1 -23   7    1.65    1.39
  -1 -23   7    1.61    0.84
   1 -23  -7    2.20    1.40
   1 -23  -7    1.17    0.79
  -1 -23   7    1.21    1.41
   3 -23   7   28.39    3.04
   3 -23   7   31.13    2.46
  -3 -23  -7   26.21    3.18
  -3 -23  -7   29.60    2.46
   3 -23   7   28.28    2.80
   3 -23  -7   31.59    3.10
  -3 -23   7   26.03    3.03
  -3 -23   7   30.58    2.53
   3 -23  -7   30.60    2.43
  -3 -23   7   30.98    3.31
  -5 -23  -7   27.78    3.29
   5 -23   7   33.57    3.12
  -5 -23  -7   29.18    3.61
   5 -23   7   34.17    2.64
  -5 -23   7   35.40    2.91
  -5 -23   7   32.98    3.73
   5 -23  -7   35.39    2.80
  -5 -23   7   36.68    3.59
   5 -23  -7   33.86    3.35
  -7 -23  -7    1.85    1.88
   7 -23   7    0.60    0.82
   7 -23   7    1.00    1.32
  -7 -23  -7    1.67    1.33
   7 -23  -7    0.27    0.86
  -7 -23   7    0.32    1.87
  -7 -23   7    2.47    1.29
   7 -23  -7    2.58    1.62
  -7 -23   7   -3.45    2.15
  -9 -23  -7    0.92    1.49
   9 -23   7    1.61    1.58
   9  23   7    0.45    2.55
   9 -23  -7    3.74    1.77
   9 -23  -7    0.68    1.02
  -9 -23   7   -0.15    1.90
  -9 -23   7   -0.30    2.65
  11  23  -7   -1.69    1.34
  11 -23   7    2.74    1.50
  11 -23  -7    1.73    1.63
   1 -25   7   25.41    2.88
  -1 -25  -7   30.73    2.56
   1 -25   7   29.93    2.51
  -1 -25  -7   28.70    3.05
   1 -25   7   27.77    3.28
  -1 -25   7   28.69    2.45
  -1 -25   7   27.10    3.23
   1 -25  -7   32.29    2.55
  -1 -25   7   27.58    3.11
   1 -25  -7   26.97    2.94
   3 -25   7    6.54    1.76
  -3 -25  -7    5.65    1.87
   3 -25   7    7.29    1.30
  -3 -25  -7    8.88    1.48
   3 -25  -7    6.50    1.30
  -3 -25   7    9.70    2.24
   3 -25  -7    8.81    1.95
  -3 -25   7    6.99    1.37
  -3 -25   7    6.25    2.04
   5 -25   7    1.78    0.95
  -5 -25  -7    1.11    1.88
   5 -25   7    0.08    1.32
  -5 -25   7   -2.59    2.32
   5 -25  -7    0.74    1.57
   5 -25  -7    1.25    1.00
  -5 -25   7   -0.17    1.86
  -5 -25   7    1.00    1.17
   7 -25   7    2.88    1.68
   7 -25   7    1.36    0.89
  -7 -25  -7    1.88    1.95
  -7 -25  -7    2.08    1.62
  -7 -25   7    0.95    2.02
  -7 -25   7    1.31    2.53
   7 -25  -7    2.70    1.84
   7 -25  -7    0.88    1.09
  -7 -25   7    2.10    1.39
  -9 -25  -7    8.93    2.19
   9 -25   7    8.40    2.03
  -9 -25   7   11.92    2.66
  -9 -25   7   11.92    3.67
   9 -25  -7   14.01    2.39
  11 -25   7    1.15    1.52
  11  25  -7   -0.31    1.35
  11 -25  -7    1.04    1.75
   1 -27   7   66.62    5.68
   1 -27   7   65.29    4.22
   1 -27   7   56.85    4.56
  -1 -27  -7   71.00    4.31
  -1 -27  -7   60.14    4.71
  -1 -27   7   66.32    4.24
  -1 -27   7   63.32    4.78
  -1 -27   7   66.28    5.24
   1 -27  -7   65.27    4.23
   1 -27  -7   53.95    4.62
  -3 -27  -7    1.46    1.09
   3 -27   7    0.42    1.38
   3 -27   7    0.84    0.90
  -3 -27  -7    1.27    1.76
  -3 -27   7   -0.84    1.58
   3 -27  -7   -0.98    1.56
  -3 -27   7   -0.27    1.99
   3 -27  -7    0.42    0.96
  -3 -27   7    1.16    1.07
  -5 -27  -7    5.26    2.32
   5 -27   7   10.11    2.19
   5 -27   7   16.57    1.97
   5 -27  -7   13.07    2.60
  -5 -27   7   11.07    2.67
   5 -27  -7   13.41    1.87
  -5 -27   7   20.43    3.29
  -5 -27   7   11.66    1.95
   7 -27   7    8.05    2.08
   7 -27   7    8.75    1.50
  -7 -27   7    9.56    2.30
   7 -27  -7    9.29    1.76
  -7 -27   7    8.97    2.51
  -7 -27   7   11.45    3.32
   7 -27  -7    7.43    2.21
   9 -27   7    1.97    1.77
   9 -27  -7    5.83    1.97
   9 -27  -7    7.83    1.48
  -1 -29  -7   69.55    5.49
   1 -29   7   75.53    5.59
  -1 -29  -7   80.58    5.06
   1 -29   7   87.59    5.06
   1 -29  -7   76.17    5.54
  -1 -29   7   85.77    5.08
   1 -29  -7   83.57    5.07
  -1 -29   7   75.59    5.69
  -1 -29   7   73.44    5.82
  -3 -29  -7   -0.59    1.13
   3 -29   7    0.76    1.03
   3 -29   7   -0.75    1.52
  -3 -29  -7    1.63    1.79
   3 -29  -7   -0.66    1.04
   3 -29  -7   -2.23    1.55
  -3 -29   7    0.47    1.15
  -3 -29   7   -8.45    2.60
  -3 -29   7    0.85    1.88
  -5 -29  -7    0.49    1.93
   5 -29   7    3.85    1.68
   5 -29   7    2.37    1.22
  -5 -29   7    3.16    2.12
   5 -29  -7    1.98    1.21
  -5 -29   7    1.45    1.41
   5 -29  -7    2.76    1.81
   7 -29   7    0.47    1.09
   7 -29   7   -1.71    1.42
   7 -29  -7   -1.56    1.72
   7 -29  -7   -0.67    1.03
  -7 -29   7    1.97    2.13
   1 -31   7   35.71    2.98
  -1 -31  -7   32.39    3.00
   1 -31   7   34.09    3.78
   1 -31  -7   28.73    2.93
  -1 -31   7   30.64    3.66
   1 -31  -7   27.12    3.45
  -1 -31   7   35.20    2.98
  -3 -31  -7    1.43    1.97
   3 -31   7    3.01    1.77
   3 -31   7    4.28    1.36
   3 -31  -7    1.86    1.83
  -3 -31   7    3.26    1.29
   3 -31  -7    3.25    1.28
  -3 -31   7    6.09    2.20
   5 -31   7   -0.13    1.06
   5 -31   7   -0.05    1.49
   5 -31  -7    0.64    1.10
  -5 -31   7    2.51    1.35
   5 -31  -7    0.42    1.57
  -5 -31   7    2.62    1.95
   0   0   8   36.57    2.45
   0   0   8   37.77    2.23
   0   0   8   38.96    2.40
   2   0  -8    1.73    0.81
  -2   0   8    2.06    0.73
   2   0  -8    1.45    0.73
   2   0   8    3.10    0.56
  -2   0  -8    3.46    0.84
   2   0   8    2.89    0.60
  -2   0   8    2.29    0.79
  -2   0  -8    2.49    0.58
   4   0   8    1.23    0.60
   4   0   8    1.18    0.63
   4   0  -8    1.59    1.16
  -4   0  -8    0.23    0.59
  -6   0   8  347.05   17.34
   6   0  -8  377.56   18.07
   6   0  -8  330.62   17.27
   6   0   8  336.64   17.31
   8   0   8    5.19    1.12
   8   0  -8   10.31    1.54
  10   0  -8    4.83    1.66
  10   0  -8    7.10    2.87
  12   0  -8   -1.30    1.95
  12   0   8    1.11    1.14
  12   0   8    3.16    1.52
  14   0  -8    3.76    2.13
  14   0   8    1.51    1.42
  16   0  -8    7.16    2.10
   0  -2   8  101.42    5.67
   0   2  -8  110.01    5.46
   0  -2  -8  109.78    5.77
   0  -2   8  107.65    5.60
   0   2   8   93.94    5.33
   0  -2   8  104.88    5.43
  -2   2   8   21.28    1.82
  -2  -2  -8   22.56    1.53
   2  -2   8   21.93    1.52
  -2  -2  -8   21.60    1.94
  -2   2   8   20.75    1.79
   2  -2   8   21.99    1.63
   2   2  -8   23.38    1.97
   2  -2   8   27.62    1.96
   2   2   8   23.30    1.53
  -2   2  -8   23.02    1.63
  -2  -2   8   23.49    1.96
   2   2   8   22.08    1.52
  -2  -2   8   21.67    1.90
   2  -2  -8   23.03    2.10
   4  -2   8  177.51    8.67
   4  -2   8  175.31    8.56
  -4  -2  -8  157.05    8.53
  -4  -2   8  146.69    8.51
   4   2   8  182.90    8.57
  -4   2  -8  158.00    8.63
   4   2   8  160.88    8.49
   4  -2  -8  171.64    9.07
   4  -2  -8  185.81    9.13
   6  -2   8   77.41    4.31
   6   2  -8   65.97    4.36
  -6  -2  -8   82.56    4.39
  -6  -2   8   77.64    4.34
   6   2   8   81.20    4.36
   6  -2  -8   71.84    4.30
   6  -2  -8   88.13    5.49
   8  -2   8   47.16    3.01
  -8  -2   8   40.46    3.58
   8   2   8   45.13    3.02
   8  -2  -8   45.65    3.09
  10  -2   8    6.28    1.55
  10   2  -8    5.23    1.83
  10   2  -8    2.65    2.60
  10  -2   8    6.81    1.40
  10  -2  -8    6.71    2.74
  10  -2  -8    2.63    1.55
  10   2   8    4.93    1.24
  12   2  -8   -1.54    2.05
  12  -2   8    0.05    1.53
  12  -2   8   -0.28    1.20
  12   2   8   -1.24    1.13
  12   2   8    1.10    1.43
  12  -2  -8   -2.30    1.73
  14  -2   8    0.88    2.08
  14  -2   8    4.06    1.51
  14   2  -8   -0.79    1.99
  14  -2  -8    1.83    1.90
  14   2   8    2.38    1.41
  16   2  -8    0.75    1.84
  16  -2  -8    6.85    2.06
  16   2   8    1.81    1.59
   0  -4   8   45.77    2.61
   0  -4   8   45.61    2.85
   0  -4   8   46.93    2.66
   0  -4   8   45.26    2.93
   2  -4   8    9.47    1.16
   2  -4   8   10.40    1.44
   2  -4   8    9.67    1.01
  -2   4   8   10.04    1.20
  -2  -4   8    8.30    1.01
   2  -4  -8   10.12    1.53
  -2  -4   8    9.36    1.34
  -2  -4   8    8.98    1.10
   4  -4   8   51.08    3.26
  -4  -4  -8   41.63    2.80
   4  -4   8   47.61    2.80
   4  -4   8   51.24    3.01
  -4  -4   8   44.19    2.88
  -6  -4  -8   31.98    2.38
   6  -4   8   32.81    2.21
   6   4  -8   26.06    2.40
   6  -4  -8   32.01    2.08
   6  -4  -8   34.29    3.67
  -6  -4   8   33.31    2.36
   6  -4  -8   33.10    2.31
   8   4  -8    4.08    1.39
   8  -4   8    2.26    0.98
  -8  -4  -8    4.21    1.28
   8  -4   8    4.78    1.37
  -8  -4   8   -0.61    1.24
  -8  -4   8    2.48    0.87
   8  -4  -8    1.02    2.11
   8  -4  -8    1.30    1.04
   8   4   8    1.01    0.93
  10  -4   8    1.80    1.15
  10  -4   8    1.67    1.49
  10   4  -8    5.57    1.96
  10  -4  -8    0.48    1.37
  10   4   8    2.29    1.10
  10  -4  -8   -0.22    2.62
  10   4   8   -0.14    1.63
  12   4  -8    2.04    2.27
  12  -4   8    2.12    1.34
  12  -4   8   -0.43    1.56
  12   4   8    3.19    1.28
  12  -4  -8    1.65    1.81
  12   4   8   -0.06    1.52
  14   4  -8    0.31    2.14
  14  -4   8   -0.48    1.55
  14  -4   8    3.06    1.63
  14  -4  -8    0.68    1.95
  14   4   8    0.48    1.36
  16   4  -8    1.90    1.86
  16  -4  -8    3.88    1.98
  16   4   8    1.56    2.42
   0  -6   8   16.16    1.42
   0  -6   8   18.83    1.41
   0  -6  -8   17.32    1.88
   0  -6   8   18.05    1.76
   0  -6   8   18.85    1.80
  -2   6   8   66.44    4.04
  -2  -6  -8   75.59    4.42
   2  -6   8   73.25    4.00
   2  -6   8   67.83    4.15
   2  -6   8   71.90    4.19
   2  -6   8   72.08    3.92
  -2  -6   8   71.92    3.94
  -2  -6   8   71.94    3.95
  -2  -6   8   77.35    4.48
   2  -6  -8   66.99    4.34
  -4  -6  -8   27.58    2.05
   4  -6   8   29.88    2.51
   4  -6   8   30.50    2.23
   4  -6   8   27.38    1.97
   4  -6  -8   21.59    2.59
  -4  -6   8   30.23    2.20
   6   6  -8    1.81    1.04
   6  -6   8    1.64    0.77
   6  -6   8    2.14    1.14
  -6  -6  -8    0.90    0.96
   6  -6  -8    0.59    0.63
  -6  -6   8    1.81    0.98
  -6  -6   8    2.26    0.70
   6  -6  -8    0.96    1.46
   6  -6  -8    0.86    1.09
   8  -6   8    4.20    1.11
   8  -6   8    2.40    1.29
   8   6  -8    2.91    1.36
   8  -6   8    4.81    1.41
  -8  -6   8    2.45    1.31
   8  -6  -8    5.08    2.30
  -8  -6   8    3.61    0.96
   8  -6  -8    2.82    1.20
   8  -6  -8    3.76    0.83
  10  -6   8   16.57    2.11
  10  -6   8   22.48    2.47
  10   6  -8   18.11    2.52
 -10  -6  -8   20.87    2.41
  10  -6  -8   11.12    2.05
  10   6   8   12.63    1.88
  10   6   8   17.22    2.21
 -10  -6   8   21.82    2.60
  10  -6  -8   15.98    3.44
  12   6  -8    7.97    2.43
  12  -6   8    4.89    1.69
  12  -6   8    3.28    1.67
  12   6   8    0.62    1.58
  12   6   8    4.47    1.46
  12  -6  -8    3.34    1.93
  14   6  -8   -3.59    2.00
  14  -6   8    1.53    1.60
  14  -6  -8   -1.34    1.82
  14   6   8    2.41    1.38
  16   6  -8   -1.18    1.72
  16  -6  -8    0.25    1.76
   0  -8  -8  206.37   11.12
   0  -8   8  223.42   11.13
   0  -8   8  214.04   10.69
   0  -8   8  200.29   10.67
  -2  -8  -8   79.03    4.18
   2  -8   8   78.36    4.32
   2  -8   8   81.37    4.59
   2  -8   8   73.18    4.24
  -2  -8  -8   70.82    4.69
   2  -8  -8   73.80    4.74
  -2  -8   8   82.18    4.31
  -2  -8   8   77.49    4.26
  -4  -8  -8    2.01    0.78
   4  -8   8    1.61    0.66
   4  -8   8    1.67    0.67
   4  -8   8    1.76    0.85
  -4  -8   8    1.42    0.88
   4  -8  -8    1.20    0.47
  -4  -8   8    2.61    1.06
   4  -8  -8    0.53    1.05
   4  -8  -8    1.04    0.78
   6  -8   8    1.65    0.95
   6  -8   8   -0.17    0.71
  -6  -8  -8   -1.14    0.79
   6  -8   8    0.52    1.52
   6  -8   8   -0.04    1.01
   6  -8  -8    0.09    0.53
  -6  -8   8    0.75    1.06
   6  -8  -8   -0.14    1.57
  -6  -8   8   -0.47    0.61
  -6  -8   8   -0.08    1.11
  -8  -8  -8    5.52    1.62
   8  -8   8    6.09    1.26
   8   8  -8    5.30    1.59
   8  -8   8    4.46    1.45
   8  -8   8    4.82    1.36
  -8  -8   8    6.42    1.04
   8  -8  -8   13.54    2.75
  -8  -8   8    6.57    1.55
 -10  -8  -8   40.79    3.59
  10   8  -8   51.15    3.97
  10  -8   8   43.23    3.44
  10  -8   8   47.57    3.57
  10  -8  -8   39.19    3.54
 -10  -8   8   39.27    3.75
  10   8   8   47.08    3.50
  12   8  -8    9.23    2.43
  12  -8   8    7.05    1.70
 -12  -8  -8    7.46    1.91
  12  -8   8    3.28    1.62
  12   8   8    3.54    1.47
  12  -8  -8    3.25    1.91
  14  -8   8   -3.15    1.42
  14   8  -8   -3.39    1.89
  14  -8  -8   -1.72    1.70
  14   8   8    0.05    1.22
  16   8  -8   -3.15    1.58
  16  -8  -8    2.68    1.76
   0 -10  -8  416.54   22.48
   0 -10   8  427.36   22.07
   0 -10   8  475.58   22.66
   0 -10   8  464.76   22.12
  -2 -10  -8   39.30    2.43
   2 -10   8   39.42    2.84
  -2 -10  -8   34.26    3.04
   2 -10   8   38.41    2.57
   2 -10   8   38.95    2.56
   2 -10  -8   37.99    3.09
  -2 -10   8   37.91    2.28
  -2 -10   8   40.17    2.57
   2 -10  -8   36.75    2.30
  -2 -10   8   40.86    2.55
  -2 -10   8   40.82    2.61
  -4 -10  -8    0.90    0.70
   4 -10   8    0.26    0.66
   4 -10   8    1.10    0.78
   4 -10   8    0.85    0.80
   4 -10  -8    1.44    0.82
  -4 -10   8    1.09    1.02
  -4 -10   8    0.09    0.70
  -4 -10   8   -0.28    0.93
   4 -10  -8    0.60    0.75
  -4 -10   8    0.96    0.55
   4 -10  -8    0.84    0.41
   4 -10  -8    1.75    1.24
   6 -10   8   51.32    3.35
   6 -10   8   46.19    3.69
  -6 -10  -8   51.28    3.53
   6 -10   8   55.89    3.34
  -6 -10   8   55.60    3.52
   6 -10  -8   50.45    3.32
   6 -10  -8   49.73    3.08
  -6 -10   8   52.54    3.64
  -6 -10   8   48.78    3.07
   6 -10  -8   53.84    3.71
   6 -10  -8   54.41    4.83
  -8 -10  -8   32.33    2.98
   8  10  -8   29.03    2.74
   8 -10   8   32.18    2.54
   8 -10   8   29.58    2.57
  -8 -10   8   29.85    2.35
  -8 -10   8   29.42    2.99
   8 -10  -8   40.67    5.17
   8  10   8   22.09    2.68
 -10 -10  -8   40.68    3.55
  10 -10   8   36.96    3.12
  10  10  -8   41.20    3.78
  10 -10   8   40.51    3.28
  10 -10  -8   36.54    2.71
 -10 -10   8   30.44    3.72
  10 -10  -8   33.95    3.29
  10  10   8   41.69    3.43
  12  10  -8   10.97    2.37
  12 -10   8    7.16    1.58
 -12 -10  -8    4.74    1.97
 -12 -10   8    6.96    1.88
  12  10   8    3.68    1.49
  12 -10  -8    6.71    1.87
  14  10  -8   -2.43    1.66
  14 -10   8    1.44    1.43
  14 -10  -8   -0.28    1.47
  14  10   8   -0.28    1.25
  16  10  -8   -0.56    1.43
  16 -10  -8   -3.47    1.67
   0 -12   8  422.34   20.91
   0 -12   8  413.44   20.89
   0 -12   8  422.54   20.70
   0 -12   8  424.79   20.78
   0 -12  -8  413.22   20.73
   2 -12   8   66.49    3.68
   2 -12   8   61.06    3.45
   2 -12   8   61.52    3.75
   2 -12   8   58.15    3.75
  -2 -12  -8   64.49    3.66
   2 -12   8   62.29    4.09
   2 -12  -8   60.81    3.53
  -2 -12   8   67.42    3.81
   2 -12  -8   58.38    3.66
   2 -12  -8   56.45    4.20
  -2 -12   8   66.30    3.74
  -2 -12   8   63.11    3.47
  -2 -12   8   64.17    3.69
   4 -12   8    4.84    1.04
   4 -12   8    4.55    1.03
   4 -12   8    3.04    0.58
  -4 -12  -8    2.68    0.95
   4 -12   8    3.97    1.05
  -4 -12   8    5.02    1.22
   4 -12  -8    6.59    1.25
   4 -12  -8    4.46    1.01
  -4 -12   8    3.53    0.74
  -4 -12   8    3.76    0.98
  -4 -12   8    3.49    1.11
   4 -12  -8    3.97    0.71
  -6 -12  -8   11.98    1.65
  -6 -12  -8    8.20    1.46
   6 -12   8    7.42    1.27
   6 -12   8   10.53    1.46
   6 -12   8    9.39    1.58
   6 -12  -8    9.11    1.13
  -6 -12   8    9.78    1.57
  -6 -12   8    9.48    1.70
   6 -12  -8    9.18    2.36
   6 -12  -8   12.36    1.79
   6 -12  -8    9.69    1.42
  -6 -12   8    8.40    1.46
  -6 -12   8    9.05    1.19
   8  12  -8    8.14    1.87
   8 -12   8    6.75    1.34
   8 -12   8    4.82    1.30
  -8 -12  -8    8.77    1.68
   8 -12  -8    5.21    1.02
   8 -12  -8    2.93    2.66
   8 -12  -8    9.30    1.82
  -8 -12   8    9.24    1.33
  -8 -12   8   11.02    1.95
   8 -12  -8    3.34    1.42
  10 -12   8   31.45    2.94
 -10 -12  -8   36.07    3.48
  10 -12   8   30.14    3.01
  10  12  -8   39.75    3.76
  10 -12  -8   35.57    3.20
  10 -12  -8   35.05    2.65
 -10 -12   8   33.64    3.78
 -12 -12  -8    0.79    1.88
  12  12  -8    6.62    2.23
  12 -12   8    3.32    1.35
 -12 -12   8    1.02    1.92
  12  12   8    3.83    1.39
  12 -12  -8    5.47    1.84
  14  12  -8    0.58    1.72
  14 -12   8    0.28    1.39
  14  12   8    0.35    1.25
  14 -12  -8   -0.39    1.58
  16  12  -8   -0.93    1.48
  16 -12  -8    0.33    1.51
   0 -14   8  213.52   10.74
   0 -14   8  201.00   10.59
   0 -14   8  204.94   10.70
   0 -14  -8  199.73   10.59
   0 -14  -8  210.55   10.52
   0 -14   8  209.95   10.48
  -2 -14  -8   41.73    2.81
   2 -14   8   42.11    2.85
   2 -14   8   42.27    2.58
   2 -14   8   39.11    2.88
   2 -14   8   39.22    2.91
  -2 -14  -8   43.24    2.63
   2 -14  -8   45.52    2.70
  -2 -14   8   41.40    2.86
  -2 -14   8   43.86    2.92
  -2 -14   8   40.74    2.56
  -2 -14   8   44.56    3.00
   2 -14  -8   44.47    2.91
  -4 -14  -8   -0.86    0.74
   4 -14   8   -0.07    0.72
   4 -14   8   -0.16    0.40
   4 -14   8    0.13    0.83
   4 -14  -8    0.26    0.51
  -4 -14   8   -0.32    0.95
  -4 -14   8   -0.02    0.99
  -4 -14   8   -0.21    0.72
   4 -14  -8   -0.18    0.87
   4 -14  -8   -1.41    0.77
  -4 -14   8    0.42    0.56
  -6 -14  -8   21.32    2.30
   6 -14   8   17.73    1.81
  -6 -14  -8   17.23    2.18
   6 -14   8   18.74    2.09
   6 -14   8   15.78    2.13
   6 -14   8   15.08    1.88
  -6 -14   8   20.56    2.31
   6 -14  -8   16.52    1.67
  -6 -14   8   18.61    2.24
   6 -14  -8   18.87    2.31
   6 -14  -8   14.67    1.82
  -6 -14   8   17.27    1.75
  -6 -14   8   21.13    2.17
   8 -14   8    3.25    1.22
   8 -14   8    3.48    1.22
  -8 -14  -8    4.99    1.65
   8 -14  -8    2.72    2.64
   8 -14  -8    3.02    0.92
  -8 -14   8    1.38    1.38
   8 -14  -8    4.25    1.38
  -8 -14   8    6.60    1.34
  -8 -14   8    6.06    1.82
  -8 -14   8    5.09    1.73
   8 -14  -8    6.28    1.73
  10  14  -8   10.69    2.49
 -10 -14  -8   11.54    2.22
  10 -14   8    8.33    1.52
 -10 -14   8    9.47    2.34
  10  14   8    2.21    3.03
 -12 -14  -8   -2.53    1.82
  12  14  -8    2.27    1.91
  12 -14   8    1.61    1.26
 -12 -14   8   -1.41    2.03
  12 -14  -8    1.61    1.58
  14  14  -8    1.77    1.71
  14 -14   8    1.03    1.42
  14 -14  -8    0.51    1.57
  14  14   8   -0.49    1.27
   0 -16  -8   -0.05    0.93
   0 -16   8   -0.44    0.67
   0 -16   8    0.25    0.68
   0 -16   8    0.58    0.80
   0 -16   8    0.69    0.49
   0 -16  -8    0.01    0.56
  -2 -16  -8   10.06    1.20
  -2 -16  -8   11.44    1.62
  -2 -16  -8   10.73    1.43
   2 -16   8   10.10    1.16
   2 -16   8   10.39    1.49
   2 -16   8   10.55    1.47
   2 -16   8   10.72    1.54
  -2 -16   8    9.92    1.19
   2 -16  -8   16.48    1.77
  -2 -16   8   12.21    1.63
  -2 -16   8    9.10    1.32
   2 -16  -8   12.69    1.33
  -2 -16   8    9.97    1.57
  -4 -16  -8   41.96    3.10
   4 -16   8   43.74    3.03
   4 -16   8   40.86    2.65
   4 -16   8   44.40    3.16
  -4 -16  -8   38.83    3.24
   4 -16   8   38.51    3.17
  -4 -16   8   41.68    2.74
  -4 -16   8   45.12    2.97
  -4 -16   8   42.45    3.10
   4 -16  -8   40.28    2.73
  -4 -16   8   47.31    3.36
   4 -16  -8   38.80    3.05
   6 -16   8   29.51    2.82
   6 -16   8   31.15    3.33
   6 -16   8   31.96    2.22
   6 -16   8   33.59    2.79
  -6 -16  -8   32.33    2.91
  -6 -16  -8   27.59    2.93
   6 -16  -8   38.22    3.19
   6 -16  -8   31.40    2.93
  -6 -16   8   33.37    2.56
  -6 -16   8   35.28    2.85
   6 -16  -8   32.43    2.46
  -6 -16   8   34.30    3.00
  -6 -16   8   32.43    3.17
   8 -16   8   12.48    1.82
   8 -16   8   14.31    1.99
  -8 -16  -8   18.34    2.37
  -8 -16  -8   16.56    2.38
   8 -16  -8   19.24    1.98
  -8 -16   8   18.04    2.49
   8 -16  -8   16.70    2.15
  -8 -16   8   21.09    2.35
  -8 -16   8   19.52    2.56
  10 -16   8    1.73    1.36
 -10 -16  -8    1.77    1.72
  10  16  -8    0.61    2.03
  10 -16  -8    4.21    1.55
  10 -16  -8    3.24    1.07
 -10 -16   8    4.05    2.23
  12 -16   8   -0.88    1.32
  12  16  -8   -0.37    1.64
 -12 -16  -8   -2.31    1.82
 -12 -16   8   -1.67    2.32
  12 -16  -8   -1.17    1.52
  14 -16   8    0.38    1.58
  14  16  -8    2.04    1.65
  14 -16  -8    1.89    1.62
   0 -18   8   20.55    1.75
   0 -18   8   19.11    2.31
   0 -18   8   23.39    2.11
   0 -18   8   22.04    2.05
   0 -18  -8   25.43    2.34
   0 -18  -8   19.89    1.80
  -2 -18  -8    4.51    1.41
   2 -18   8    5.13    0.93
   2 -18   8    4.45    1.21
   2 -18   8    5.74    1.26
   2 -18   8    4.72    1.25
  -2 -18  -8    3.66    0.86
  -2 -18   8    3.67    1.22
   2 -18  -8    7.22    1.27
  -2 -18   8    3.86    1.04
  -2 -18   8    3.42    0.83
  -2 -18   8    3.48    1.25
   4 -18   8   61.97    4.12
   4 -18   8   64.79    4.33
  -4 -18  -8   60.92    4.42
  -4 -18  -8   61.62    4.23
   4 -18   8   64.41    4.38
   4 -18   8   63.09    3.79
   4 -18  -8   61.85    4.20
  -4 -18   8   69.10    4.22
  -4 -18   8   67.82    4.44
  -4 -18   8   65.35    4.25
   4 -18  -8   63.70    3.90
  -4 -18   8   65.73    3.86
  -6 -18  -8   96.71    6.07
   6 -18   8   99.50    6.04
   6 -18   8   96.12    7.26
   6 -18   8   97.19    6.12
  -6 -18  -8   94.99    6.13
   6 -18   8  100.14    5.58
   6 -18  -8  104.53    6.20
  -6 -18   8  106.24    6.41
  -6 -18   8  111.83    5.83
   6 -18  -8   97.01    5.77
  -6 -18   8  107.03    6.26
  -8 -18  -8   -1.46    1.78
  -8 -18  -8   -0.30    1.35
   8 -18   8    0.68    1.23
  -8 -18   8    1.98    1.23
  -8 -18   8    1.28    1.68
  -8 -18   8    1.12    1.72
   8 -18  -8    1.55    1.39
   8 -18  -8    1.08    0.89
 -10 -18  -8    5.56    2.00
  10  18  -8    7.08    2.02
  10 -18   8    5.55    1.62
  10 -18  -8    6.35    1.26
 -10 -18   8    4.61    2.56
  10 -18  -8    5.22    1.73
 -12 -18  -8    0.51    1.84
  12  18  -8   -0.38    1.52
  12 -18   8    0.94    1.48
 -12 -18   8   -3.38    2.52
  12 -18  -8    0.93    1.46
  14 -18   8    3.91    1.85
  14  18  -8    1.31    1.58
  14 -18  -8    2.33    1.70
   0 -20   8   38.97    3.24
   0 -20   8   39.35    3.05
   0 -20   8   35.99    3.00
   0 -20  -8   39.67    2.73
   0 -20  -8   38.71    3.13
   0 -20   8   42.11    2.74
  -2 -20  -8    5.09    1.55
   2 -20   8    6.12    1.10
   2 -20   8    5.18    1.39
   2 -20   8    6.18    1.39
   2 -20   8    6.08    1.42
  -2 -20  -8    4.36    1.03
  -2 -20   8    4.63    1.51
  -2 -20   8    5.39    1.31
   2 -20  -8    5.97    1.47
  -2 -20   8    6.42    1.59
   2 -20  -8    5.46    1.04
  -2 -20   8    5.67    1.06
   4 -20   8   84.48    5.74
  -4 -20  -8   92.93    5.75
  -4 -20  -8   92.10    5.89
   4 -20   8   93.29    5.64
   4 -20   8   93.13    5.30
  -4 -20   8   93.33    5.37
   4 -20  -8   95.64    5.40
  -4 -20   8   94.43    5.77
  -4 -20   8  101.44    5.94
   4 -20  -8   90.26    5.72
   6 -20   8   57.58    3.42
   6 -20   8   44.52    3.93
  -6 -20  -8   48.61    3.88
  -6 -20  -8   53.68    4.23
   6 -20   8   50.70    3.88
  -6 -20   8   55.57    4.47
   6 -20  -8   57.52    4.13
  -6 -20   8   51.46    4.19
   6 -20  -8   54.92    3.61
  -6 -20   8   53.01    3.68
  -8 -20  -8   -1.04    1.35
   8 -20   8    0.02    1.19
  -8 -20  -8   -0.53    2.94
  -8 -20   8    0.56    1.77
   8 -20  -8   -0.41    1.38
  -8 -20   8   -4.80    1.90
  -8 -20   8    0.58    1.23
   8 -20  -8    1.45    0.92
  10  20  -8    2.36    1.61
  10 -20   8    0.78    1.31
 -10 -20  -8   -0.15    1.61
  10 -20  -8   -1.17    1.54
  10 -20  -8    0.53    1.02
 -10 -20   8   -4.27    2.43
 -12 -20  -8   -0.51    3.22
  12  20  -8   -1.14    1.45
  12 -20   8    0.28    1.55
  12 -20  -8   -0.38    1.67
   0 -22  -8    6.20    1.15
   0 -22   8    8.05    1.77
   0 -22   8    7.25    1.19
   0 -22   8    6.29    1.67
   0 -22  -8    8.39    1.74
  -2 -22  -8    4.57    1.70
  -2 -22  -8    7.59    1.23
   2 -22   8    6.36    1.50
   2 -22   8    6.41    1.59
   2 -22   8    6.69    1.16
   2 -22  -8    4.70    1.06
   2 -22  -8    6.02    1.70
  -2 -22   8    5.47    1.15
  -2 -22   8    6.72    1.82
  -2 -22   8    8.69    1.82
   4 -22   8   41.94    3.61
  -4 -22  -8   39.44    3.90
   4 -22   8   43.84    3.55
   4 -22   8   45.92    3.17
   4 -22  -8   50.51    3.78
   4 -22  -8   51.82    3.32
  -4 -22   8   48.31    3.99
  -4 -22   8   47.41    3.26
  -4 -22   8   42.79    3.73
   6 -22   8   29.47    3.05
  -6 -22  -8   29.22    3.18
   6 -22   8   37.48    2.64
  -6 -22  -8   33.45    3.55
  -6 -22   8   30.34    3.67
   6 -22  -8   34.16    2.79
   6 -22  -8   34.34    3.40
  -6 -22   8   35.92    2.96
  -6 -22   8   33.91    3.52
  -8 -22  -8   -0.55    1.44
   8 -22   8    0.95    1.32
   8 -22  -8    2.52    1.01
  -8 -22   8    2.28    1.86
  -8 -22   8    1.04    2.34
   8 -22  -8    1.51    1.65
 -10 -22  -8    0.56    1.60
  10  22  -8    1.79    1.44
  10 -22   8    3.21    1.56
 -10 -22   8    1.20    2.83
  10 -22  -8    2.31    1.77
  10 -22  -8    1.76    1.13
  12  22  -8    1.73    1.50
  12 -22   8    2.27    1.53
  12 -22  -8    1.33    1.69
   0 -24   8    3.12    0.97
   0 -24  -8    2.68    0.91
   0 -24   8    2.87    1.50
   0 -24   8    3.49    1.52
   0 -24  -8    3.90    1.53
   2 -24   8   18.87    2.35
  -2 -24  -8   16.03    2.43
   2 -24   8   14.93    2.31
  -2 -24  -8   18.14    2.01
   2 -24   8   19.50    1.98
  -2 -24   8   16.42    1.95
   2 -24  -8   14.98    1.84
   2 -24  -8   20.59    2.50
  -2 -24   8   18.43    2.64
  -2 -24   8   17.03    2.50
   4 -24   8   12.43    1.58
  -4 -24  -8   12.88    2.42
   4 -24   8   10.30    1.97
  -4 -24   8   13.67    1.82
   4 -24  -8   15.01    2.40
  -4 -24   8   12.31    2.45
   4 -24  -8   12.60    1.68
  -4 -24   8   12.63    2.36
   6 -24   8    0.43    0.76
  -6 -24  -8    0.45    1.78
   6 -24   8   -0.22    1.26
   6 -24  -8   -0.16    1.56
  -6 -24   8   -2.10    1.10
   6 -24  -8    0.18    0.90
  -6 -24   8    0.96    1.68
  -6 -24   8   -2.52    2.19
   8 -24   8   16.50    2.55
  -8 -24  -8   15.82    2.32
  -8 -24   8   23.61    3.23
  -8 -24   8   23.68    3.65
   8 -24  -8   20.60    2.84
   8 -24  -8   28.56    2.53
  10 -24   8    1.45    1.48
  10  24  -8    1.46    1.34
  10 -24  -8    0.97    1.62
  10 -24  -8    1.82    1.20
   0 -26   8   50.16    4.02
   0 -26   8   48.33    3.43
   0 -26  -8   49.83    3.50
   0 -26   8   51.61    4.37
   0 -26  -8   41.60    3.83
   2 -26   8   12.34    2.32
  -2 -26  -8   12.11    1.71
  -2 -26  -8   11.62    2.31
   2 -26   8   10.44    1.56
   2 -26   8   10.35    2.17
  -2 -26   8   15.46    2.79
  -2 -26   8   12.87    2.38
   2 -26  -8   15.39    2.44
   2 -26  -8   12.12    1.68
  -2 -26   8   13.00    1.73
   4 -26   8    7.54    1.96
  -4 -26  -8    5.37    2.05
   4 -26   8    8.44    1.41
   4 -26  -8    5.49    1.99
  -4 -26   8    7.17    2.07
  -4 -26   8    7.74    1.50
   4 -26  -8    6.85    1.41
  -4 -26   8    9.13    2.72
   6 -26   8    6.89    1.38
   6 -26   8    3.62    1.74
  -6 -26   8    4.83    2.18
   6 -26  -8    3.10    1.96
   6 -26  -8    5.06    1.34
  -6 -26   8    6.08    1.57
  -6 -26   8    9.55    2.79
   8 -26   8    8.01    2.19
   8 -26  -8    9.47    1.65
  -8 -26   8   13.71    4.07
   8 -26  -8    7.62    2.19
  -8 -26   8    9.76    2.64
  10 -26   8    5.23    1.79
  10  26  -8    2.49    1.40
  10 -26  -8    6.07    1.43
  10 -26  -8    8.35    2.15
   0 -28  -8  100.87    6.61
   0 -28   8  100.95    7.07
   0 -28   8  104.53    6.73
   0 -28   8  109.26    6.21
   0 -28  -8  103.17    6.19
   2 -28   8    8.50    1.49
  -2 -28  -8    6.56    2.16
  -2 -28  -8   11.86    1.77
   2 -28   8    7.95    2.10
   2 -28  -8    8.82    1.63
   2 -28  -8   11.87    2.45
  -2 -28   8   11.82    2.67
  -2 -28   8   11.22    2.50
  -2 -28   8    8.27    1.63
  -4 -28  -8    6.61    2.24
   4 -28   8    7.35    1.44
   4 -28   8    7.24    1.99
   4 -28  -8    4.49    2.04
  -4 -28   8   -1.62    2.96
  -4 -28   8    6.75    1.67
  -4 -28   8    7.78    2.37
   4 -28  -8    6.51    1.45
   6 -28   8    0.30    1.02
   6 -28   8   -0.96    1.43
   6 -28  -8    0.30    1.12
  -6 -28   8    0.67    1.42
   6 -28  -8   -0.67    1.69
  -6 -28   8   -0.07    1.93
   8 -28   8    5.50    1.72
  -8 -28   8    1.90    2.24
   8 -28  -8    5.67    1.47
   8 -28  -8    4.68    1.94
   0 -30   8   69.48    4.28
   0 -30  -8   55.50    4.78
   0 -30  -8   60.17    4.31
   0 -30   8   59.97    5.05
   2 -30   8   12.42    2.54
   2 -30   8   14.75    1.93
  -2 -30  -8   14.20    2.09
  -2 -30   8   14.47    2.00
   2 -30  -8    9.51    2.32
  -2 -30   8   13.82    2.64
   2 -30  -8   11.59    1.78
   4 -30   8    0.74    1.57
   4 -30   8    0.06    1.08
   4 -30  -8    0.43    1.08
  -4 -30   8   -2.92    1.11
   4 -30  -8    1.28    1.62
  -4 -30   8   -1.27    1.92
   6 -30   8   -1.46    1.10
   6 -30   8    0.68    1.50
   6 -30  -8   -2.16    1.70
   6 -30  -8    1.16    1.19
  -6 -30   8    3.05    1.41
  -6 -30   8   -0.86    1.84
   0 -32   8    5.22    1.39
   0 -32   8    2.28    2.17
   0 -32  -8   -0.03    1.95
   0 -32  -8    1.63    1.24
   2 -32   8    9.11    2.41
   2 -32   8   12.70    1.87
  -2 -32  -8   11.02    1.76
  -2 -32   8    7.07    1.60
   2 -32  -8   10.08    2.58
   2 -32  -8    9.74    1.68
  -2 -32   8   11.40    2.49
   1  -1   9   66.78    3.71
  -1   1   9   67.84    3.92
  -1   1   9   67.09    4.06
  -1   1   9   63.93    3.74
   1  -1   9   70.36    3.79
  -1  -1  -9   75.00    4.19
  -1  -1  -9   68.79    3.77
  -1  -1   9   70.07    4.00
   1   1   9   70.99    3.75
  -1   1  -9   69.65    3.80
  -1  -1   9   70.48    4.11
   1  -1  -9   77.82    4.27
  -1  -1   9   71.53    3.80
   3  -1   9   65.90    3.76
  -3   1   9   66.56    4.13
  -3   1   9   71.75    4.23
   3  -1   9   67.75    3.70
  -3  -1  -9   67.93    3.73
  -3  -1   9   66.01    4.22
  -3   1  -9   63.10    3.77
   3  -1  -9   65.61    4.25
   3   1   9   70.33    3.72
   3   1   9   65.20    3.68
   3  -1  -9   73.11    4.27
   5  -1   9  113.56    5.99
   5   1  -9  119.75    6.70
   5   1   9  113.66    5.99
  -5  -1   9   99.86    5.87
   5  -1  -9  120.87    6.81
   7  -1   9  143.18    7.66
   7   1  -9  141.98    7.68
   7  -1  -9  159.76    8.87
   7  -1  -9  139.54    7.62
   7   1   9  142.37    7.66
   9  -1   9    3.79    1.06
   9   1  -9    2.37    1.46
   9   1  -9    1.75    2.40
   9   1   9    1.81    1.00
   9  -1  -9    1.55    1.29
   9  -1  -9   -1.05    2.48
  11  -1   9    4.42    1.35
  11   1  -9    2.89    1.98
  11   1  -9    4.15    4.50
  11   1   9    5.89    1.38
  11  -1  -9    3.73    1.89
  13   1  -9   -0.83    2.01
  13  -1   9    2.32    1.41
  13  -1  -9   -1.32    1.79
  13   1   9   -0.17    1.25
  15  -1   9    2.02    1.60
  15   1  -9    2.55    2.03
  15   1   9    2.64    1.56
  15  -1  -9    4.08    2.02
  17   1  -9    0.71    1.80
  17  -1  -9    1.77    1.76
   1  -3   9    7.53    1.11
   1  -3   9    6.84    0.82
  -1   3   9    6.10    0.73
  -1   3   9    7.13    1.02
  -1  -3  -9    6.19    1.10
   1  -3   9    7.49    1.16
  -1  -3  -9    6.02    0.77
   1  -3   9    6.35    0.91
  -1  -3   9    6.62    1.12
   1  -3  -9    5.90    1.18
  -1  -3   9    7.40    0.89
  -1  -3   9    7.46    1.13
  -1  -3   9    5.77    0.79
  -3   3   9    0.35    0.71
   3  -3   9    1.20    0.65
  -3   3   9    0.42    0.79
  -3  -3  -9    1.71    0.57
   3  -3   9    1.09    0.51
  -3  -3   9    0.73    0.67
   3   3   9    0.06    0.52
  -3  -3   9    0.57    0.76
   3  -3  -9   -0.58    0.88
   5   3  -9   86.08    4.66
  -5  -3  -9   83.94    4.58
   5  -3   9   72.12    5.26
   5  -3   9   83.92    4.57
   5   3   9   88.15    4.60
   5  -3  -9   91.29    5.52
  -5  -3   9   75.50    4.56
   7  -3   9   27.45    2.17
   7   3  -9   20.34    2.33
  -7  -3   9   23.50    2.20
   7  -3  -9   26.82    2.25
   7  -3  -9   29.76    4.10
   7   3   9   25.44    2.12
   9   3  -9    4.45    1.58
   9  -3   9    2.32    1.08
  -9  -3   9    2.68    1.03
   9   3   9    2.10    1.00
   9  -3  -9    0.40    2.40
   9  -3  -9    0.69    1.15
  11   3  -9    1.22    3.49
  11   3  -9    1.40    2.05
  11  -3   9   -0.15    1.13
  11   3   9   -1.93    1.04
  11  -3  -9   -1.76    1.53
  13   3  -9    0.65    2.04
  13  -3   9   -0.23    1.22
  13   3   9   -1.67    1.20
  13  -3  -9    0.65    1.77
  15  -3   9   -1.00    1.77
  15   3  -9   -0.45    1.96
  15  -3  -9    1.03    1.90
  15   3   9    1.29    1.51
  17   3  -9    0.69    1.63
  17  -3  -9   -1.04    1.62
   1  -5   9    6.42    0.95
   1  -5   9    6.85    0.91
  -1  -5  -9    5.80    1.05
   1  -5   9    7.61    1.14
   1  -5   9    8.47    1.16
  -1  -5   9    5.58    0.85
  -1  -5   9    6.85    0.93
  -1  -5   9    5.30    1.07
  -3   5   9   11.02    1.40
   3  -5   9   11.26    1.21
   3  -5   9   12.25    1.84
  -3  -5  -9   11.46    1.30
  -3   5   9   11.56    1.59
   3  -5   9   14.55    1.51
  -3  -5   9   10.48    1.32
   3   5   9   11.85    1.25
  -3  -5   9   11.72    1.29
   5  -5   9    0.24    0.61
  -5  -5  -9    1.21    0.78
   5   5  -9    0.56    0.88
   5  -5   9    0.54    0.90
   5  -5   9    0.26    0.79
   5  -5  -9    2.12    0.93
  -5  -5   9    0.08    0.93
   5  -5  -9    1.63    0.58
   5  -5  -9    1.46    1.28
   7   5  -9    5.29    1.39
   7  -5   9    6.40    1.10
   7  -5   9    5.17    1.44
   7  -5  -9    9.41    2.32
  -7  -5   9    8.72    1.06
   7  -5  -9    5.41    1.26
  -7  -5   9    8.75    1.41
   9   5  -9   -1.72    1.41
  -9  -5  -9   -3.83    1.18
   9  -5   9   -0.50    0.95
  -9  -5   9   -0.37    1.17
  -9  -5   9   -4.16    1.29
   9  -5  -9   -1.18    1.10
   9  -5  -9   -2.81    2.48
   9   5   9   -1.12    0.87
  11   5  -9   11.92    2.54
  11  -5   9    5.55    1.52
  11   5   9    7.61    1.57
  11  -5  -9    6.51    1.85
  13   5  -9    1.27    2.11
  13  -5   9   -0.61    1.47
  13   5   9   -0.65    1.25
  13  -5  -9   -0.68    1.76
  15   5  -9   -3.82    1.83
  15   5   9    0.84    1.36
  15  -5  -9   -1.06    1.77
  17   5  -9   -2.02    1.60
  17  -5  -9    0.09    1.60
   1  -7   9   65.70    4.19
   1  -7   9   62.21    3.88
  -1  -7  -9   76.09    4.51
   1  -7   9   69.39    3.88
  -1  -7   9   68.30    3.91
  -1  -7   9   75.02    3.93
  -1  -7   9   71.79    4.40
   1  -7  -9   68.81    4.44
  -3  -7  -9   16.94    2.10
   3  -7   9   17.11    1.46
   3  -7   9   16.04    1.89
   3  -7   9   17.88    1.68
  -3  -7  -9   12.88    1.48
   3  -7   9   17.31    1.69
   3  -7  -9   13.49    2.12
  -3  -7   9   13.96    1.56
  -3  -7   9   13.45    1.45
   5  -7   9    0.47    0.94
  -5  -7  -9   -0.04    0.77
   5  -7   9    0.25    0.86
   5  -7   9    0.02    0.63
   5  -7  -9    0.04    0.49
  -5  -7   9    0.21    0.58
  -5  -7   9    2.76    1.00
  -5  -7   9    1.00    1.04
   5  -7  -9   -0.31    0.91
   5  -7  -9   -0.57    1.37
   7  -7   9   10.54    1.77
   7  -7   9   14.97    1.79
   7   7  -9   11.32    1.60
   7  -7  -9    9.73    1.18
   7  -7  -9   12.11    2.51
   7  -7  -9   12.58    1.62
  -7  -7   9   10.63    1.24
  -7  -7   9   10.78    1.64
   9   7  -9   25.82    2.80
   9  -7   9   29.80    2.69
  -9  -7  -9   29.59    2.89
   9  -7  -9   22.78    3.61
   9  -7  -9   22.43    2.57
   9   7   9   32.46    2.61
  -9  -7   9   24.05    2.92
 -11  -7  -9   11.57    2.12
  11   7  -9   13.73    2.51
  11  -7   9   10.63    1.82
  11  -7   9    8.33    1.79
  11  -7  -9    8.75    1.91
  11   7   9    6.62    1.61
  13  -7   9    0.91    1.48
  13   7  -9   -1.48    2.00
  13   7   9    0.85    1.16
  13  -7  -9   -1.64    1.72
  15   7  -9    0.19    1.79
  15   7   9   -0.90    1.34
  15  -7  -9    2.83    1.85
  17   7  -9    1.22    1.62
  17  -7  -9    0.43    1.65
  -1  -9  -9  125.67    7.00
   1  -9   9  145.15    7.67
   1  -9   9  142.04    7.24
   1  -9   9  138.86    7.25
  -1  -9  -9  135.98    7.74
  -1  -9   9  146.83    7.26
  -1  -9   9  146.59    7.84
  -1  -9   9  129.05    7.18
   1  -9  -9  132.52    7.72
   3  -9   9    1.43    0.75
   3  -9   9    1.06    0.67
   3  -9   9    0.99    0.63
  -3  -9  -9    0.83    0.88
  -3  -9  -9    0.73    0.62
  -3  -9   9    0.87    0.66
   3  -9  -9    1.70    1.04
  -3  -9   9    0.99    0.85
  -3  -9   9    0.74    0.54
  -3  -9   9    0.92    0.84
   3  -9  -9    0.50    0.36
   5  -9   9   32.62    2.62
   5  -9   9   31.91    2.38
   5  -9   9   28.91    2.47
  -5  -9  -9   30.11    2.39
   5  -9  -9   32.58    2.36
  -5  -9   9   32.49    2.52
   5  -9  -9   31.97    3.70
   5  -9  -9   30.20    2.07
  -5  -9   9   31.84    2.63
  -5  -9   9   33.90    2.15
  -5  -9   9   31.85    2.57
  -7  -9  -9   11.08    1.71
   7  -9   9   16.40    1.84
   7   9  -9   13.58    1.70
   7  -9  -9   10.76    2.68
   7  -9  -9   13.05    1.46
   7  -9  -9   12.68    1.66
  -7  -9   9   10.81    1.31
  -7  -9   9   10.91    1.73
   9  -9   9   41.28    3.15
   9  -9   9   38.18    2.96
   9   9  -9   38.79    3.43
  -9  -9  -9   40.22    3.34
   9  -9  -9   37.75    3.14
  -9  -9   9   37.12    3.43
   9  -9  -9   35.88    5.58
   9  -9  -9   34.64    2.62
  11  -9   9   10.42    1.75
 -11  -9  -9   17.80    2.39
  11   9  -9   17.74    2.64
  11   9   9    9.84    1.72
 -11  -9   9   15.53    2.25
  11  -9  -9   12.97    2.13
  13   9  -9    0.01    1.95
  13  -9   9    2.57    1.76
  13   9   9   -1.15    1.17
  13  -9  -9   -1.39    1.63
  15   9  -9   -0.21    1.77
  15   9   9    1.61    1.44
  15  -9  -9    3.42    1.76
   1 -11   9  236.90   12.50
   1 -11   9  242.05   12.50
   1 -11   9  242.86   12.28
   1 -11   9  251.68   12.38
  -1 -11  -9  245.08   12.28
   1 -11   9  251.19   13.01
  -1 -11   9  255.25   12.51
  -1 -11   9  250.35   12.30
   1 -11  -9  239.80   12.31
  -1 -11   9  237.89   12.48
  -1 -11   9  247.45   12.36
   1 -11  -9  244.34   13.04
  -3 -11  -9    0.07    0.64
   3 -11   9    0.92    0.76
  -3 -11  -9    0.38    1.00
   3 -11   9    0.98    0.75
   3 -11   9    0.55    0.67
   3 -11   9    0.02    0.32
   3 -11  -9    1.60    1.09
   3 -11  -9    1.07    0.48
  -3 -11   9    0.48    0.69
  -3 -11   9    0.54    0.89
  -3 -11   9    1.86    0.93
   3 -11  -9    0.77    0.80
  -3 -11   9    0.97    0.52
  -5 -11  -9   90.24    5.29
   5 -11   9   85.69    5.44
   5 -11   9   97.48    5.34
   5 -11   9   99.09    5.26
   5 -11   9   84.93    4.91
   5 -11  -9   94.84    6.44
   5 -11  -9   89.95    5.04
  -5 -11   9   89.55    5.27
  -5 -11   9   89.08    5.02
   5 -11  -9   92.35    5.19
  -5 -11   9   99.55    5.38
  -5 -11   9   99.84    5.51
   7 -11   9    4.91    1.17
   7 -11   9    4.96    1.11
  -7 -11  -9    5.42    1.43
  -7 -11   9    5.16    0.99
   7 -11  -9    4.61    0.92
   7 -11  -9    4.84    1.25
  -7 -11   9    2.43    1.31
   7 -11  -9    5.18    2.56
  -7 -11   9    3.94    1.54
   9  11  -9   28.07    3.24
   9 -11   9   28.89    2.52
   9 -11   9   32.70    2.75
  -9 -11  -9   29.56    3.05
  -9 -11   9   26.75    3.17
   9 -11  -9   29.21    2.37
   9 -11  -9   24.81    2.65
   9 -11  -9   18.15    5.14
  11 -11   9   10.28    1.71
 -11 -11  -9   16.41    2.39
  11 -11   9   22.83    2.52
  11  11  -9   15.84    2.55
 -11 -11   9   13.12    2.41
  11  11   9   11.05    1.88
  11 -11  -9   12.74    1.96
  13  11  -9    2.51    1.93
  13 -11   9    1.32    1.37
  13  11   9   -0.27    1.21
  13 -11  -9   -1.17    1.51
  15  11  -9    0.55    1.60
  15 -11  -9    0.27    1.64
  -1 -13  -9  250.04   12.67
   1 -13   9  259.04   12.66
   1 -13   9  258.35   12.80
   1 -13   9  248.05   12.89
   1 -13   9  249.48   12.90
  -1 -13   9  258.48   12.77
   1 -13  -9  237.07   12.73
   1 -13  -9  225.41   13.34
   1 -13  -9  249.56   12.71
  -1 -13   9  275.41   12.95
  -1 -13   9  257.75   12.66
  -1 -13   9  254.70   12.89
  -3 -13  -9    6.77    1.18
   3 -13   9    9.30    1.28
  -3 -13  -9    6.83    0.86
   3 -13   9    7.98    0.94
   3 -13   9    9.06    1.35
   3 -13   9    7.83    1.29
  -3 -13   9    8.00    1.01
  -3 -13   9    7.09    1.20
   3 -13  -9    9.18    1.35
  -3 -13   9   10.99    1.53
  -3 -13   9    9.46    1.47
   3 -13  -9    9.25    1.07
   5 -13   9    3.74    0.66
   5 -13   9    4.48    1.08
   5 -13   9    4.47    1.23
  -5 -13  -9    4.16    1.16
   5 -13   9    4.92    1.05
   5 -13  -9    3.89    0.79
  -5 -13   9    5.26    1.43
  -5 -13   9    4.12    0.86
   5 -13  -9    3.97    1.07
  -5 -13   9    4.94    1.12
  -5 -13   9    4.59    1.32
   7 -13   9   -0.74    0.94
   7 -13   9   -0.47    0.91
  -7 -13  -9    1.08    1.15
  -7 -13   9   -2.76    1.36
   7 -13  -9   -1.39    2.21
   7 -13  -9    0.11    0.73
  -7 -13   9    2.04    1.15
   7 -13  -9    1.01    1.00
  -7 -13   9    2.50    1.33
  -7 -13   9    1.55    0.91
   9 -13   9    8.93    1.65
   9  13  -9   15.15    2.38
   9 -13   9   16.76    2.07
  -9 -13  -9   16.04    2.31
   9 -13  -9   11.15    1.46
   9 -13  -9   10.03    1.80
  -9 -13   9   12.66    2.29
 -11 -13  -9    4.42    1.88
  11  13  -9    3.46    2.03
  11 -13   9    1.88    1.23
 -11 -13   9    5.44    2.18
  13  13  -9   -0.34    1.78
 -13 -13  -9   -0.95    1.86
  13 -13   9    0.81    1.35
  13  13   9   -2.06    1.19
  13 -13  -9   -1.94    1.52
 -13 -13   9    1.73    2.56
  15  13  -9    1.45    1.69
  15 -13  -9   -1.46    1.53
  -1 -15  -9   14.44    1.38
   1 -15   9   16.50    1.75
   1 -15   9   14.23    1.32
   1 -15   9   13.70    1.68
   1 -15   9   14.82    1.77
   1 -15  -9   17.89    1.77
  -1 -15   9   16.49    1.75
  -1 -15   9   17.65    1.81
  -1 -15   9   17.45    1.77
   1 -15  -9   14.19    1.44
  -1 -15   9   14.39    1.31
   3 -15   9   10.56    1.54
  -3 -15  -9   14.06    1.80
  -3 -15  -9   11.05    1.47
  -3 -15  -9   10.28    1.21
   3 -15   9   10.24    1.16
   3 -15   9   11.79    1.59
   3 -15   9   13.07    1.59
  -3 -15   9   13.17    1.75
  -3 -15   9   10.73    1.24
   3 -15  -9    9.86    1.21
   3 -15  -9   12.39    1.62
  -3 -15   9   15.03    1.66
  -3 -15   9   11.62    1.65
   5 -15   9    6.37    1.33
   5 -15   9    4.18    1.37
   5 -15   9    6.81    1.26
  -5 -15  -9    4.45    1.27
   5 -15   9    4.50    0.79
  -5 -15   9    5.36    1.21
   5 -15  -9    4.91    0.94
  -5 -15   9    6.21    1.60
  -5 -15   9    7.46    1.53
   5 -15  -9    5.93    1.32
  -5 -15   9    6.17    1.03
   7 -15   9    9.08    1.55
  -7 -15  -9    7.74    1.70
   7 -15   9    9.40    1.59
  -7 -15   9    7.69    1.54
   7 -15  -9    6.17    1.16
   7 -15  -9    9.69    1.67
  -7 -15   9    9.40    2.08
  -7 -15   9   11.40    1.97
  -7 -15   9   11.32    1.50
   7 -15  -9    9.32    2.82
   9 -15   9   -0.71    1.03
   9 -15   9    0.00    1.14
   9  15  -9   -2.40    1.84
  -9 -15  -9    0.90    1.52
  -9 -15   9   -0.82    1.75
   9 -15  -9    0.44    0.85
   9 -15  -9    0.04    1.28
 -11 -15  -9   -1.18    1.64
  11  15  -9   -0.65    1.93
  11 -15   9   -0.42    1.30
  11 -15  -9    5.71    1.68
 -11 -15   9   -1.16    2.27
 -13 -15  -9    0.74    1.96
  13 -15   9    1.34    1.67
  13  15  -9    0.63    1.63
 -13 -15   9    3.64    2.01
  13  15   9   -0.07    1.41
  13 -15  -9    0.56    1.68
  15  15  -9   -0.33    1.54
  15 -15  -9    0.65    1.57
  -1 -17  -9   14.15    1.74
   1 -17   9   12.67    1.72
   1 -17   9   12.24    1.65
  -1 -17  -9   11.60    1.33
   1 -17   9   11.82    1.63
   1 -17   9   12.48    1.38
  -1 -17   9   11.32    1.57
   1 -17  -9   12.10    1.44
  -1 -17   9   14.21    1.75
  -1 -17   9   13.19    1.77
  -1 -17   9   11.40    1.32
   1 -17  -9   18.90    1.95
  -3 -17  -9   35.79    3.07
   3 -17   9   33.38    2.77
   3 -17   9   40.06    2.56
  -3 -17  -9   31.57    2.72
  -3 -17  -9   35.88    2.49
   3 -17   9   35.65    2.93
   3 -17   9   36.26    2.94
  -3 -17   9   40.21    2.88
   3 -17  -9   41.32    2.62
  -3 -17   9   43.42    3.14
   3 -17  -9   34.67    2.84
  -3 -17   9   41.25    3.03
  -3 -17   9   38.41    2.51
  -5 -17  -9   63.66    4.33
   5 -17   9   63.18    4.48
   5 -17   9   60.70    4.32
   5 -17   9   63.96    3.82
   5 -17   9   68.08    4.26
  -5 -17  -9   60.62    4.41
  -5 -17   9   65.30    4.39
  -5 -17   9   70.06    4.56
  -5 -17   9   65.91    4.23
  -5 -17   9   67.98    3.98
   5 -17  -9   66.78    4.37
   5 -17  -9   67.54    4.03
  -7 -17  -9   18.15    2.43
   7 -17   9   21.40    2.52
   7 -17   9   20.05    2.47
   7 -17  -9   21.07    2.54
  -7 -17   9   24.41    2.75
  -7 -17   9   23.49    2.82
   7 -17  -9   22.43    2.14
  -7 -17   9   24.89    2.42
   9 -17   9    1.79    1.22
   9  17  -9    2.42    1.97
  -9 -17  -9    3.62    1.64
  -9 -17   9    4.80    2.05
   9 -17  -9    3.14    1.08
   9 -17  -9    2.90    1.49
 -11 -17  -9    2.82    1.90
  11 -17   9    3.09    1.52
  11  17  -9    0.21    1.78
 -11 -17   9    0.92    2.68
  11 -17  -9    3.39    1.73
  11 -17  -9    2.92    1.31
  13 -17   9    3.24    1.69
 -13 -17  -9    6.37    2.55
  13  17  -9    0.01    1.61
 -13 -17   9    2.42    2.70
  13  17   9    0.58    1.42
  13 -17  -9    4.56    1.74
   1 -19   9   30.23    2.19
  -1 -19  -9   28.75    2.18
   1 -19   9   25.97    2.52
   1 -19   9   28.37    2.42
   1 -19   9   25.99    2.53
  -1 -19  -9   23.35    2.59
  -1 -19   9   26.57    2.67
  -1 -19   9   29.54    2.19
  -1 -19   9   30.69    2.54
  -1 -19   9   29.99    2.61
   1 -19  -9   28.72    2.22
   1 -19  -9   32.48    2.74
  -3 -19  -9   52.34    4.02
   3 -19   9   57.71    4.01
  -3 -19  -9   55.08    3.51
   3 -19   9   50.13    3.99
   3 -19   9   54.48    3.82
   3 -19   9   54.64    3.48
  -3 -19   9   57.65    3.84
  -3 -19   9   56.30    3.52
   3 -19  -9   60.81    3.60
  -3 -19   9   52.81    3.93
   3 -19  -9   61.50    3.98
  -3 -19   9   60.03    4.10
   5 -19   9   74.53    4.82
  -5 -19  -9   73.70    5.17
   5 -19   9   72.76    5.40
   5 -19   9   72.08    5.01
   5 -19   9   77.28    4.48
  -5 -19  -9   68.81    4.88
  -5 -19   9   82.61    4.62
  -5 -19   9   81.22    5.28
  -5 -19   9   75.33    5.05
   5 -19  -9   77.72    4.63
   5 -19  -9   82.59    5.03
  -7 -19  -9   17.85    2.42
   7 -19   9   18.18    2.41
   7 -19   9   16.02    2.17
   7 -19  -9   22.46    2.66
   7 -19  -9   20.15    2.12
  -7 -19   9   22.25    2.76
  -7 -19   9   21.12    2.93
  -7 -19   9   23.62    2.39
   9  19  -9    7.90    2.21
   9 -19   9    9.65    1.90
  -9 -19  -9    9.02    2.05
   9 -19  -9   10.17    1.50
  -9 -19   9   10.21    2.66
   9 -19  -9    9.98    2.00
  11 -19   9    0.31    1.37
  11  19  -9   -0.82    1.71
 -11 -19  -9    0.78    1.71
  11 -19  -9   -1.21    1.03
 -11 -19   9   -0.83    2.71
  11 -19  -9   -0.62    1.70
  13  19  -9    1.79    1.59
  13 -19  -9   -0.45    1.56
   1 -21   9    5.71    1.55
  -1 -21  -9    5.46    1.03
  -1 -21  -9    5.80    1.61
   1 -21   9    5.28    1.09
   1 -21   9    5.73    1.37
   1 -21  -9    6.91    1.60
   1 -21  -9    4.69    1.02
  -1 -21   9    5.51    1.10
  -1 -21   9    6.78    1.64
  -1 -21   9    4.15    1.53
  -3 -21  -9    9.60    1.40
   3 -21   9    7.32    1.67
  -3 -21  -9    9.56    2.02
   3 -21   9    9.67    1.76
   3 -21   9    9.45    1.31
  -3 -21   9    9.38    2.03
   3 -21  -9   11.91    1.98
  -3 -21   9    7.10    1.24
   3 -21  -9    9.79    1.38
  -3 -21   9    6.75    1.88
  -5 -21  -9   78.04    5.80
  -5 -21  -9   66.88    5.07
   5 -21   9   70.17    5.02
   5 -21   9   75.40    4.95
   5 -21   9   78.58    4.57
  -5 -21   9   82.75    5.44
   5 -21  -9   79.10    5.15
  -5 -21   9   79.98    4.74
   5 -21  -9   76.97    4.72
  -5 -21   9   77.44    5.26
   7 -21   9   -0.29    1.22
  -7 -21  -9   -0.74    1.29
  -7 -21   9   -3.62    1.96
  -7 -21   9   -0.48    1.75
   7 -21  -9   -0.45    1.39
  -7 -21   9   -2.07    1.04
   7 -21  -9   -0.50    0.85
   9  21  -9   -1.16    1.64
  -9 -21  -9   -0.23    1.41
   9 -21   9    1.80    1.36
   9 -21  -9   -0.01    1.58
  -9 -21   9    1.27    1.82
   9 -21  -9    0.09    0.98
  -9 -21   9   -1.84    2.35
 -11 -21  -9    2.37    1.78
  11  21  -9    0.73    1.54
  11 -21   9    0.02    1.51
 -11 -21   9   -0.84    2.67
  11 -21  -9   -0.78    1.49
  11 -21  -9    0.82    1.16
  13  21  -9   -1.01    1.43
  13 -21  -9    2.13    1.66
   1 -23   9    0.67    0.71
   1 -23   9    0.10    1.24
   1 -23   9    1.10    1.23
  -1 -23  -9   -0.15    0.80
  -1 -23  -9   -0.81    1.29
  -1 -23   9   -0.41    1.30
   1 -23  -9   -0.76    1.28
  -1 -23   9   -0.07    0.75
  -1 -23   9    0.77    1.32
   1 -23  -9    0.12    0.77
  -3 -23  -9   11.61    1.59
   3 -23   9   14.47    2.18
  -3 -23  -9   11.64    2.23
   3 -23   9   15.22    1.75
   3 -23   9    9.29    2.00
   3 -23  -9   10.08    1.52
  -3 -23   9   14.45    2.33
   3 -23  -9   16.32    2.38
  -3 -23   9   11.50    1.61
  -3 -23   9   13.14    2.34
   5 -23   9    0.65    1.33
   5 -23   9    1.51    0.78
   5 -23  -9    2.53    1.01
  -5 -23   9    0.39    1.97
  -5 -23   9    0.96    1.09
  -5 -23   9   -1.06    1.66
   5 -23  -9    0.06    1.54
   7 -23   9    6.84    1.80
  -7 -23  -9   12.38    1.99
   7 -23  -9   11.12    1.68
   7 -23  -9   10.33    2.21
  -7 -23   9   10.16    1.89
  -7 -23   9   15.76    3.01
  -7 -23   9   11.34    2.50
  -9 -23  -9   -0.02    1.51
   9  23  -9    0.95    1.60
   9 -23   9    1.49    1.45
   9 -23  -9    0.53    1.05
   9 -23  -9    1.57    1.77
  -9 -23   9    3.31    2.16
  -9 -23   9    1.57    2.65
  11 -23   9   -0.60    1.41
  11  23  -9    2.21    1.47
  11 -23  -9   -1.28    1.32
  11 -23  -9    0.81    1.60
   1 -25   9   11.04    2.15
   1 -25   9   11.75    1.67
  -1 -25  -9   11.60    2.19
  -1 -25  -9   10.06    1.55
   1 -25   9   10.47    1.98
  -1 -25   9    8.13    2.17
  -1 -25   9    8.56    1.42
  -1 -25   9    9.87    2.22
   1 -25  -9    9.09    1.46
   1 -25  -9   11.07    2.03
   3 -25   9    1.08    0.85
  -3 -25  -9    0.84    0.99
   3 -25   9    2.05    1.57
   3 -25   9    1.72    1.30
  -3 -25  -9   -1.03    1.60
  -3 -25   9    0.17    1.74
  -3 -25   9    0.98    1.66
   3 -25  -9   -0.70    0.84
  -3 -25   9    1.14    1.06
   3 -25  -9   -0.84    1.50
   5 -25   9    3.46    1.57
   5 -25   9    3.06    1.04
   5 -25  -9    3.37    1.90
  -5 -25   9    3.11    2.39
  -5 -25   9    2.16    1.29
   5 -25  -9    2.93    1.14
  -5 -25   9    2.15    2.06
   7 -25   9    8.41    2.12
   7 -25  -9   14.55    1.84
   7 -25  -9   13.23    2.50
  -7 -25   9   15.61    2.83
  -7 -25   9   11.98    2.05
  -7 -25   9   14.42    3.29
   9 -25   9    1.79    1.68
   9  25  -9   -0.16    1.41
   9 -25  -9    3.97    1.87
   9 -25  -9    3.63    1.35
  11  25  -9    0.36    1.42
   1 -27   9   38.85    3.00
   1 -27   9   35.11    3.57
   1 -27   9   34.15    3.92
  -1 -27  -9   31.71    3.60
  -1 -27  -9   41.47    3.11
  -1 -27   9   36.85    2.95
  -1 -27   9   36.46    3.78
   1 -27  -9   34.62    3.05
   1 -27  -9   30.92    3.55
  -1 -27   9   39.44    4.00
   3 -27   9    6.56    1.89
   3 -27   9   10.17    1.58
  -3 -27  -9    8.50    1.66
  -3 -27  -9    1.08    4.32
   3 -27  -9    8.51    1.57
  -3 -27   9    9.05    2.34
   3 -27  -9    8.54    2.23
  -3 -27   9    9.78    1.63
  -3 -27   9   10.46    2.69
   5 -27   9    1.55    0.98
   5 -27   9    0.61    1.44
   5 -27  -9   -2.83    1.71
  -5 -27   9   -3.72    2.70
   5 -27  -9   -0.81    0.93
  -5 -27   9    0.52    1.30
  -5 -27   9   -0.78    1.92
   7 -27   9   -0.12    1.46
   7 -27  -9   -1.46    1.78
   7 -27  -9    0.34    1.03
  -7 -27   9    0.45    2.12
  -7 -27   9   -0.29    1.42
   9 -27   9   10.17    2.08
   9 -27  -9   11.75    2.41
   9 -27  -9   15.74    1.96
  -1 -29  -9   27.54    2.89
   1 -29   9   30.24    3.58
  -1 -29  -9   22.60    3.32
   1 -29   9   37.37    2.87
  -1 -29   9   30.90    2.83
  -1 -29   9   34.12    4.02
   1 -29  -9   27.53    3.52
   1 -29  -9   28.50    2.82
  -1 -29   9   29.32    3.77
   3 -29   9    1.63    1.05
   3 -29   9    1.73    1.65
  -3 -29   9    1.24    2.04
  -3 -29   9   -3.00    2.96
   3 -29  -9    0.38    1.68
   3 -29  -9   -0.35    1.06
  -3 -29   9   -1.04    1.16
   5 -29   9    7.23    1.51
   5 -29   9    6.58    1.90
   5 -29  -9    5.74    1.44
  -5 -29   9    4.88    1.64
   5 -29  -9    5.93    2.20
  -5 -29   9    6.50    2.16
   7 -29   9    1.62    1.45
  -7 -29   9   -0.20    2.00
   7 -29  -9   -0.07    1.74
  -7 -29   9   -0.22    1.98
   7 -29  -9   -1.44    1.04
   1 -31   9   16.35    1.98
   1 -31   9   11.01    2.60
  -1 -31  -9   10.59    1.81
   1 -31  -9   11.16    1.82
  -1 -31   9   12.96    2.62
  -1 -31   9   12.85    1.86
   1 -31  -9   13.40    3.22
   3 -31   9   -0.49    1.71
   3 -31   9    1.36    1.14
   3 -31  -9    2.79    1.91
   3 -31  -9    1.74    1.10
  -3 -31   9    1.94    2.12
  -3 -31   9    3.20    1.28
   5 -31   9    1.72    1.21
  -5 -31   9    1.05    1.32
  -5 -31   9    0.14    2.65
   5 -31  -9    0.51    1.08
   0   0  10  419.95   21.21
   0   0  10  441.32   21.35
   0   0  10  436.87   21.59
   0   0  10  421.57   21.20
  -2   0  10   11.12    1.50
  -2   0  10    9.18    1.13
  -2   0 -10   10.51    1.25
  -2   0  10    9.79    1.51
   2   0  10   10.69    1.17
  -2   0 -10   11.63    1.68
   2   0  10   11.55    1.03
   4   0  10  262.48   12.74
  -4   0  10  242.81   13.27
   6   0 -10   89.38    5.64
   6   0  10   77.90    4.49
   6   0 -10   73.26    4.47
   8   0 -10   40.14    2.95
   8   0  10   37.01    2.76
   8   0 -10   37.52    4.64
  10   0  10   30.29    2.64
  10   0 -10   24.30    3.84
  10   0 -10   29.17    2.96
  12   0 -10    3.13    1.97
  12   0  10    2.02    1.25
  14   0  10    2.06    1.33
  14   0 -10   -1.07    1.87
  16   0 -10    2.50    2.03
   0   2  10   28.59    1.90
   0  -2  10   32.77    2.04
   0  -2  10   31.15    2.33
   0  -2  10   32.91    2.29
   0  -2 -10   33.07    2.56
   0  -2  10   30.71    1.92
  -2  -2 -10    0.47    0.73
  -2   2  10   -0.42    0.60
  -2  -2 -10    0.29    0.54
   2  -2  10    0.62    0.54
   2  -2  10    0.82    0.47
  -2   2  10    0.56    0.64
   2   2  10    0.03    0.48
   2   2  10    0.15    0.43
  -2  -2  10   -0.02    0.76
   2  -2 -10   -0.30    0.81
  -2  -2  10   -0.43    0.46
  -2  -2  10    0.66    0.58
  -2  -2  10    0.02    0.69
   4  -2  10   13.34    1.38
  -4   2  10   10.48    1.58
   4  -2  10   13.42    1.28
  -4  -2 -10    9.84    1.16
  -4  -2  10   12.22    1.27
   4  -2 -10   11.43    1.76
   4   2  10   13.36    1.31
   6  -2  10  146.97    7.66
   6   2 -10  137.16    7.58
   6  -2 -10  140.04    7.57
   6   2  10  150.11    7.66
  -6  -2  10  136.98    7.56
   6  -2 -10  165.39    8.71
   8  -2  10    0.17    0.79
   8   2 -10    0.33    1.24
   8  -2 -10   -3.98    2.12
   8   2  10   -0.47    0.78
   8  -2 -10   -1.25    1.06
  10  -2  10    5.93    1.37
  10   2 -10    5.94    1.88
  10   2 -10    4.66    2.60
  10  -2 -10    3.53    1.56
  10   2  10    5.00    1.33
  10  -2 -10    6.21    3.05
  12   2 -10   -0.39    1.95
  12  -2  10    0.93    1.24
  12  -2 -10    0.16    1.65
  12   2  10    0.72    1.21
  14   2 -10   -1.29    1.92
  14  -2  10    0.00    1.50
  14  -2 -10    2.66    1.99
  14   2  10    0.80    1.37
  16   2 -10    1.02    1.85
  16  -2 -10    2.83    1.95
   0  -4  10   -0.42    0.45
   0  -4  10   -0.59    0.67
   0  -4 -10    0.67    0.72
   0  -4  10    0.43    0.60
   0  -4  10    0.12    0.44
   2  -4  10    1.27    0.70
  -2   4  10    0.56    0.70
  -2  -4 -10    0.28    0.49
   2  -4  10    1.56    0.62
   2  -4  10    1.06    0.55
   2  -4 -10    2.23    0.97
  -2  -4  10    0.97    0.76
  -2  -4  10    1.50    0.68
   2   4  10    1.41    0.55
  -2  -4  10    1.05    0.56
  -4  -4 -10    4.23    0.80
   4  -4  10    5.03    1.02
  -4   4  10    5.08    1.18
   4  -4  10    5.72    1.29
   4  -4  10    3.97    0.81
   4  -4 -10    5.76    1.41
  -4  -4  10    6.36    1.02
   4   4  10    6.13    0.89
   6   4 -10    9.76    1.37
  -6  -4 -10    9.27    1.27
   6  -4  10    6.78    1.09
   6   4  10    9.02    1.19
   6  -4 -10    8.14    2.15
  -6  -4  10   11.61    1.28
  -6  -4  10    9.58    1.32
   6  -4 -10    8.74    1.29
   8   4 -10    1.94    1.29
   8  -4  10    1.65    0.92
   8  -4 -10    1.57    1.07
   8   4  10    1.50    0.92
  -8  -4  10    2.24    1.18
  -8  -4  10    1.94    0.87
   8  -4 -10    1.01    2.21
  10   4 -10   -3.05    1.75
  10  -4  10    0.39    0.95
  10   4  10   -1.62    1.00
  10  -4 -10   -1.96    1.28
  10  -4 -10    0.20    2.63
  12   4 -10    1.34    2.19
  12  -4  10   -1.70    1.30
  12  -4 -10    0.41    1.61
  12   4  10   -0.72    1.17
  14   4 -10   -0.50    1.84
  14  -4  10   -0.03    1.58
  14  -4 -10   -1.02    1.76
  14   4  10    1.31    1.28
  16   4 -10   -1.44    1.74
  16  -4 -10   -1.62    1.82
   0  -6  10   93.37    4.98
   0  -6  10   88.79    5.38
   0  -6  10   89.56    5.01
   0  -6  10   96.59    5.29
  -2  -6 -10    1.06    0.82
   2  -6  10    1.60    0.75
  -2  -6 -10    2.26    0.64
   2  -6  10    1.05    0.80
   2  -6  10    0.98    0.65
   2  -6  10    0.92    0.55
  -2   6  10    1.53    0.70
   2  -6 -10    0.30    0.54
  -2  -6  10    1.85    0.90
  -2  -6  10    0.97    0.71
   2   6  10    2.10    0.63
  -2  -6  10    1.62    0.61
   4  -6  10    1.84    0.82
   4  -6  10    2.73    1.09
   4  -6  10    1.71    0.65
  -4   6  10    0.99    0.85
  -4  -6 -10    1.53    0.74
  -4  -6  10    2.45    0.92
   4  -6 -10    2.25    1.09
  -4  -6  10    2.33    1.05
  -4  -6  10    2.07    0.63
   4   6  10    2.52    0.76
   4  -6 -10    2.33    0.58
   6   6 -10    8.18    1.25
   6  -6  10    6.24    1.12
   6  -6  10    5.78    1.44
  -6  -6  10    7.36    0.95
   6  -6 -10    7.56    2.10
   6  -6 -10    6.41    0.92
  -6  -6  10    4.34    1.28
   6  -6 -10    6.97    1.30
   8  -6  10    0.08    1.16
   8   6 -10   -0.37    1.20
   8  -6  10    0.39    0.93
   8  -6 -10   -1.50    1.15
  -8  -6  10    0.17    0.78
   8  -6 -10   -1.80    2.13
  -8  -6  10   -0.98    1.07
  10   6 -10    8.60    2.13
  10  -6  10    6.28    1.49
  10  -6 -10    4.34    1.55
  10  -6 -10   11.55    5.00
  10   6  10    8.37    1.53
  12   6 -10   -1.07    2.07
  12  -6  10    0.97    1.37
  12  -6 -10    0.22    1.57
  12   6  10    1.70    1.21
  14   6 -10   -2.26    1.91
  14  -6  10    0.52    1.55
  14   6  10   -0.51    1.23
  14  -6 -10    0.02    1.86
  16   6 -10   -1.52    1.69
  16  -6 -10    0.77    1.75
   0  -8 -10   73.60    4.72
   0  -8  10   75.41    4.66
   0  -8  10   75.42    4.17
   0  -8  10   72.47    4.20
   2  -8  10   11.97    1.39
   2  -8  10   11.66    1.28
   2  -8  10   11.36    1.56
  -2   8  10   10.97    1.35
  -2  -8 -10   15.19    2.07
   2  -8 -10   11.92    1.74
  -2  -8  10    9.12    1.17
  -2  -8  10   10.48    1.04
  -2  -8  10   11.76    1.38
  -2  -8  10   11.89    1.73
   2  -8 -10   10.05    1.01
   4  -8  10    2.22    0.83
  -4   8  10    2.23    1.15
   4  -8  10    2.98    1.18
  -4  -8 -10    2.91    0.87
   4  -8  10    2.69    0.77
   4  -8  10    3.87    0.98
  -4  -8  10    1.26    0.67
  -4  -8  10    3.42    1.11
  -4  -8  10    1.74    0.80
  -4  -8  10    2.28    0.95
   4  -8 -10    2.19    0.56
   4  -8 -10    1.91    1.26
   6  -8  10  127.91    6.82
   6  -8  10  122.23    7.21
  -6  -8 -10  123.83    6.79
   6   8 -10  119.37    6.65
   6  -8 -10  122.57    6.73
  -6  -8  10  122.38    6.89
  -6  -8  10  121.99    6.57
   6  -8 -10  127.92    6.61
   6  -8 -10  131.43    8.19
   8   8 -10    3.78    1.42
   8  -8  10    5.01    1.26
   8  -8  10    3.38    1.64
   8  -8  10    3.61    1.13
  -8  -8  10    6.37    1.11
   8  -8 -10    4.64    1.35
  -8  -8  10    7.07    1.57
   8  -8 -10    4.36    0.97
   8  -8 -10    3.11    2.78
 -10  -8 -10   22.98    2.77
  10   8 -10   18.87    2.57
  10  -8  10   26.53    2.64
 -10  -8  10   14.84    2.42
  10  -8 -10   21.37    2.69
  10   8  10   14.65    2.06
  12  -8  10    1.89    1.42
  12   8 -10    6.04    2.21
  12  -8 -10   -0.07    1.55
  12   8  10   -0.61    1.13
  14   8 -10    1.23    1.75
  14   8  10   -0.01    1.34
  14  -8 -10    0.65    1.71
  16   8 -10   -1.77    1.59
  16  -8 -10    3.42    1.70
   0 -10 -10  192.47   10.66
   0 -10  10  206.36   10.75
   0 -10  10  196.52    9.93
   0 -10  10  190.90   10.14
   0 -10 -10  188.11    9.96
   0 -10  10  207.56   10.16
  -2 -10 -10   32.29    2.08
   2 -10  10   27.92    2.48
   2 -10  10   29.72    2.25
   2 -10  10   27.79    2.14
  -2 -10 -10   25.22    2.77
   2 -10  10   26.79    1.80
  -2 -10  10   28.68    2.17
   2 -10 -10   26.82    1.85
  -2 -10  10   29.04    2.16
  -2 -10  10   30.14    2.19
  -2 -10  10   28.14    1.84
   2 -10 -10   31.64    2.92
   4 -10  10   87.92    4.94
   4 -10  10   98.76    5.35
   4 -10  10   84.21    5.52
  -4 -10 -10   88.63    5.21
   4 -10  10   89.98    5.41
   4 -10 -10   92.77    5.06
  -4 -10  10  101.38    5.08
  -4 -10  10   98.15    5.29
  -4 -10  10  101.73    5.36
   4 -10 -10   89.68    5.16
   4 -10 -10   89.82    6.13
  -4 -10  10  104.55    5.47
   6 -10  10   57.40    3.61
   6 -10  10   54.58    3.51
  -6 -10 -10   52.27    3.65
   6 -10 -10   54.13    3.29
  -6 -10  10   57.37    3.66
   6 -10 -10   55.69    3.53
  -6 -10  10   56.32    3.76
   6 -10 -10   59.14    5.32
  -6 -10  10   48.60    3.28
  -6 -10  10   57.01    3.89
   8  10 -10    0.08    1.35
   8 -10  10    1.11    1.00
   8 -10  10    0.55    0.92
  -8 -10 -10    2.59    1.38
   8 -10 -10    1.63    1.12
   8 -10 -10    0.27    0.76
  -8 -10  10    0.52    0.84
   8 -10 -10   -4.77    2.54
  -8 -10  10   -1.14    1.49
 -10 -10 -10   34.08    3.23
  10 -10  10   31.83    2.94
  10 -10  10   28.87    2.73
  10  10 -10   34.58    3.35
 -10 -10  10   27.35    3.43
  10  10  10   33.15    2.99
  10 -10 -10   29.22    2.96
  12  10 -10   -0.89    1.87
  12 -10  10    2.84    1.47
  12  10  10    0.17    1.25
  12 -10 -10    0.08    1.45
  14  10 -10   -0.25    1.79
  14 -10 -10   -0.66    1.51
  14  10  10    1.92    1.41
  16  10 -10   -0.35    1.50
  16 -10 -10   -1.37    1.67
   0 -12 -10  424.27   23.64
   0 -12  10  472.82   22.98
   0 -12  10  489.77   23.21
   0 -12  10  461.47   23.20
   0 -12  10  462.67   23.01
   0 -12 -10  478.76   23.01
  -2 -12 -10   12.96    1.34
   2 -12  10   12.85    1.57
   2 -12  10    9.56    1.69
   2 -12  10   12.85    1.47
   2 -12  10   10.11    1.06
  -2 -12 -10    9.89    1.13
   2 -12  10   12.92    1.53
   2 -12 -10   12.14    1.22
  -2 -12  10   15.14    1.65
  -2 -12  10   12.34    1.19
  -2 -12  10    9.32    1.31
  -2 -12  10   15.98    1.68
   4 -12  10   76.62    4.32
   4 -12  10   66.87    3.81
   4 -12  10   68.51    4.08
   4 -12  10   65.78    4.29
  -4 -12 -10   64.06    4.09
   4 -12 -10   65.49    5.14
   4 -12 -10   69.36    3.95
   4 -12 -10   67.95    4.09
  -4 -12  10   70.72    3.90
  -4 -12  10   66.54    4.17
  -4 -12  10   72.59    4.24
  -4 -12  10   79.24    4.43
  -6 -12 -10   32.40    2.72
   6 -12  10   30.82    2.62
   6 -12  10   31.42    2.55
  -6 -12  10   32.96    2.76
  -6 -12  10   33.01    2.73
   6 -12 -10   30.54    2.52
  -6 -12  10   29.95    2.28
   6 -12 -10   30.18    4.38
   6 -12 -10   30.62    2.27
  -6 -12  10   34.09    2.97
   8 -12  10    1.17    1.02
  -8 -12 -10    0.42    1.33
   8  12 -10    1.79    1.55
   8 -12  10    0.28    1.03
  -8 -12  10   -3.05    1.67
  -8 -12  10    1.50    1.08
   8 -12 -10   -3.40    2.72
   8 -12 -10   -0.96    1.08
  -8 -12  10   -0.27    1.30
   8 -12 -10    0.64    0.84
  10  12 -10   12.21    2.38
 -10 -12 -10   14.90    2.24
  10 -12  10    7.40    1.62
  10 -12  10    8.17    1.54
  10 -12 -10   11.42    1.54
 -10 -12  10   12.12    2.44
  10 -12 -10    9.60    1.83
  12  12 -10    1.94    1.76
  12 -12 -10    0.08    1.59
  12  12  10   -0.49    1.30
 -12 -12  10   -0.38    1.80
  14  12 -10   -2.09    1.65
  14  12  10    0.12    1.30
  14 -12 -10    1.03    1.63
  16  12 -10   -0.01    1.51
  16 -12 -10   -0.29    1.63
   0 -14  10   96.45    5.45
   0 -14  10  104.41    5.67
   0 -14 -10   95.09    5.34
   0 -14  10  100.00    5.62
   0 -14  10  100.10    5.34
  -2 -14 -10    2.32    0.98
   2 -14  10    2.43    0.92
   2 -14  10    2.58    0.60
   2 -14  10    1.68    0.88
   2 -14  10    1.59    0.83
  -2 -14 -10    1.69    0.58
  -2 -14  10    2.16    1.05
  -2 -14  10    1.46    0.84
  -2 -14  10    2.45    1.09
   2 -14 -10    2.36    0.66
  -2 -14  10    1.91    0.64
   2 -14 -10    2.75    0.92
   4 -14  10    2.01    0.54
  -4 -14 -10    0.59    0.90
   4 -14  10    1.59    1.00
   4 -14  10    3.13    0.97
   4 -14  10    1.98    0.94
   4 -14 -10    2.23    0.67
  -4 -14  10    2.75    1.07
  -4 -14  10    1.30    0.94
   4 -14 -10    3.22    1.09
  -4 -14  10    1.82    0.70
  -4 -14  10    3.00    1.24
   4 -14 -10    4.35    1.54
   6 -14  10    4.61    1.14
  -6 -14 -10    3.81    1.24
   6 -14  10    3.71    1.17
  -6 -14  10    3.87    1.19
  -6 -14  10    3.08    1.41
   6 -14 -10    2.61    0.86
   6 -14 -10    3.39    1.23
  -6 -14  10    4.22    1.58
   6 -14 -10    3.07    2.08
  -6 -14  10    3.77    1.02
   8 -14  10    0.78    1.13
   8  14 -10    3.69    1.82
  -8 -14 -10    2.13    1.43
   8 -14  10    3.15    1.28
   8 -14 -10    1.84    0.95
   8 -14 -10    1.09    1.28
  -8 -14  10    2.53    1.57
  -8 -14  10    2.64    1.28
  -8 -14  10    3.44    1.95
 -10 -14 -10    1.16    1.62
  10  14 -10    0.67    2.08
  10 -14  10    0.20    1.20
  10 -14  10    1.34    1.27
 -10 -14  10    2.06    2.04
  10 -14 -10    0.68    1.27
  10 -14 -10   -0.36    0.89
 -12 -14 -10   -1.49    1.80
  12  14 -10    2.26    1.90
  12 -14 -10    0.43    1.43
 -12 -14  10   -0.62    2.07
  12  14  10   -0.62    1.31
  14  14 -10   -1.25    1.53
  14 -14 -10   -0.65    1.58
   0 -16  10   29.13    2.44
   0 -16  10   29.24    2.08
   0 -16  10   28.48    2.34
   0 -16  10   32.87    2.61
   0 -16 -10   29.77    2.14
   2 -16  10    2.88    1.04
   2 -16  10    2.37    0.99
   2 -16  10    2.00    0.91
   2 -16  10    2.54    0.65
  -2 -16 -10    2.43    0.69
  -2 -16  10    1.73    0.65
  -2 -16  10    1.69    1.12
  -2 -16  10    2.10    1.11
   2 -16 -10    2.39    0.76
  -2 -16  10    1.42    0.93
   2 -16 -10    3.40    1.09
   4 -16  10   14.50    1.79
  -4 -16 -10   14.47    1.77
   4 -16  10   11.10    1.83
   4 -16  10   11.04    1.31
   4 -16  10   14.10    1.81
   4 -16 -10   10.72    2.25
   4 -16 -10   14.29    1.81
   4 -16 -10   12.09    1.45
  -4 -16  10   14.29    1.54
  -4 -16  10   14.56    2.01
  -4 -16  10   13.10    1.80
  -4 -16  10   15.23    1.85
  -6 -16 -10   28.65    2.72
   6 -16  10   28.71    2.58
   6 -16  10   26.62    2.68
  -6 -16  10   24.85    2.67
  -6 -16  10   27.28    2.30
   6 -16 -10   28.89    4.35
  -6 -16  10   26.72    2.76
   6 -16 -10   25.65    2.25
  -6 -16  10   27.11    3.12
   6 -16 -10   24.16    2.79
   8 -16  10    0.24    1.05
  -8 -16 -10    0.42    1.31
   8 -16  10    0.12    1.13
  -8 -16  10    1.01    1.54
  -8 -16  10    1.71    1.84
   8 -16 -10    0.24    1.27
   8 -16 -10    0.58    0.85
  -8 -16  10    0.70    1.33
  10  16 -10    4.43    2.08
  10 -16  10    3.89    1.41
 -10 -16 -10    6.15    1.90
 -10 -16  10    9.15    2.47
  12  16 -10   -0.50    1.66
 -12 -16 -10   -0.88    1.84
  12 -16 -10    0.31    1.51
  12  16  10   -1.36    1.30
 -12 -16  10   -0.68    2.21
  14  16 -10    1.75    1.69
  14 -16 -10    0.60    1.57
   0 -18  10  118.39    6.85
   0 -18  10  128.60    6.72
   0 -18 -10  129.05    6.76
   0 -18 -10  116.82    6.85
   0 -18  10  125.99    7.04
   0 -18  10  125.97    7.04
   2 -18  10    0.36    0.92
  -2 -18 -10    0.06    0.59
   2 -18  10    1.77    0.99
   2 -18  10    1.19    0.59
   2 -18  10    2.66    1.08
   2 -18 -10    0.74    0.67
  -2 -18  10   -0.38    0.58
  -2 -18  10    0.24    1.02
   2 -18 -10    1.31    1.17
  -2 -18  10    1.75    0.93
  -2 -18  10    1.36    1.15
   4 -18  10   75.40    4.65
  -4 -18 -10   70.70    4.66
   4 -18  10   72.05    4.30
   4 -18  10   62.60    4.86
   4 -18  10   70.32    4.82
  -4 -18  10   90.66    5.13
  -4 -18  10   73.75    4.70
  -4 -18  10   75.21    4.36
   4 -18 -10   72.96    4.72
  -4 -18  10   72.26    4.72
   4 -18 -10   80.49    4.49
   6 -18  10   36.15    2.58
   6 -18  10   41.01    3.18
   6 -18  10   35.99    3.23
  -6 -18 -10   34.67    3.18
  -6 -18  10   36.54    3.37
  -6 -18  10   40.92    3.62
  -6 -18  10   39.43    2.92
   6 -18 -10   43.99    3.48
   6 -18 -10   37.38    2.85
  -8 -18 -10    1.61    1.42
   8 -18  10    1.22    1.20
   8 -18  10    0.95    1.23
   8 -18 -10    1.78    0.99
  -8 -18  10    6.08    2.06
  -8 -18  10    2.76    1.44
   8 -18 -10    2.03    1.50
  -8 -18  10    1.81    1.71
  10  18 -10    5.00    2.01
  10 -18  10    4.30    1.52
 -10 -18 -10    4.87    1.86
 -10 -18  10    9.00    2.82
  12  18 -10    0.37    1.52
 -12 -18 -10    1.37    1.95
  12  18  10   -1.86    1.28
 -12 -18  10   -2.65    2.48
  12 -18 -10   -1.21    1.47
  14  18 -10    0.38    1.51
  14 -18 -10   -0.34    1.65
   0 -20  10   30.46    2.85
   0 -20  10   29.28    2.60
   0 -20  10   31.28    2.31
   0 -20 -10   23.87    2.70
   0 -20 -10   29.58    2.31
  -2 -20 -10    2.83    0.86
  -2 -20 -10    2.80    1.47
   2 -20  10    1.15    0.76
   2 -20  10    3.40    1.27
   2 -20  10    4.14    1.24
  -2 -20  10    1.21    0.78
   2 -20 -10    1.41    1.25
  -2 -20  10    4.05    1.42
   2 -20 -10    1.78    0.83
  -2 -20  10    2.31    1.35
   4 -20  10   37.43    3.31
   4 -20  10   39.29    3.18
   4 -20  10   38.98    2.72
   4 -20 -10   41.70    3.43
  -4 -20  10   36.95    2.82
   4 -20 -10   42.68    2.90
  -4 -20  10   37.76    3.52
  -4 -20  10   34.17    3.30
   6 -20  10   27.34    2.91
   6 -20  10   28.91    2.83
  -6 -20 -10   26.01    2.86
   6 -20  10   29.06    2.23
  -6 -20  10   30.27    3.19
   6 -20 -10   31.61    3.15
   6 -20 -10   27.97    2.50
  -6 -20  10   30.55    2.66
  -6 -20  10   29.29    3.29
  -8 -20 -10    1.71    1.40
   8 -20  10    2.05    1.37
  -8 -20  10    0.80    1.88
   8 -20 -10    2.33    1.00
  -8 -20  10    1.16    1.39
   8 -20 -10    1.34    1.49
  -8 -20  10    2.13    2.13
  10 -20  10    0.29    1.36
 -10 -20 -10    2.82    1.65
  10  20 -10    0.31    1.62
  10 -20 -10    1.88    1.16
 -10 -20  10   -1.06    2.54
  10 -20 -10    0.85    1.65
  12  20 -10    0.89    1.45
  12 -20 -10   -0.41    1.59
   0 -22  10    5.21    1.12
   0 -22  10    5.51    1.51
   0 -22 -10    5.84    1.14
   0 -22  10    5.67    1.58
   0 -22 -10    6.94    1.65
   2 -22  10   -0.89    1.19
  -2 -22 -10   -0.63    0.77
   2 -22  10    0.48    0.97
  -2 -22 -10   -2.29    1.32
   2 -22  10    0.31    0.70
  -2 -22  10    0.11    1.42
   2 -22 -10   -0.07    0.75
  -2 -22  10    0.44    0.76
  -2 -22  10    0.85    1.45
   2 -22 -10   -0.73    1.25
   4 -22  10    5.45    1.11
   4 -22  10    7.56    1.71
   4 -22  10    7.38    1.70
   4 -22 -10    8.78    1.87
   4 -22 -10    6.71    1.24
  -4 -22  10    5.06    1.92
  -4 -22  10    6.98    1.93
  -4 -22  10    8.28    1.35
   6 -22  10    1.32    0.78
   6 -22  10    1.36    1.27
   6 -22 -10    1.47    1.00
  -6 -22  10    1.61    1.17
  -6 -22  10    0.30    1.95
   6 -22 -10    2.36    1.62
  -6 -22  10    2.50    1.74
  -8 -22 -10    3.12    1.59
   8 -22  10    3.81    1.56
   8 -22 -10    4.79    1.89
  -8 -22  10    6.96    1.67
  -8 -22  10    5.33    2.24
  -8 -22  10    3.51    2.71
   8 -22 -10    5.16    1.24
  10 -22  10    0.26    1.40
 -10 -22 -10    0.02    1.57
  10  22 -10   -2.61    1.43
  10 -22 -10    0.08    1.60
 -10 -22  10    1.97    2.74
  10 -22 -10    0.51    1.19
  12  22 -10    1.36    1.45
  12 -22 -10    4.04    1.80
   0 -24 -10   -0.26    0.80
   0 -24  10    0.63    1.37
   0 -24  10    0.38    1.28
   0 -24 -10   -1.19    1.35
   0 -24  10    0.69    0.82
   2 -24  10    3.05    1.06
   2 -24  10    3.21    1.45
  -2 -24 -10    4.28    1.16
   2 -24  10    1.84    1.42
  -2 -24  10    2.93    1.08
  -2 -24  10    3.35    1.81
   2 -24 -10    2.62    1.13
   2 -24 -10    3.98    1.72
  -2 -24  10    3.88    1.74
   4 -24  10    9.66    1.93
   4 -24  10   10.03    2.01
   4 -24  10   10.71    1.52
   4 -24 -10   13.80    2.36
   4 -24 -10    9.39    1.54
  -4 -24  10   13.55    2.67
  -4 -24  10   15.20    2.52
  -4 -24  10    9.00    1.62
   6 -24  10    8.39    1.37
   6 -24  10    7.30    1.86
   6 -24 -10    9.26    2.19
  -6 -24  10    9.88    2.34
  -6 -24  10    7.78    1.75
   6 -24 -10    7.15    1.46
  -6 -24  10    8.20    2.96
   8 -24  10   -0.60    1.38
  -8 -24  10    0.70    2.12
   8 -24 -10    1.47    1.78
  -8 -24  10    3.59    2.56
  -8 -24  10    0.77    1.52
   8 -24 -10   -0.08    1.01
  10 -24  10   -0.13    1.47
  10  24 -10   -2.54    1.34
  10 -24 -10   -1.53    1.68
  10 -24 -10   -1.69    1.08
   0 -26  10   16.86    2.68
   0 -26  10   20.33    2.17
   0 -26 -10   21.17    2.71
   0 -26 -10   20.09    2.26
   0 -26  10   21.29    2.92
   2 -26  10    0.39    1.48
  -2 -26 -10   -0.63    1.04
   2 -26  10    0.04    0.92
   2 -26  10    1.19    1.40
   2 -26 -10   -0.18    0.92
  -2 -26  10    2.01    1.75
  -2 -26  10   -0.57    1.78
  -2 -26  10    0.35    0.89
   2 -26 -10    0.69    1.53
   4 -26  10    2.40    1.41
   4 -26  10    1.94    0.98
  -4 -26  10   -0.50    2.11
  -4 -26  10    1.18    1.20
   4 -26 -10    0.81    1.02
  -4 -26  10    0.78    1.96
   4 -26 -10    1.10    1.78
   6 -26  10    1.59    1.50
   6 -26  10    2.48    1.03
  -6 -26  10    8.29    2.68
   6 -26 -10    1.71    1.98
  -6 -26  10    1.82    2.13
  -6 -26  10    0.66    1.43
   6 -26 -10    2.07    1.17
   8 -26  10    1.58    1.60
   8 -26 -10    4.48    2.01
  -8 -26  10    2.65    2.27
   8 -26 -10    2.11    1.18
  10  26 -10   -0.14    1.56
  10 -26 -10    3.62    1.40
   0 -28  10   33.90    2.94
   0 -28 -10   34.27    2.99
   0 -28  10   39.33    4.01
   0 -28  10   30.27    3.77
   2 -28  10    3.21    1.10
  -2 -28 -10    1.18    1.19
   2 -28  10    0.28    1.57
  -2 -28  10    1.33    1.13
  -2 -28  10    0.20    1.95
   2 -28 -10    0.41    1.08
  -2 -28  10    6.18    2.28
   2 -28 -10    1.29    1.87
   4 -28  10    4.41    1.25
   4 -28  10    3.81    1.65
  -4 -28  10    2.14    1.39
  -4 -28  10    2.13    2.13
   4 -28 -10    1.83    1.97
  -4 -28  10    3.77    3.00
   4 -28 -10    3.53    1.32
   6 -28  10    6.53    1.40
   6 -28  10    7.25    1.78
  -6 -28  10    3.94    2.15
   6 -28 -10    5.85    2.19
   6 -28 -10    7.65    1.52
  -6 -28  10    6.28    1.73
   8 -28  10   -0.15    1.82
   8 -28 -10    0.10    1.19
   8 -28 -10   -0.78    2.03
  -8 -28  10    0.37    1.99
   0 -30  10   12.02    2.65
   0 -30  10   14.88    1.94
   0 -30 -10   11.57    1.86
  -2 -30 -10    7.40    1.58
   2 -30  10    7.49    1.47
   2 -30  10   11.29    2.58
  -2 -30  10    8.35    1.68
  -2 -30  10    6.94    2.39
   2 -30 -10    7.95    1.51
   4 -30  10    7.53    1.57
   4 -30  10    7.57    2.01
   4 -30 -10    7.20    1.56
  -4 -30  10    7.58    2.32
   4 -30 -10    8.85    2.30
  -4 -30  10    4.54    1.61
   6 -30  10    5.72    1.45
   6 -30 -10    4.81    1.40
  -6 -30  10    4.46    1.60
  -6 -30  10    7.99    2.65
   0 -32 -10    8.45    1.63
   0 -32  10   10.56    1.70
   0 -32  10    4.71    3.11
   2 -32  10   -0.56    0.96
  -2 -32  10   -0.01    1.02
   2 -32 -10   -0.14    1.10
  -1  -1 -11  163.54    8.44
   1  -1  11  167.63    8.04
  -1  -1 -11  149.06    7.97
  -1   1  11  150.35    8.14
   1  -1  11  168.26    8.26
  -1   1  11  149.81    7.96
  -1   1  11  149.87    8.36
   1  -1  11  157.07    8.39
   1  -1  11  143.15    7.87
  -1  -1  11  146.93    8.36
  -1   1 -11  161.14    8.05
   1   1  11  150.60    7.87
  -1  -1  11  150.26    7.87
  -1  -1  11  152.14    8.00
  -1  -1  11  164.52    8.25
   1   1  11  151.07    7.94
   1  -1 -11  165.71    8.50
  -3   1  11    6.67    1.32
  -3   1  11    5.60    1.23
   3  -1  11    6.42    1.03
   3  -1  11    5.68    0.84
  -3  -1 -11    5.95    0.97
  -3  -1  11    5.08    0.86
   3  -1 -11    4.73    1.42
  -3  -1  11    6.40    1.34
   3   1  11    6.79    0.89
  -3  -1  11    6.87    1.39
   5   1 -11  105.17    5.72
   5  -1  11  104.01    5.69
   5   1  11  101.82    5.69
   5  -1 -11  111.97    6.69
   7  -1  11   38.76    2.79
   7   1 -11   37.58    2.90
   7  -1 -11   39.08    2.84
   7   1  11   40.75    2.83
   7  -1 -11   44.53    4.42
   9  -1  11   10.22    1.49
   9   1 -11   10.70    1.81
   9   1 -11   10.18    2.76
   9  -1 -11    7.46    1.57
   9  -1 -11    9.96    2.85
   9   1  11   10.07    1.49
  11  -1  11   25.46    2.77
  11   1 -11   28.69    3.25
  11   1  11   23.19    2.63
  11  -1 -11   26.44    3.06
  13   1 -11    0.12    1.86
  13  -1  11    1.08    1.24
  13   1  11   -1.19    1.14
  13  -1 -11   -1.30    1.77
  15   1 -11    1.59    2.01
  15  -1  11    3.45    1.61
  15   1  11    2.87    1.48
  15  -1 -11    2.27    2.06
  17   1 -11   -0.05    1.83
  17  -1 -11    0.02    1.87
   1  -3  11   25.17    1.72
   1  -3  11   26.27    2.17
  -1  -3 -11   26.27    2.42
  -1   3  11   24.29    1.68
   1  -3  11   24.78    2.12
   1  -3  11   26.11    1.90
  -1   3  11   24.05    2.05
   1  -3 -11   26.65    2.55
  -1  -3  11   24.14    2.17
   1   3  11   23.40    1.64
   1   3  11   24.72    1.60
  -1  -3  11   24.75    1.81
  -1  -3  11   24.98    1.74
  -1  -3  11   26.21    2.15
   3  -3  11    8.60    1.43
   3  -3  11    7.38    1.12
  -3   3  11    4.90    1.18
   3  -3  11    5.39    0.87
  -3   3  11    4.82    1.19
  -3  -3 -11    5.94    0.93
   3  -3 -11    5.39    1.34
  -3  -3  11    4.45    0.94
   3   3  11    5.23    0.80
  -3  -3  11    4.48    0.91
  -3  -3  11    4.31    1.18
   5   3 -11    9.24    1.25
   5  -3  11   11.02    1.32
   5  -3 -11    9.55    1.98
   5   3  11    9.49    1.17
  -5  -3  11    9.90    1.35
   7  -3  11   32.19    2.33
   7   3 -11   27.00    2.50
   7  -3 -11   34.29    4.43
   7  -3 -11   28.94    2.45
   7   3  11   29.81    2.36
   9   3 -11   24.68    2.76
   9  -3  11   23.42    2.24
   9   3  11   21.95    2.34
   9  -3 -11   21.54    2.34
   9  -3 -11   26.23    3.63
  -9  -3  11   22.63    2.12
  11  -3  11   -1.09    0.96
  11   3 -11   -0.83    1.85
  11  -3 -11   -1.98    1.45
  11   3  11   -0.54    1.06
  13  -3  11   -1.33    1.24
  13   3 -11    0.44    1.90
  13  -3 -11   -1.60    1.66
  13   3  11   -0.99    1.22
  15   3 -11   -0.39    1.75
  15  -3  11    0.00    1.61
  15  -3 -11    0.48    1.88
  15   3  11    0.70    1.39
  17   3 -11    0.40    1.81
  17  -3 -11    0.05    1.91
   1  -5  11    8.77    1.35
  -1   5  11    6.74    1.18
   1  -5  11    7.26    0.98
   1  -5  11    5.50    1.10
   1  -5  11    6.76    1.03
  -1  -5  11    6.77    0.98
   1   5  11    5.96    0.75
  -1  -5  11    8.46    1.33
  -1  -5  11    6.15    0.95
  -1  -5  11    7.45    1.34
   3  -5  11    6.84    1.37
   3  -5  11    6.72    1.12
  -3   5  11    5.73    1.17
   3  -5  11    6.21    1.19
   3  -5  11    5.58    0.90
  -3  -5 -11    4.66    1.11
  -3  -5  11    5.47    1.29
  -3  -5  11    6.91    1.04
  -3  -5  11    5.82    0.80
   3  -5 -11    5.66    0.77
  -3  -5  11    6.22    1.06
   3  -5 -11    5.75    1.30
   3   5  11    5.86    0.86
   5   5 -11    6.37    1.18
   5  -5  11    4.71    1.35
   5  -5  11    6.46    1.02
  -5  -5  11    8.17    1.27
  -5  -5  11    6.20    0.91
   5  -5 -11    8.94    1.36
   5  -5 -11    6.43    1.74
   5   5  11    5.58    0.97
   5  -5 -11    6.74    0.90
   7  -5  11    8.26    1.27
   7  -5  11    7.13    1.67
   7   5 -11    8.99    1.41
  -7  -5  11    8.50    1.17
   7   5  11   10.70    1.39
   7  -5 -11   16.19    1.95
  -7  -5  11    8.62    1.47
   7  -5 -11   14.53    2.95
   9  -5  11    2.87    1.79
   9  -5  11    6.59    1.31
   9   5 -11    3.68    1.73
   9   5  11    5.33    1.28
  -9  -5  11    7.88    1.25
   9  -5 -11    6.10    1.41
   9  -5 -11    6.38    2.92
  11  -5  11    1.48    1.25
  11   5 -11   -2.72    1.93
  11   5  11   -1.46    1.04
  11  -5 -11   -1.73    1.43
  13   5 -11   -2.18    1.87
  13  -5  11   -0.03    1.42
  13   5  11   -1.83    1.16
  13  -5 -11   -2.11    1.55
  15   5 -11   -2.80    1.74
  15  -5 -11   -0.46    1.89
  15   5  11    0.07    1.36
  -1  -7 -11   41.78    3.08
   1  -7  11   32.56    2.57
   1  -7  11   29.04    2.58
   1  -7  11   33.02    2.31
   1  -7  11   30.29    2.22
   1   7  11   36.31    2.08
  -1  -7  11   36.09    2.83
  -1  -7  11   33.88    2.29
   1  -7 -11   32.55    2.96
  -1  -7  11   33.42    2.27
   3  -7  11   10.63    1.51
  -3   7  11   11.24    1.45
  -3  -7 -11    9.05    1.53
   3  -7  11   12.90    1.52
   3  -7  11   12.30    1.87
   3  -7  11    9.80    1.22
  -3  -7 -11   10.60    1.18
   3   7  11   10.18    1.25
  -3  -7  11   11.89    1.33
  -3  -7  11    9.80    1.11
   3  -7 -11   10.36    1.72
  -3  -7  11    9.21    1.19
   3  -7 -11    8.80    0.99
   5  -7  11   76.67    4.88
   5  -7  11   78.94    4.42
  -5  -7 -11   69.17    4.30
   5  -7 -11   77.25    5.42
  -5  -7  11   73.68    4.47
   5   7  11   75.03    4.32
  -5  -7  11   73.55    4.16
   5  -7 -11   75.05    4.20
  -5  -7  11   74.78    4.39
   7   7 -11   29.02    2.50
   7  -7  11   29.86    2.47
   7  -7  11   27.75    2.97
   7  -7 -11   32.05    4.67
   7  -7 -11   27.09    2.14
   7  -7 -11   27.96    2.54
  -7  -7  11   30.02    2.18
  -7  -7  11   28.53    2.72
   9  -7  11    0.96    1.73
   9  -7  11    4.00    1.25
   9   7 -11    1.34    1.60
   9  -7 -11    0.90    2.91
   9  -7 -11    3.08    1.32
   9   7  11    3.64    1.21
  -9  -7  11    4.16    1.54
  -9  -7  11    2.85    1.17
  11  -7  11    4.53    1.43
  11   7 -11    3.96    2.03
  11   7  11    3.13    1.33
  11  -7 -11    1.91    1.60
  13  -7  11    1.44    1.50
  13   7 -11    0.17    1.97
  13  -7 -11    0.16    1.71
  13   7  11    1.10    1.36
  15   7 -11   -0.44    1.69
  15  -7 -11    4.31    1.79
  15   7  11    1.57    1.42
   1  -9  11   58.68    3.42
   1  -9  11   55.65    3.13
   1  -9  11   56.34    3.43
   1  -9  11   54.19    3.82
   1  -9 -11   50.22    3.13
   1  -9 -11   57.07    4.08
  -1  -9  11   56.98    3.41
  -1  -9  11   58.86    3.99
  -1  -9  11   59.55    3.42
  -1  -9  11   54.92    3.14
   3  -9  11   14.64    1.76
   3  -9  11   15.25    1.89
   3  -9  11   14.08    1.55
  -3  -9 -11    9.78    1.69
  -3  -9 -11   12.02    1.45
   3  -9 -11   16.04    2.18
   3  -9 -11   12.81    1.21
  -3  -9  11   15.49    1.31
  -3  -9  11   19.18    1.72
  -3  -9  11   14.67    1.58
  -3  -9  11   16.69    1.67
   5  -9  11  163.10    8.91
   5  -9  11  141.01    8.80
   5  -9  11  164.80    8.56
  -5  -9 -11  147.44    8.42
   5  -9 -11  162.62    8.42
  -5  -9  11  165.75    8.49
   5  -9 -11  163.67    8.33
   5  -9 -11  152.87    9.55
  -5  -9  11  173.34    8.67
  -5  -9  11  170.67    8.67
  -5  -9  11  154.81    8.26
   7  -9  11   28.44    2.44
   7   9 -11   30.93    2.44
   7  -9  11   27.21    2.99
  -7  -9  11   22.11    2.69
  -7  -9  11   26.01    2.14
   7  -9 -11   25.05    3.74
   7  -9 -11   28.84    2.19
   7  -9 -11   27.12    2.45
   9  -9  11    5.07    3.03
  -9  -9 -11   16.41    2.14
   9  -9  11   12.13    1.75
   9   9 -11   11.72    2.02
  -9  -9  11   18.12    2.05
   9   9  11   12.49    1.82
   9  -9 -11    6.88    5.78
  -9  -9  11   16.02    2.16
   9  -9 -11   11.80    1.78
  11   9 -11    6.34    2.06
  11  -9  11    4.53    1.56
  11  -9 -11    2.11    1.56
  11   9  11    1.96    1.29
  13  -9  11    2.07    1.46
  13   9 -11   -1.24    1.92
  13   9  11    1.13    1.29
  13  -9 -11    1.38    1.56
  15   9 -11    1.19    1.74
  15  -9 -11    3.85    1.78
   1 -11  11  188.86    9.74
   1 -11  11  186.51   10.31
   1 -11  11  183.63    9.74
   1 -11  11  180.24    9.45
  -1 -11 -11  170.23   10.29
  -1 -11 -11  175.26    9.43
   1 -11 -11  191.32    9.51
  -1 -11  11  194.06    9.58
  -1 -11  11  189.09    9.47
  -1 -11  11  195.86    9.73
  -1 -11  11  184.37    9.74
   1 -11 -11  193.36   10.42
  -3 -11 -11   85.75    5.70
   3 -11  11   92.55    5.11
   3 -11  11   84.35    4.70
   3 -11  11   78.74    5.38
  -3 -11 -11   83.02    4.89
   3 -11  11   85.79    5.17
  -3 -11  11   89.18    4.97
  -3 -11  11   93.58    5.16
  -3 -11  11   93.33    4.82
  -3 -11  11  100.19    5.22
   3 -11 -11   87.44    4.82
   3 -11 -11   86.23    5.87
  -5 -11 -11   68.24    4.33
   5 -11  11   73.13    4.42
   5 -11 -11   69.53    4.08
   5 -11 -11   68.38    4.24
   5 -11 -11   68.44    5.62
  -5 -11  11   75.50    4.44
  -5 -11  11   70.65    4.32
  -5 -11  11   79.04    4.65
  -5 -11  11   71.08    4.06
  -7 -11 -11   26.74    2.57
   7 -11  11   23.78    2.34
   7  11 -11   21.57    2.42
   7 -11 -11   24.65    1.97
   7 -11 -11   21.88    3.52
  -7 -11  11   22.96    1.99
  -7 -11  11   23.12    2.56
  -7 -11  11   14.88    2.11
   7 -11 -11   21.08    2.35
   9  11 -11    5.25    2.00
   9 -11  11    4.59    1.29
  -9 -11 -11    3.78    1.62
   9  11  11    4.80    1.31
   9 -11 -11    4.74    1.13
   9 -11 -11    6.30    1.46
  -9 -11  11    7.17    1.42
  -9 -11  11    1.94    1.84
 -11 -11 -11    2.28    1.84
  11 -11  11    4.91    1.44
  11  11 -11    4.59    2.06
  11 -11 -11    3.12    1.53
 -11 -11  11    4.01    1.99
  11  11  11    2.49    1.42
  13  11 -11    1.65    1.99
  13  11  11   -0.22    1.25
  13 -11 -11   -3.78    1.67
  15  11 -11    0.92    1.77
  15 -11 -11    0.90    1.69
   1 -13  11   37.36    2.70
  -1 -13 -11   32.89    3.34
   1 -13  11   36.09    2.71
  -1 -13 -11   36.14    2.36
   1 -13  11   39.04    2.38
   1 -13  11   35.38    2.54
  -1 -13  11   40.66    2.68
  -1 -13  11   40.99    2.82
  -1 -13  11   40.87    2.79
   1 -13 -11   37.19    2.42
  -1 -13  11   38.33    2.38
   3 -13  11    5.37    1.14
   3 -13  11    4.07    1.11
  -3 -13 -11    4.25    1.02
  -3 -13 -11    3.22    1.04
   3 -13  11    3.91    0.69
   3 -13 -11    4.74    1.06
  -3 -13  11    4.16    1.01
  -3 -13  11    4.68    0.84
   3 -13 -11    3.80    0.73
  -3 -13  11    5.21    1.24
   3 -13 -11    3.89    1.50
  -3 -13  11    4.57    1.16
   5 -13  11   49.39    3.43
   5 -13  11   45.61    2.91
  -5 -13 -11   43.92    3.38
   5 -13  11   48.33    3.27
  -5 -13  11   52.04    3.45
   5 -13 -11   47.98    3.09
  -5 -13  11   50.41    3.11
  -5 -13  11   57.82    3.74
   5 -13 -11   50.02    3.33
   5 -13 -11   54.80    4.84
  -5 -13  11   45.91    3.35
   7 -13  11    7.02    1.43
  -7 -13 -11    7.71    1.62
  -7 -13  11   10.66    1.42
  -7 -13  11    7.50    1.74
   7 -13 -11    4.72    2.44
   7 -13 -11    8.94    1.28
   7 -13 -11    7.61    1.51
  -7 -13  11    8.52    1.92
  -7 -13  11    9.16    1.59
  -9 -13 -11    2.95    1.50
   9 -13  11    2.92    1.28
   9 -13  11    1.81    1.58
   9  13 -11    3.06    1.99
   9 -13 -11    2.91    1.04
   9 -13 -11    3.40    1.34
  -9 -13  11    5.32    1.44
  -9 -13  11    0.62    1.88
 -11 -13 -11   -1.73    1.68
  11 -13  11    0.07    1.24
  11  13 -11   -0.84    1.74
  11  13  11   -2.46    1.18
  11 -13 -11   -1.97    1.36
 -11 -13  11   -3.13    1.91
  13  13 -11   -0.25    1.62
  13  13  11   -0.98    1.26
  13 -13 -11   -1.60    1.61
  15  13 -11    1.39    1.70
  15 -13 -11    0.24    1.65
   1 -15  11    1.20    0.81
  -1 -15 -11    0.77    0.56
   1 -15  11    0.96    0.50
   1 -15  11    0.51    0.83
   1 -15  11    1.33    0.83
  -1 -15  11    1.53    0.84
  -1 -15  11    1.27    1.01
  -1 -15  11    0.77    0.52
   1 -15 -11    2.23    0.63
  -1 -15  11    1.39    0.96
   3 -15  11    0.46    0.48
   3 -15  11    0.30    0.81
   3 -15  11   -0.04    0.77
  -3 -15 -11    0.90    0.83
   3 -15  11    0.41    0.80
  -3 -15 -11    0.67    0.56
  -3 -15  11   -1.57    0.86
  -3 -15  11   -0.43    0.56
  -3 -15  11    1.03    0.79
  -3 -15  11    0.51    0.96
   3 -15 -11    0.29    0.54
   3 -15 -11    0.85    0.89
   5 -15  11    0.04    0.43
   5 -15  11    0.42    0.94
   5 -15  11    1.35    0.96
  -5 -15 -11    1.26    1.02
   5 -15 -11    1.49    0.76
   5 -15 -11    0.65    1.08
  -5 -15  11    1.20    0.98
   5 -15 -11    3.20    1.77
  -5 -15  11   -0.51    1.07
  -5 -15  11   -0.63    0.70
  -5 -15  11   -1.31    1.19
   7 -15  11   -0.69    0.95
   7 -15  11   -0.44    0.95
  -7 -15 -11   -2.12    1.07
  -7 -15  11    0.26    1.40
   7 -15 -11   -0.33    0.77
  -7 -15  11    1.31    1.56
  -7 -15  11   -0.43    1.01
   7 -15 -11   -0.68    1.16
   9  15 -11    6.05    1.92
  -9 -15 -11    4.37    1.64
   9 -15  11    4.86    1.42
   9 -15  11    3.30    1.36
  -9 -15  11    3.26    2.01
   9 -15 -11    2.70    1.45
   9 -15 -11    1.35    0.99
  -9 -15  11    6.45    1.59
 -11 -15 -11    1.41    1.78
  11  15 -11    1.15    1.73
  11  15  11   -0.19    1.29
 -11 -15  11   -2.50    2.19
  13  15 -11    1.22    1.72
  13 -15 -11   -0.48    1.62
  13  15  11   -1.28    1.32
  15  15 -11   -2.50    1.51
  15 -15 -11   -2.23    1.73
   1 -17  11   56.10    3.28
   1 -17  11   47.79    3.38
   1 -17  11   48.74    3.57
   1 -17  11   51.37    3.61
  -1 -17 -11   55.54    3.31
  -1 -17  11   54.28    3.56
  -1 -17  11   50.87    3.19
   1 -17 -11   50.40    3.30
  -1 -17  11   51.41    3.63
  -1 -17  11   58.93    3.78
   3 -17  11   16.73    2.11
   3 -17  11   17.51    2.08
   3 -17  11   17.28    1.56
   3 -17  11   15.14    1.93
  -3 -17 -11   13.24    1.62
   3 -17 -11   19.76    1.72
  -3 -17  11   18.95    2.22
  -3 -17  11   17.21    2.16
  -3 -17  11   17.34    1.70
   3 -17 -11   19.62    2.09
  -3 -17  11   17.07    2.08
   5 -17  11   25.32    2.66
   5 -17  11   21.72    1.93
  -5 -17 -11   34.82    2.70
   5 -17  11   26.76    2.46
  -5 -17  11   23.58    2.71
  -5 -17  11   26.05    2.91
   5 -17 -11   27.09    2.77
   5 -17 -11   27.56    2.28
  -5 -17  11   30.35    2.87
  -5 -17  11   26.88    2.28
   7 -17  11    1.41    1.23
   7 -17  11    1.88    1.14
  -7 -17 -11    2.48    1.39
   7 -17 -11    1.95    1.48
  -7 -17  11    1.56    1.26
  -7 -17  11    2.21    1.56
  -7 -17  11    1.99    1.75
   7 -17 -11    1.88    0.95
   9 -17  11   10.85    1.88
   9  17 -11   11.89    2.14
   9 -17  11    7.64    1.68
  -9 -17 -11   12.56    2.09
  -9 -17  11   16.40    2.21
   9 -17 -11    8.78    1.48
   9 -17 -11    9.69    1.92
  -9 -17  11   10.82    2.56
  11  17 -11    1.60    1.68
 -11 -17 -11    2.00    1.77
  11  17  11    0.05    1.33
 -11 -17  11   -1.18    2.50
  13  17 -11    0.07    1.57
  13 -17 -11    0.22    1.48
   1 -19  11   36.43    3.05
   1 -19  11   34.73    2.53
  -1 -19 -11   36.68    2.59
   1 -19  11   32.54    2.76
   1 -19  11   33.65    3.00
  -1 -19  11   36.32    2.55
   1 -19 -11   36.52    2.62
  -1 -19  11   38.99    3.01
  -1 -19  11   36.79    3.08
   1 -19 -11   31.51    2.94
  -1 -19  11   35.55    2.95
   3 -19  11    1.00    1.01
   3 -19  11   -0.70    1.07
   3 -19  11    0.56    0.60
  -3 -19 -11   -0.08    0.77
   3 -19  11    0.77    1.03
  -3 -19  11   -0.60    1.23
  -3 -19  11    0.23    0.72
  -3 -19  11   -1.13    1.14
   3 -19 -11    1.28    1.26
   3 -19 -11    1.36    0.74
   5 -19  11   54.36    3.45
   5 -19  11   58.28    3.93
  -5 -19 -11   50.97    3.96
   5 -19  11   52.03    4.06
  -5 -19  11   55.16    4.15
   5 -19 -11   52.27    3.62
   5 -19 -11   55.38    4.05
  -5 -19  11   56.60    4.36
  -5 -19  11   60.31    3.67
   7 -19  11    1.03    1.18
  -7 -19 -11    1.42    1.32
   7 -19  11    0.15    1.12
  -7 -19  11   -0.59    1.19
   7 -19 -11   -0.17    0.85
   7 -19 -11   -0.27    1.43
  -7 -19  11    1.21    1.64
  -7 -19  11   -1.28    1.73
   9  19 -11    3.76    1.84
  -9 -19 -11    2.42    1.54
   9 -19  11    3.17    1.48
   9 -19 -11    1.64    1.75
  -9 -19  11    4.81    2.41
   9 -19 -11    2.73    1.08
  -9 -19  11    3.94    2.65
  11  19 -11    2.14    1.65
 -11 -19 -11    6.16    1.91
  11 -19 -11    3.28    1.90
 -11 -19  11    5.21    3.05
  11  19  11    1.96    1.58
  11 -19 -11    5.42    1.39
  13  19 -11   -0.36    1.52
  13 -19 -11   -0.61    1.69
   1 -21  11   18.20    2.45
   1 -21  11   19.67    2.39
   1 -21  11   23.05    2.09
  -1 -21 -11   24.57    2.14
  -1 -21  11   23.15    2.62
  -1 -21  11   21.94    2.01
   1 -21 -11   20.04    2.42
   1 -21 -11   24.30    2.13
  -1 -21  11   24.06    2.65
  -3 -21 -11    3.82    1.14
   3 -21  11    3.06    1.51
   3 -21  11    5.91    1.46
   3 -21  11    3.94    0.97
  -3 -21  11    4.43    1.11
   3 -21 -11    5.50    1.59
  -3 -21  11    5.32    1.67
  -3 -21  11    2.23    1.61
   3 -21 -11    4.77    1.07
   5 -21  11    1.31    1.21
   5 -21  11   -0.23    0.64
   5 -21  11   -0.71    1.14
  -5 -21  11    0.23    0.95
   5 -21 -11    0.30    0.81
  -5 -21  11   -0.09    1.58
   5 -21 -11    1.60    1.40
  -5 -21  11   -0.79    1.69
  -7 -21 -11    5.84    1.72
   7 -21  11    6.76    2.18
   7 -21  11    6.38    1.67
  -7 -21  11   10.75    1.83
  -7 -21  11    8.14    2.70
   7 -21 -11    9.05    1.95
   7 -21 -11    7.54    1.43
  -7 -21  11   11.03    2.29
  -9 -21 -11    2.23    1.67
   9  21 -11    2.11    1.67
   9 -21  11    4.82    1.62
   9 -21 -11    5.44    1.33
   9 -21 -11    4.87    1.92
  -9 -21  11    6.84    2.74
  11  21 -11    1.54    1.62
  11 -21 -11    3.57    1.34
  11 -21 -11    2.82    1.85
   1 -23  11   -0.11    1.27
   1 -23  11    0.71    0.76
   1 -23  11    1.30    1.27
  -1 -23 -11   -0.56    0.84
  -1 -23  11    1.83    0.91
   1 -23 -11    1.70    0.94
  -1 -23  11    1.17    1.43
  -1 -23  11    1.35    1.38
   1 -23 -11    1.49    1.37
   3 -23  11    0.38    0.70
  -3 -23 -11   -0.42    1.20
   3 -23  11    1.77    1.14
   3 -23  11   -0.52    1.28
   3 -23 -11    1.67    1.56
  -3 -23  11    2.78    1.70
  -3 -23  11    1.10    0.88
  -3 -23  11    1.42    1.64
   3 -23 -11    1.68    0.94
   5 -23  11    1.07    0.78
   5 -23  11    0.80    1.27
   5 -23  11    0.28    1.26
   5 -23 -11    1.34    1.61
  -5 -23  11   -1.49    1.64
   5 -23 -11    0.51    0.90
  -5 -23  11    0.17    1.91
  -5 -23  11   -0.97    0.98
   7 -23  11   -0.24    1.40
  -7 -23  11    1.07    1.29
   7 -23 -11    0.94    1.78
  -7 -23  11    2.56    1.99
   7 -23 -11    0.19    0.95
  -7 -23  11   -0.60    2.45
  -9 -23 -11    0.25    1.59
   9 -23  11   -0.70    1.39
   9  23 -11   -1.11    1.46
  -9 -23  11    3.17    2.57
   9 -23 -11    2.39    1.88
   9 -23 -11   -0.91    1.01
  11  23 -11    0.81    1.49
  11 -23 -11    0.29    1.17
  11 -23 -11   -0.26    1.69
  -1 -25 -11    2.21    1.06
   1 -25  11    0.80    1.47
   1 -25  11    1.15    1.53
   1 -25  11    0.07    0.73
  -1 -25  11    3.45    1.74
  -1 -25  11    0.71    0.91
  -1 -25  11    0.01    1.70
   1 -25 -11    0.72    0.96
   3 -25  11   16.23    2.40
   3 -25  11   11.72    2.31
   3 -25  11   15.49    1.91
  -3 -25  11   16.76    2.81
  -3 -25  11   17.12    2.02
   3 -25 -11   14.17    1.89
   3 -25 -11   15.94    2.46
  -3 -25  11   14.92    2.55
   5 -25  11    0.15    1.32
   5 -25  11   -0.34    0.75
   5 -25 -11    0.35    1.03
   5 -25 -11    1.67    1.83
  -5 -25  11    0.29    2.39
  -5 -25  11    0.23    1.30
  -5 -25  11    1.88    1.96
   7 -25  11    0.18    1.44
   7 -25 -11    2.20    1.21
  -7 -25  11    0.70    1.44
  -7 -25  11    7.54    2.69
   7 -25 -11    3.56    1.97
  -7 -25  11    3.49    2.20
   9  25 -11   -0.61    1.24
   9 -25 -11   -0.26    1.84
   9 -25 -11   -0.34    1.17
  -1 -27 -11   -0.02    1.09
   1 -27  11    0.30    0.94
   1 -27  11    2.19    1.69
   1 -27  11    2.16    1.88
   1 -27 -11    0.99    1.14
  -1 -27  11    1.39    1.77
  -1 -27  11    0.50    1.90
  -1 -27  11    2.16    1.06
   3 -27  11    0.61    1.37
   3 -27  11   -0.16    0.82
   3 -27  11    0.78    1.92
  -3 -27  11   -0.83    1.04
   3 -27 -11   -0.07    2.22
   3 -27 -11   -1.63    0.88
  -3 -27  11    1.12    2.11
  -3 -27  11    2.51    2.14
   5 -27  11   23.63    2.89
   5 -27  11   26.08    2.52
  -5 -27  11   25.25    2.77
  -5 -27  11   23.59    4.11
  -5 -27  11   23.22    3.17
   5 -27 -11   28.13    2.67
   5 -27 -11   27.27    3.27
   7 -27  11    1.41    1.64
   7 -27 -11    2.84    1.25
  -7 -27  11    1.92    1.42
   7 -27 -11    2.77    2.12
  -7 -27  11    3.29    2.20
   9 -27 -11    1.23    1.37
   1 -29  11   16.59    2.04
   1 -29  11   12.81    3.63
   1 -29  11   17.38    2.99
  -1 -29 -11   16.37    2.06
  -1 -29  11   14.79    2.85
  -1 -29  11   15.08    2.04
  -1 -29  11   16.16    4.56
   1 -29 -11   19.40    2.21
   3 -29  11    4.91    1.30
   3 -29  11    1.73    1.76
  -3 -29  11    2.40    1.38
   3 -29 -11    4.47    1.35
  -3 -29  11    3.29    2.25
   5 -29  11   23.54    2.47
   5 -29  11   18.93    2.58
  -5 -29  11   15.80    2.84
  -5 -29  11   18.08    2.32
   5 -29 -11   16.64    2.12
  -7 -29  11    8.03    1.82
   7 -29 -11    4.62    1.46
  -1 -31 -11    4.89    1.44
   1 -31  11    4.19    2.20
   1 -31  11    4.76    1.34
  -1 -31  11    2.67    2.20
   1 -31 -11    5.19    1.48
  -1 -31  11    7.48    1.46
   3 -31  11    4.17    1.29
   3 -31  11    0.87    2.30
   3 -31 -11    4.12    1.27
  -3 -31  11    1.38    1.22
  -3 -31  11   -0.95    2.14
   0   0  12  289.01   15.22
   0   0  12  327.14   15.60
   0   0  12  299.30   15.80
   0   0  12  313.68   15.39
  -2   0  12   38.54    2.52
  -2   0  12   41.58    2.94
   2   0  12   41.10    2.44
  -2   0  12   34.71    2.35
  -2   0  12   37.46    2.94
  -2   0 -12   45.08    3.12
   4   0  12    9.23    1.10
  -4   0  12    7.03    1.54
   4   0 -12   10.24    1.85
   6   0 -12  120.56    6.82
   6   0 -12  144.84    8.14
   6   0  12  123.38    6.88
   8   0  12   24.88    2.23
   8   0 -12   24.19    3.41
   8   0 -12   19.36    2.37
  10   0  12   45.15    3.40
  10   0 -12   36.58    5.75
  10   0 -12   46.71    3.59
  12   0  12    4.33    1.37
  12   0 -12    2.94    1.75
  14   0 -12   -2.25    1.78
  14   0  12    1.08    1.36
  16   0 -12   -1.90    1.86
   0   2  12  183.63    9.84
   0   2  12  166.49    9.18
   0  -2  12  197.26    9.68
   0  -2  12  176.43    9.83
   0  -2  12  196.78    9.46
   0  -2  12  174.77    9.28
   0  -2 -12  196.04    9.93
   0   2  12  177.80    9.39
  -2   2  12   13.73    1.68
  -2  -2 -12   15.08    2.01
  -2   2  12   14.35    1.81
   2  -2  12   13.41    1.29
   2  -2  12   20.77    2.01
   2  -2  12   16.18    1.52
  -2  -2  12   15.60    1.41
  -2  -2  12   14.23    1.37
   2   2  12   14.98    1.24
  -2  -2  12   15.53    1.86
   2  -2 -12   15.33    2.29
  -2  -2  12   14.97    1.89
  -4   2  12    6.31    1.44
   4  -2  12    8.98    1.48
   4  -2  12    7.77    1.02
   4   2  12    7.35    0.99
   4  -2 -12    5.71    1.59
  -4  -2  12    7.70    1.07
  -4  -2  12    5.11    1.32
   6   2 -12   21.87    2.15
   6  -2  12   22.29    1.90
   6  -2 -12   19.73    2.96
   6   2  12   20.83    1.94
   6  -2 -12   20.23    2.12
   8   2 -12   -0.49    1.29
   8  -2  12   -0.25    0.83
   8  -2 -12    0.67    2.33
   8   2  12    2.25    1.05
   8  -2 -12    0.11    1.17
  10  -2  12   34.24    2.94
  10   2 -12   34.96    3.39
  10   2  12   32.27    2.98
  10  -2 -12   31.85    3.01
 -10  -2  12   39.58    2.89
  10  -2 -12   22.79    6.38
  12  -2  12    3.08    1.29
  12   2 -12    3.11    1.89
  12   2  12   -0.26    1.16
  12  -2 -12    0.08    1.56
  14  -2  12    2.64    1.43
  14   2 -12   -1.55    1.73
  14  -2 -12   -1.87    1.85
  14   2  12    0.15    1.24
  16   2 -12    0.19    1.89
  16  -2 -12   -0.67    1.92
   0  -4  12   44.21    2.82
   0  -4  12   54.81    3.03
   0  -4  12   47.43    3.36
   0  -4 -12   50.17    3.58
   0   4  12   44.98    2.65
   0  -4  12   50.04    3.25
   2  -4  12    0.57    0.80
  -2  -4 -12   -0.38    0.58
   2  -4  12    0.68    0.50
   2  -4  12    1.08    0.68
  -2  -4 -12    0.68    0.85
  -2   4  12    0.02    0.65
   2  -4  12    0.09    0.58
  -2  -4  12   -0.13    0.71
  -2  -4  12    0.29    0.88
   2   4  12    0.02    0.43
  -2  -4  12   -0.28    0.52
   2  -4 -12    1.17    0.96
  -2  -4  12   -0.17    0.62
   4  -4  12    2.91    0.82
  -4   4  12    3.64    1.14
  -4   4  12    2.93    1.28
   4  -4  12    3.47    1.10
   4  -4 -12    2.81    1.32
  -4  -4  12    4.04    0.99
  -4  -4  12    2.11    0.89
   4   4  12    3.18    0.77
   6  -4  12    5.51    1.49
   6  -4  12    6.45    1.18
   6   4 -12    8.20    1.30
  -6  -4  12    7.36    1.05
  -6  -4  12    6.15    1.35
   6  -4 -12    7.95    1.38
   6  -4 -12    8.33    2.20
   6   4  12    9.42    1.25
   8  -4  12    1.31    0.95
   8   4 -12    0.75    1.24
   8  -4  12    1.21    1.26
  -8  -4  12    0.97    0.90
   8  -4 -12    4.09    2.63
   8   4  12    3.53    1.04
  10  -4  12    1.14    1.08
 -10  -4  12    2.03    1.19
  10  -4 -12    0.29    1.28
  10   4  12   -1.44    1.05
  12   4 -12   -0.57    1.95
  12  -4  12    0.82    1.28
  12   4  12    1.28    1.19
  12  -4 -12   -0.21    1.52
  14  -4  12   -1.51    1.57
  14   4 -12   -0.19    1.98
  14   4  12    0.36    1.30
  14  -4 -12   -0.27    1.83
  16   4 -12   -4.33    1.81
  16  -4 -12   -0.64    1.82
   0  -6  12   15.66    1.90
   0  -6  12   16.72    1.56
   0  -6 -12   19.64    2.17
   0  -6  12   15.09    1.46
   0  -6  12   16.70    1.95
   2  -6  12    6.97    1.12
  -2  -6 -12    4.68    1.18
   2  -6  12    4.73    1.10
   2  -6  12    6.59    1.31
   2  -6  12    5.15    0.89
  -2   6  12    4.64    1.08
  -2  -6  12    5.86    0.98
   2   6  12    5.43    0.81
  -2  -6  12    6.35    0.81
   2  -6 -12    6.73    1.39
   2  -6 -12    7.70    0.90
  -2  -6  12    5.80    1.00
  -2  -6  12    6.51    1.36
  -4   6  12   32.95    2.83
   4  -6  12   32.02    2.81
   4  -6  12   34.90    2.45
  -4   6  12   33.04    3.07
   4  -6  12   33.88    2.93
   4   6  12   36.16    2.36
  -4  -6  12   34.51    2.20
   4  -6 -12   33.02    2.19
  -4  -6  12   36.96    2.57
   4  -6 -12   36.08    3.32
  -4  -6  12   35.88    2.61
   6   6 -12   92.22    5.51
   6  -6  12   97.10    6.16
   6  -6  12  102.90    5.69
  -6  -6  12   94.97    5.39
   6   6  12  102.88    5.63
  -6  -6  12  100.11    5.69
   6  -6 -12  118.37    7.29
   6  -6 -12  101.72    5.66
   8  -6  12    1.04    0.97
   8   6 -12    1.83    1.35
   8  -6  12    1.07    1.34
  -8  -6  12    0.15    0.88
  -8  -6  12    1.49    1.16
   8  -6 -12   -0.79    2.67
   8  -6 -12    3.14    1.25
   8   6  12    0.30    0.90
  10   6 -12    0.66    1.92
  10  -6  12    3.67    1.26
 -10  -6  12    4.60    1.60
  10   6  12    3.48    1.30
  10  -6 -12    1.99    1.39
  12  -6  12    2.09    1.39
  12   6 -12   -1.07    1.98
  12  -6 -12   -2.35    1.46
  12   6  12    0.83    1.22
  14  -6  12    0.02    1.60
  14   6 -12    3.74    1.96
  14  -6 -12    1.12    1.81
  14   6  12    1.00    1.28
  16   6 -12    2.86    1.85
  16  -6 -12    0.66    1.81
   0  -8  12   47.21    3.00
   0  -8  12   48.08    2.95
   0  -8  12   45.50    2.69
   0  -8  12   44.55    3.39
  -2  -8 -12   -0.55    0.78
   2  -8  12    0.18    0.36
   2  -8  12    0.16    0.62
  -2   8  12   -0.55    0.63
   2  -8  12    0.51    0.56
   2  -8  12    0.45    0.74
  -2  -8  12    0.55    0.71
   2  -8 -12    0.09    0.98
   2  -8 -12   -0.14    0.41
  -2  -8  12   -0.44    0.55
  -2  -8  12   -0.13    0.68
   2   8  12    0.32    0.51
  -2  -8  12    0.11    0.46
   4  -8  12  216.02   12.24
   4  -8  12  241.44   12.23
   4  -8  12  243.40   11.86
  -4  -8 -12  192.49   11.56
   4  -8 -12  233.70   12.61
  -4  -8  12  240.77   11.89
  -4  -8  12  223.11   11.66
  -4  -8  12  233.17   11.58
   4   8  12  232.26   11.70
   4  -8 -12  226.02   11.60
  -4  -8  12  237.41   11.83
   6  -8  12   38.76    3.51
   6  -8  12   49.36    3.21
   6   8 -12   42.49    3.01
   6  -8  12   45.27    3.70
   6  -8 -12   44.70    3.13
   6  -8 -12   48.59    2.94
  -6  -8  12   46.68    3.39
  -6  -8  12   41.33    2.84
   6  -8 -12   50.84    4.98
  -6  -8  12   46.88    3.36
  -8  -8 -12    4.59    1.41
   8  -8  12    2.73    1.63
   8  -8  12    3.74    1.07
   8   8 -12    4.10    1.46
  -8  -8  12    3.92    1.09
  -8  -8  12    0.52    1.49
   8  -8 -12    3.99    1.27
   8   8  12    5.56    1.26
   8  -8 -12    0.33    2.65
  10  -8  12    6.06    1.47
  10   8 -12    6.49    2.02
  10   8  12    3.97    1.36
 -10  -8  12   12.76    2.62
  10  -8 -12    5.92    1.59
  12   8 -12   -0.31    1.93
  12  -8  12    2.78    1.46
  12  -8 -12   -1.74    1.42
  12   8  12    1.46    1.24
  14   8 -12    0.35    1.84
  14  -8  12    2.63    2.23
  14  -8 -12    0.50    1.69
  14   8  12    2.79    1.38
  16   8 -12    2.11    1.87
  16  -8 -12    1.96    1.88
   0 -10  12  222.74   11.50
   0 -10 -12  226.76   11.28
   0 -10 -12  244.24   12.31
   0 -10  12  215.42   11.26
   0 -10  12  220.41   12.17
   0 -10  12  213.57   11.53
   2 -10  12   17.09    2.17
   2 -10  12   14.15    1.67
   2 -10  12   14.42    1.72
  -2 -10 -12   16.35    1.48
  -2  10  12   16.10    1.80
   2 -10  12   15.76    1.25
  -2 -10 -12   11.78    1.22
  -2 -10 -12   11.24    1.88
  -2 -10  12   16.56    1.68
   2  10  12   18.04    1.52
  -2 -10  12   14.79    1.63
   2 -10 -12   16.44    2.26
   2 -10 -12   14.16    1.33
  -2 -10  12   14.99    1.31
   4 -10  12   82.33    5.43
   4 -10  12   81.58    4.59
   4 -10  12   88.95    5.06
  -4 -10 -12   81.74    4.85
  -4 -10  12   93.51    5.17
  -4 -10  12   88.11    4.92
  -4 -10  12   93.82    5.13
   4 -10 -12   83.54    4.73
  -4 -10  12   90.78    4.77
   4 -10 -12   81.45    5.98
   6 -10  12   96.32    5.43
  -6 -10 -12   96.80    5.35
  -6 -10  12   91.27    5.33
   6 -10 -12   85.91    6.78
   6 -10 -12   85.70    5.27
   6 -10 -12   94.85    5.17
  -6 -10  12   88.87    5.08
  -6 -10  12   88.99    5.55
  -6 -10  12   87.64    5.50
   6  10  12   95.70    5.34
   8  10 -12    1.95    1.50
   8 -10  12   -0.16    0.88
  -8 -10  12   -2.90    1.60
  -8 -10  12   -0.08    0.93
   8 -10 -12    0.02    1.03
   8 -10 -12   -0.91    2.61
  -8 -10  12   -2.25    1.17
   8 -10 -12   -0.15    0.77
  10 -10  12    4.04    1.37
  10  10 -12    4.06    1.87
  10  10  12    2.31    1.26
 -10 -10  12    6.05    1.92
  10 -10 -12    4.85    1.43
  12  10 -12    1.97    1.91
  12 -10  12    1.37    1.34
  12  10  12   -0.03    1.20
  12 -10 -12    0.65    1.32
  14  10 -12    2.05    1.87
  14 -10 -12   -2.15    1.59
  14  10  12    2.31    1.41
  16  10 -12    1.62    1.89
  16 -10 -12    2.81    2.13
   0 -12  12   43.83    2.94
   0 -12 -12   40.15    3.58
   0 -12  12   44.10    3.65
   0 -12  12   44.49    2.94
   0 -12  12   41.48    2.55
   0 -12 -12   42.58    2.59
   0 -12  12   38.59    2.73
   2 -12  12    0.40    0.73
   2 -12  12   -0.35    0.60
   2 -12  12   -0.34    0.84
   2 -12  12    0.10    0.35
  -2 -12 -12    0.18    0.41
  -2 -12 -12   -0.58    0.88
  -2 -12  12    1.19    0.52
   2 -12 -12   -0.37    0.41
   2 -12 -12    0.51    1.16
  -2 -12  12    0.21    0.67
  -2 -12  12   -0.92    0.88
  -2 -12  12   -0.05    0.87
   4 -12  12   60.63    3.46
  -4 -12 -12   56.72    3.75
   4 -12  12   62.41    3.98
  -4 -12  12   63.82    3.99
   4 -12 -12   57.51    4.97
   4 -12 -12   60.32    3.62
  -4 -12  12   61.20    3.84
  -4 -12  12   62.29    3.58
   4 -12 -12   60.29    3.75
  -4 -12  12   67.94    4.05
  -6 -12 -12   61.73    4.15
   6 -12  12   62.35    4.17
  -6 -12  12   65.99    4.16
   6 -12 -12   63.88    4.10
   6 -12 -12   65.44    3.89
   6 -12 -12   64.63    5.80
  -6 -12  12   61.93    3.84
  -6 -12  12   64.75    4.19
  -6 -12  12   66.02    4.48
   8  12 -12    2.69    1.60
   8 -12  12   -0.04    1.02
  -8 -12 -12    2.22    1.30
   8 -12 -12   -0.67    0.82
  -8 -12  12    0.25    1.35
  -8 -12  12    0.79    1.11
   8  12  12    3.90    1.15
   8 -12 -12    0.66    1.15
  -8 -12  12   -1.51    1.71
  10 -12  12   -1.04    1.18
 -10 -12 -12   -0.85    1.40
  10  12 -12    0.25    1.72
  10  12  12   -1.16    1.18
  10 -12 -12    0.79    1.32
 -10 -12  12   -0.18    1.83
  12  12 -12   -1.45    1.80
  12 -12  12   -0.36    1.39
  12 -12 -12   -2.78    1.45
  12  12  12   -1.45    1.21
  14  12 -12   -1.16    1.73
  14  12  12   -0.64    1.35
  14 -12 -12    0.34    1.59
   0 -14  12   12.95    1.24
   0 -14 -12   13.31    1.32
   0 -14  12   14.58    1.74
   0 -14 -12   10.44    1.93
   0 -14  12   13.36    1.63
   0 -14  12   13.77    1.73
  -2 -14 -12    1.00    0.51
   2 -14  12    1.07    0.80
   2 -14  12    0.59    0.43
   2 -14  12    0.77    0.79
  -2 -14  12   -0.75    0.99
  -2 -14  12    0.89    0.97
  -2 -14  12    0.57    0.50
  -2 -14  12    1.54    0.88
   2 -14 -12    0.42    1.12
   2 -14 -12    1.06    0.56
  -4 -14 -12    9.94    1.51
   4 -14  12   12.43    1.71
   4 -14  12   12.16    1.19
  -4 -14  12   15.12    1.99
  -4 -14  12    9.83    1.51
  -4 -14  12    9.03    1.20
   4 -14 -12   10.74    2.20
  -4 -14  12   12.46    1.73
   4 -14 -12   14.22    1.41
   6 -14  12    8.12    1.50
  -6 -14 -12    6.92    1.55
   6 -14 -12    7.76    1.22
   6 -14 -12    8.06    1.52
  -6 -14  12    8.75    1.51
   6 -14 -12    8.67    2.42
  -6 -14  12   11.93    1.81
  -6 -14  12   13.50    2.09
  -6 -14  12    8.90    1.32
   8  14 -12    8.94    1.96
   8 -14  12    3.95    1.39
  -8 -14 -12    6.12    1.58
  -8 -14  12    9.12    1.56
   8 -14 -12    4.34    1.13
  -8 -14  12    5.42    2.10
   8 -14 -12    6.61    1.64
 -10 -14 -12    0.85    1.53
  10  14 -12   -0.08    1.75
  10 -14  12    0.49    1.28
 -10 -14  12   -0.88    1.85
  10  14  12   -0.94    1.17
  10 -14 -12   -1.09    1.31
  12  14 -12    0.30    1.79
  12  14  12   -2.51    1.14
  12 -14 -12    0.74    1.63
  14  14 -12   -0.32    1.70
  14 -14 -12   -0.33    1.44
   0 -16  12   51.95    3.46
   0 -16 -12   52.26    3.26
   0 -16  12   54.68    3.62
   0 -16  12   52.42    3.60
   0 -16  12   51.60    3.18
   2 -16  12   10.73    1.26
   2 -16  12   11.03    1.72
   2 -16  12   12.15    1.75
   2 -16  12   13.78    1.70
  -2 -16 -12   11.98    1.36
  -2 -16  12   13.28    1.83
  -2 -16  12   10.33    1.61
  -2 -16  12   11.91    1.36
   2 -16 -12   11.94    1.39
  -2 -16  12   15.66    1.89
   4 -16  12    3.62    0.76
   4 -16  12    3.99    1.22
   4 -16  12    3.85    1.24
  -4 -16 -12    3.65    1.23
   4 -16 -12    3.74    0.92
  -4 -16  12    4.34    0.98
   4 -16 -12    5.00    1.28
  -4 -16  12    4.42    1.39
  -4 -16  12    4.49    1.51
  -4 -16  12    4.75    1.15
   6 -16  12    1.38    1.10
  -6 -16 -12    2.45    1.24
   6 -16  12    3.42    1.19
   6 -16 -12    1.43    0.88
  -6 -16  12    0.26    1.59
  -6 -16  12    0.90    1.34
  -6 -16  12    2.25    1.06
   6 -16 -12    1.16    1.29
   8 -16  12    3.04    1.37
  -8 -16 -12    2.02    1.36
   8  16 -12    3.88    1.88
  -8 -16  12    4.92    1.46
  -8 -16  12   -0.78    1.95
   8 -16 -12    3.55    1.49
   8 -16 -12    3.35    1.08
  10  16 -12    5.46    2.05
  10 -16  12    2.65    1.47
 -10 -16 -12    5.37    1.86
 -10 -16  12    4.04    2.40
  10  16  12    3.15    1.54
  10 -16 -12    3.71    1.64
  10 -16 -12    4.98    1.30
  12  16 -12   -0.95    1.66
  12 -16 -12    3.47    1.70
 -12 -16  12   -0.79    2.29
  12  16  12   -0.82    1.30
  14  16 -12    0.30    1.63
  14 -16 -12   -0.03    1.58
   0 -18  12   66.77    4.33
   0 -18  12   65.30    4.19
   0 -18  12   64.75    4.34
   0 -18  12   64.67    3.90
   0 -18 -12   66.59    3.98
   2 -18  12   19.00    2.33
   2 -18  12   20.76    2.15
  -2 -18 -12   19.19    1.85
   2 -18  12   19.34    2.39
   2 -18  12   20.74    1.81
  -2 -18  12   21.43    1.84
  -2 -18  12   22.94    2.42
   2 -18 -12   19.51    1.88
  -2 -18  12   25.86    2.42
  -2 -18  12   21.93    2.51
   4 -18  12    9.28    1.69
   4 -18  12    6.77    1.10
   4 -18  12    9.59    1.69
  -4 -18  12    8.52    1.74
   4 -18 -12    7.65    1.24
   4 -18 -12    8.70    1.72
  -4 -18  12    8.89    1.88
  -4 -18  12    7.59    1.21
   6 -18  12   12.92    1.85
  -6 -18 -12   10.60    1.83
   6 -18  12    9.17    1.72
  -6 -18  12   13.00    1.74
  -6 -18  12   13.40    2.31
  -6 -18  12   14.10    2.18
   6 -18 -12   10.93    1.54
   6 -18 -12   13.09    2.10
  -8 -18 -12    1.32    1.35
   8 -18  12   -0.17    1.23
   8 -18 -12    1.35    1.57
  -8 -18  12    3.45    1.73
  -8 -18  12   -0.88    2.17
   8 -18 -12    1.50    0.96
  -8 -18  12    3.45    1.53
  10  18 -12    6.13    1.99
 -10 -18 -12   14.03    2.25
  10  18  12    6.48    1.84
 -10 -18  12   18.65    3.30
  10 -18 -12   12.05    2.28
  12  18 -12    0.05    1.58
 -12 -18  12    3.67    4.33
  12  18  12    1.66    1.49
  12 -18 -12    2.79    1.97
   0 -20  12   70.63    4.91
   0 -20  12   77.94    4.52
   0 -20 -12   77.16    4.55
   0 -20  12   73.14    4.79
   2 -20  12    6.67    1.66
   2 -20  12    4.78    1.02
   2 -20  12    6.55    1.45
  -2 -20 -12    6.65    1.19
  -2 -20  12    4.83    1.03
   2 -20 -12    6.76    1.18
  -2 -20  12    7.43    1.77
  -2 -20  12    5.85    1.67
   4 -20  12   -0.09    1.15
   4 -20  12    1.02    0.64
   4 -20  12    2.44    1.19
   4 -20 -12    1.82    0.89
  -4 -20  12    1.19    1.46
   4 -20 -12    2.38    1.43
  -4 -20  12    1.56    0.91
  -4 -20  12    0.19    1.53
   6 -20  12    3.72    1.42
   6 -20  12    3.92    1.41
  -6 -20  12    3.90    1.98
  -6 -20  12    1.96    1.69
   6 -20 -12    4.24    1.66
  -6 -20  12    4.34    1.33
   6 -20 -12    3.93    1.11
  -8 -20 -12    1.11    1.34
   8 -20  12    0.44    1.45
  -8 -20  12    6.03    2.39
  -8 -20  12    2.66    1.87
   8 -20 -12    0.43    0.98
  -8 -20  12   -0.23    1.32
   8 -20 -12    1.54    1.67
 -10 -20 -12   15.63    2.41
 -10 -20  12   17.71    3.45
  10 -20 -12   27.47    2.54
  10  20  12    7.86    2.06
  10 -20 -12   16.24    2.51
  12  20 -12    0.97    1.57
  12 -20 -12    1.52    1.67
   0 -22  12   27.34    3.04
   0 -22  12   33.02    2.49
   0 -22  12   24.76    2.89
   0 -22 -12   33.06    2.56
   2 -22  12   -0.51    1.11
  -2 -22 -12    0.50    0.83
   2 -22  12   -1.52    1.18
   2 -22  12    0.34    0.69
   2 -22 -12    0.47    0.81
  -2 -22  12    0.43    1.43
  -2 -22  12   -0.40    1.47
  -2 -22  12    0.21    0.75
   4 -22  12    4.26    1.03
   4 -22  12    3.43    1.46
   4 -22  12    3.41    1.59
   4 -22 -12    5.08    1.73
   4 -22 -12    5.29    1.21
  -4 -22  12    3.80    1.19
  -4 -22  12    5.50    1.90
  -4 -22  12    5.82    2.03
   6 -22  12    0.89    0.79
   6 -22  12    3.53    1.47
   6 -22  12    2.07    1.41
  -6 -22  12    2.31    1.81
   6 -22 -12    1.89    1.04
   6 -22 -12    2.70    1.79
  -6 -22  12    2.07    1.32
  -6 -22  12   -1.07    2.12
  -8 -22 -12    3.33    1.93
   8 -22 -12    2.47    1.18
   8 -22 -12    2.39    1.87
  -8 -22  12   10.11    2.69
  -8 -22  12    5.93    1.69
  -8 -22  12    6.26    2.18
  10  22 -12    1.07    1.63
  10 -22 -12    6.11    2.03
  10 -22 -12    7.92    1.59
  12  22 -12    0.16    1.60
   0 -24 -12    0.80    0.93
   0 -24  12    1.71    1.58
   0 -24  12    0.75    0.91
   2 -24  12   19.89    2.08
   2 -24  12   23.32    2.75
  -2 -24 -12   19.00    2.21
   2 -24  12   15.90    2.47
  -2 -24  12   15.52    1.97
   2 -24 -12   24.24    2.27
  -2 -24  12   20.18    2.82
  -2 -24  12   21.48    3.03
   4 -24  12   -0.14    1.49
   4 -24  12    0.74    0.84
   4 -24  12    1.30    1.26
  -4 -24  12    1.18    1.03
   4 -24 -12   -0.94    0.87
  -4 -24  12   -0.39    1.76
  -4 -24  12   -2.89    1.96
   4 -24 -12   -1.93    1.98
   6 -24  12    8.93    1.47
   6 -24  12    8.10    1.82
  -6 -24  12   10.27    2.48
  -6 -24  12    9.99    3.00
  -6 -24  12   12.12    1.89
   6 -24 -12    9.99    1.63
   6 -24 -12   14.90    2.67
  -8 -24  12    1.24    2.08
   8 -24 -12    1.17    1.21
   8 -24 -12    2.32    2.02
  -8 -24  12    2.49    2.64
  -8 -24  12   -0.60    1.54
  10  24 -12    1.05    1.55
  10 -24 -12   -0.09    1.23
  10 -24 -12    3.10    1.84
   0 -26  12   -0.11    0.87
   0 -26  12    0.78    1.62
   0 -26  12   -0.32    1.73
   0 -26 -12   -0.14    0.99
   2 -26  12   -0.40    1.48
  -2 -26 -12   -0.93    0.95
   2 -26  12   -1.31    1.62
   2 -26  12   -0.97    0.74
  -2 -26  12    3.61    1.93
   2 -26 -12    0.59    1.04
  -2 -26  12   -0.73    1.78
  -2 -26  12   -0.78    0.86
   4 -26  12   22.04    2.83
   4 -26  12   27.28    2.36
   4 -26  12   14.76    2.71
  -4 -26  12   27.21    3.71
  -4 -26  12   21.64    2.52
  -4 -26  12   25.63    3.40
   4 -26 -12   24.60    2.50
   6 -26  12   18.99    2.17
   6 -26  12   16.82    2.39
  -6 -26  12   16.77    2.22
   6 -26 -12   16.03    4.75
   6 -26 -12   12.37    1.92
  -6 -26  12   15.26    2.91
  -6 -26  12   15.89    3.67
   8  26 -12   -2.58    1.28
   8 -26 -12    2.76    1.33
  -8 -26  12    1.20    2.10
  -8 -26  12   -1.89    1.43
   8 -26 -12    1.92    2.12
   0 -28  12   10.11    2.52
   0 -28 -12   11.33    1.76
   0 -28  12   11.08    1.73
   0 -28  12    8.83    2.36
   2 -28  12   -0.81    1.81
  -2 -28 -12    1.23    1.28
   2 -28  12    1.81    1.09
   2 -28  12    1.05    1.79
  -2 -28  12    1.63    2.34
   2 -28 -12    0.55    1.14
  -2 -28  12   -0.35    2.02
  -2 -28  12    1.14    1.18
   4 -28  12   35.99    2.79
   4 -28  12   24.50    3.14
   4 -28 -12   28.27    2.75
  -4 -28  12   27.38    2.78
  -4 -28  12   28.58    3.63
   6 -28  12   27.31    3.36
   6 -28 -12   37.74    3.02
  -6 -28  12   35.75    3.15
  -6 -28  12   31.14    3.72
   0 -30  12   23.11    2.40
   0 -30  12   18.59    2.99
   0 -30 -12   19.64    2.28
   2 -30  12   -0.29    0.92
   2 -30  12   -1.59    1.95
   2 -30 -12    0.55    1.11
  -2 -30  12   -0.49    2.14
  -2 -30  12    0.37    1.17
   4 -30  12   25.24    2.49
   4 -30  12   23.39    3.15
  -4 -30  12   19.13    2.39
  -4 -30  12   18.69    3.00
   4 -30 -12   21.37    2.47
   1  -1  13   99.44    5.52
   1  -1  13  111.20    5.95
  -1   1  13  106.02    5.90
  -1   1  13  100.33    6.08
   1  -1  13  106.75    6.17
  -1  -1 -13  115.62    6.26
  -1   1  13   97.32    5.42
  -1  -1  13  102.31    6.13
  -1  -1  13  109.39    5.95
  -1  -1  13  103.69    5.51
   1  -1 -13  111.16    6.29
  -1  -1  13  101.66    5.67
   1   1  13   99.08    5.48
  -3   1  13    5.48    1.32
   3  -1  13    5.17    0.85
  -3   1  13    5.78    1.33
   3  -1  13    6.10    1.28
  -3  -1  13    4.51    1.24
  -3  -1  13    5.10    0.82
   3   1  13    4.46    0.74
  -3  -1  13    4.74    1.35
   3  -1 -13    5.47    1.54
   5  -1  13   20.64    1.76
   5   1  13   18.57    1.74
   5  -1 -13   17.69    2.61
   7  -1  13    3.04    1.03
   7   1 -13    4.69    1.32
   7   1  13    2.17    1.04
   7  -1 -13    4.57    1.25
   7  -1 -13    2.79    2.14
   9  -1  13   82.68    4.81
   9   1 -13   71.37    4.76
   9  -1 -13   81.45    7.30
   9   1  13   76.73    4.76
   9  -1 -13   67.12    4.69
  11  -1  13    7.89    1.52
  11   1 -13    8.62    1.97
  11  -1 -13    8.04    1.71
  11   1  13    9.09    1.68
  13   1 -13   -0.68    1.64
  13  -1  13   -1.43    1.25
  13   1  13   -1.25    1.11
  13  -1 -13    0.01    1.66
  15  -1  13    1.96    1.79
  15   1 -13    0.92    1.84
  15  -1 -13   -0.19    1.89
  15   1  13   -1.15    1.39
  -1   3  13   34.04    2.27
  -1   3  13   37.12    2.87
  -1  -3 -13   44.64    3.29
   1  -3  13   39.00    2.91
   1  -3  13   38.75    2.59
   1  -3  13   37.26    2.92
   1  -3  13   36.41    2.38
  -1  -3  13   38.42    2.44
   1  -3 -13   40.59    3.28
  -1  -3  13   37.64    2.96
  -1  -3  13   40.41    2.58
  -1  -3  13   41.35    2.94
  -3   3  13    1.13    0.93
  -3   3  13    1.02    0.92
   3  -3  13    1.53    0.99
   3  -3  13    1.37    0.60
  -3  -3 -13    0.88    0.94
  -3  -3  13    1.82    1.05
  -3  -3  13    1.23    0.71
   3  -3 -13    1.69    1.19
  -3  -3  13    1.04    0.72
   3   3  13    0.96    0.55
   5  -3  13    3.50    1.23
   5  -3  13    3.38    0.89
  -5  -3  13    3.87    1.03
   5   3  13    3.82    0.89
   5  -3 -13    3.93    1.75
   7  -3  13   20.92    2.01
   7   3 -13   18.94    2.14
   7  -3  13   17.35    2.49
   7   3  13   20.87    2.03
   7  -3 -13   23.16    3.36
   7  -3 -13   20.18    2.11
   9   3 -13   -4.34    1.69
   9  -3  13    1.59    1.10
   9  -3 -13    2.61    1.39
   9   3  13    2.65    1.26
   9  -3 -13    1.69    2.94
  -9  -3  13    4.98    1.22
  11  -3  13   10.12    1.67
  11   3 -13    8.84    2.08
  11  -3 -13    8.45    1.71
  11   3  13    7.57    1.65
  13   3 -13   -0.92    1.80
  13  -3  13   -1.41    1.27
  13  -3 -13   -0.97    1.67
  13   3  13   -0.38    1.19
  15   3 -13   -3.69    1.84
  15  -3  13    0.73    1.64
  15   3  13    1.45    1.35
  15  -3 -13    0.98    1.95
   1  -5  13    3.99    0.91
   1  -5  13    4.04    0.78
  -1  -5 -13    3.75    1.18
  -1   5  13    3.50    0.97
   1  -5  13    4.15    1.18
   1  -5  13    3.85    1.10
   1  -5 -13    4.39    0.68
  -1  -5  13    5.50    0.75
  -1  -5  13    3.24    0.79
   1  -5 -13    3.76    1.23
  -1  -5  13    4.92    1.19
  -1  -5  13    3.72    0.87
  -1  -5  13    3.62    1.11
   1   5  13    3.75    0.60
  -3   5  13    4.32    1.17
  -3  -5 -13    4.76    1.23
   3  -5  13    4.82    1.31
   3  -5  13    3.54    1.05
   3  -5  13    3.73    0.84
  -3   5  13    4.05    1.23
   3   5  13    4.21    0.80
  -3  -5  13    3.45    1.01
  -3  -5  13    3.89    1.32
   3  -5 -13    5.32    1.51
  -3  -5  13    4.44    0.92
  -3  -5  13    4.06    0.74
   3  -5 -13    5.46    0.76
   5  -5  13   94.92    5.80
   5  -5  13   97.08    5.29
   5   5 -13   79.72    5.02
   5   5  13   91.55    5.16
  -5  -5  13   93.45    5.03
  -5  -5  13   87.02    5.18
   5  -5 -13  107.70    6.42
  -5  -5  13   93.39    5.42
   7  -5  13   17.00    2.51
   7   5 -13   16.08    1.86
   7  -5  13   16.29    1.96
   7   5  13   16.99    1.92
  -7  -5  13   16.36    1.74
   7  -5 -13   18.50    3.25
  -7  -5  13   14.98    2.29
   9   5 -13    1.42    1.78
   9  -5  13    4.29    1.22
   9  -5 -13    4.16    1.43
   9   5  13    2.90    1.22
   9  -5 -13    3.69    3.38
  -9  -5  13    4.55    1.19
  11   5 -13   -3.70    1.79
  11  -5  13    1.49    1.22
  11  -5 -13    1.69    1.52
  11   5  13   -3.11    1.00
  13  -5  13    2.37    1.50
  13   5 -13    0.84    1.87
  13   5  13    0.14    1.27
  13  -5 -13   -0.67    1.67
  15   5 -13   -1.74    1.77
  15   5  13    1.87    2.15
  15  -5 -13   -1.53    1.71
  -1   7  13    0.89    0.74
  -1  -7 -13    0.63    0.91
   1  -7  13    0.53    0.60
   1  -7  13    0.90    0.75
   1  -7  13    0.77    0.55
   1  -7  13    1.45    0.44
   1  -7 -13    0.52    0.49
  -1  -7  13    1.18    0.51
  -1  -7  13    1.18    0.83
  -1  -7  13    0.48    0.56
   1   7  13    0.59    0.42
   1  -7 -13    0.45    0.83
  -1  -7  13    0.56    0.65
  -3   7  13   91.25    5.87
   3  -7  13  104.89    5.61
  -3  -7 -13  105.84    6.31
   3  -7  13  100.52    5.97
   3  -7  13   97.65    6.11
  -3  -7  13  100.13    5.62
  -3  -7  13   97.99    5.31
  -3  -7  13  102.45    5.57
  -3  -7  13   98.52    6.30
   3  -7 -13  105.53    6.40
   3   7  13  104.10    5.44
   3  -7 -13   93.30    5.36
   5  -7  13  140.55    8.57
   5   7 -13  133.90    7.74
   5  -7  13  156.74    8.08
   5  -7  13  147.18    8.52
   5   7  13  148.83    7.93
  -5  -7  13  157.18    7.81
   5  -7 -13  147.31    7.81
   5  -7 -13  164.26    9.17
  -5  -7  13  152.43    8.04
  -5  -7  13  149.06    8.15
   7   7 -13   35.00    2.88
   7  -7  13   37.10    3.55
   7  -7  13   39.28    2.98
  -7  -7  13   38.69    2.68
   7  -7 -13   51.80    5.51
   7   7  13   40.83    2.92
   7  -7 -13   38.96    3.05
  -7  -7  13   32.15    3.07
   9   7 -13   -0.87    1.57
   9  -7  13    1.14    1.04
  -9  -7  13    0.45    1.11
   9  -7 -13   -0.21    1.21
   9   7  13   -0.24    0.89
  11   7 -13    1.69    1.99
  11  -7  13    1.66    1.34
  11  -7 -13   -2.00    1.40
  11   7  13   -2.27    1.13
  13  -7  13    3.06    1.58
  13   7 -13    3.51    1.95
  13  -7 -13    1.00    1.69
  13   7  13    3.45    1.41
  15   7 -13    0.79    1.92
  15  -7 -13    0.19    1.73
   1  -9  13   29.94    2.34
  -1  -9 -13   40.44    3.42
  -1   9  13   28.58    2.54
   1  -9  13   25.87    2.72
   1  -9  13   28.54    1.95
   1  -9  13   28.19    2.30
  -1  -9  13   32.89    2.31
  -1  -9  13   31.44    2.03
  -1  -9  13   31.84    2.93
   1  -9 -13   30.34    2.03
  -1  -9  13   29.49    2.32
   1  -9 -13   35.01    3.26
   3  -9  13  246.53   12.48
  -3  -9 -13  233.98   13.13
   3  -9  13  233.31   12.10
   3  -9  13  230.54   12.96
  -3  -9  13  247.35   12.19
   3  -9 -13  235.70   12.21
   3   9  13  238.69   12.25
  -3  -9  13  248.86   12.40
   3  -9 -13  244.83   13.29
  -3  -9  13  254.20   12.54
  -5  -9 -13   69.33    4.25
   5  -9  13   63.56    4.84
   5  -9  13   72.66    4.83
   5  -9  13   74.54    4.46
   5   9  13   68.40    4.25
   5  -9 -13   73.44    4.18
  -5  -9  13   71.43    4.35
  -5  -9  13   71.49    4.51
   5  -9 -13   75.93    5.65
  -5  -9  13   76.97    4.55
  -5  -9  13   74.03    4.13
   7  -9  13   29.31    2.65
   7   9 -13   25.83    2.70
   7  -9  13   28.82    3.29
   7  -9 -13   30.16    2.37
   7  -9 -13   29.01    3.95
  -7  -9  13   34.90    3.06
   7  -9 -13   28.95    2.60
  -7  -9  13   29.59    2.43
   7   9  13   38.60    2.75
   9   9 -13    0.00    1.55
   9  -9  13    2.46    1.07
   9  -9 -13    0.91    1.19
  -9  -9  13   -1.14    1.54
   9   9  13    0.84    1.11
  -9  -9  13    2.65    1.23
  11   9 -13   -0.15    1.90
  11  -9  13    1.87    1.27
  11  -9 -13    0.54    1.33
  11   9  13   -0.10    1.20
  13   9 -13    1.59    1.96
  13  -9  13    2.95    1.63
  13  -9 -13    0.94    1.58
  13   9  13    3.82    1.50
  15   9 -13    2.04    1.79
  15  -9 -13    0.50    1.86
   1 -11  13    0.30    0.39
   1 -11  13   -1.17    0.84
  -1 -11 -13    1.62    1.03
   1 -11  13   -0.22    0.65
  -1 -11 -13    0.91    0.44
  -1  11  13    0.37    0.90
   1 -11  13   -0.39    0.66
  -1 -11  13   -0.44    0.78
   1 -11 -13   -0.52    0.40
   1 -11 -13   -0.23    0.92
  -1 -11  13    0.29    0.70
  -1 -11  13   -0.38    0.91
  -1 -11  13    0.40    0.47
   3 -11  13   24.42    2.63
  -3 -11 -13   20.24    1.90
   3 -11  13   23.97    1.67
  -3 -11 -13   25.08    2.90
   3 -11  13   23.09    2.15
  -3 -11  13   26.33    2.27
  -3 -11  13   24.58    1.79
   3 -11 -13   22.91    3.22
   3  11  13   25.03    1.97
  -3 -11  13   26.00    2.29
   3 -11 -13   25.12    1.83
  -5 -11 -13  144.13    8.37
   5 -11  13  161.02    8.63
  -5 -11  13  159.18    8.64
  -5 -11  13  156.73    8.63
  -5 -11  13  159.46    8.24
  -5 -11  13  157.33    8.42
   5 -11 -13  161.75    9.72
   5  11  13  161.05    8.47
   5 -11 -13  157.56    8.31
   7  11 -13   24.61    2.63
   7 -11  13   27.66    2.65
  -7 -11 -13   33.81    2.81
   7 -11 -13   27.98    2.63
  -7 -11  13   22.07    2.25
  -7 -11  13   30.23    3.08
   7 -11 -13   22.34    3.62
  -7 -11  13   22.69    2.80
   7 -11 -13   31.05    2.36
   7  11  13   38.16    2.80
   9  11 -13    2.56    1.70
   9 -11  13    3.39    1.30
  -9 -11  13    5.45    1.45
   9 -11 -13    1.92    1.38
   9  11  13    2.95    1.29
  -9 -11  13    3.36    1.89
  11  11 -13    0.57    1.86
  11 -11  13   -0.92    1.24
  11  11  13   -1.31    1.20
  13  11 -13    1.54    1.89
  13 -11  13   -0.84    2.04
  13 -11 -13   -0.81    1.64
  13  11  13   -1.31    1.27
  15  11 -13    0.46    1.81
  15 -11 -13    3.75    1.82
  -1 -13 -13    5.75    0.86
   1 -13  13    6.84    1.28
   1 -13  13    5.95    1.24
  -1 -13 -13    5.06    1.56
   1 -13  13    5.24    1.62
   1 -13  13    5.68    0.85
  -1 -13  13    6.64    0.92
   1 -13 -13    5.16    1.49
  -1 -13  13    7.83    1.36
  -1 -13  13    7.97    1.44
   1 -13 -13    7.16    0.98
  -1 -13  13    6.76    1.25
  -3 -13 -13   22.74    3.12
   3 -13  13   23.47    1.71
  -3 -13 -13   23.62    2.57
   3 -13  13   21.74    2.23
  -3 -13  13   24.46    2.38
  -3 -13  13   23.51    2.18
   3 -13 -13   23.38    1.88
  -3 -13  13   21.95    2.22
   3 -13 -13   24.41    3.11
   3  13  13   23.74    2.26
  -3 -13  13   24.18    1.83
  -5 -13 -13   38.06    3.29
   5 -13  13   46.10    3.51
   5 -13 -13   51.92    5.12
   5 -13 -13   51.19    3.43
   5 -13 -13   52.00    3.18
  -5 -13  13   50.57    3.45
  -5 -13  13   47.74    3.09
  -5 -13  13   58.03    3.88
  -5 -13  13   46.51    3.51
  -7 -13 -13   15.18    2.03
   7  13 -13   15.59    2.12
   7 -13  13   16.72    2.04
   7 -13 -13   12.91    1.60
   7  13  13   13.54    1.84
  -7 -13  13   16.77    1.94
  -7 -13  13    9.32    1.77
   7 -13 -13   12.18    1.95
  -7 -13  13   17.34    2.34
  -9 -13 -13   -0.16    1.28
   9  13 -13    0.18    1.76
   9 -13  13    1.40    1.22
  -9 -13  13    0.54    1.32
   9 -13 -13    2.91    1.33
  -9 -13  13    1.56    1.81
   9 -13 -13    1.15    0.95
   9  13  13   -0.65    1.15
  11  13 -13   -0.15    1.82
  11 -13  13    1.30    1.44
 -11 -13  13   -0.90    2.74
  11 -13 -13   -1.47    1.35
  11  13  13   -1.43    1.29
  13  13 -13    0.02    1.76
  13 -13 -13    0.06    1.65
  13  13  13    0.32    1.30
  15  13 -13   -1.42    1.71
  15 -13 -13    2.78    1.73
   1 -15  13   53.57    3.21
   1 -15  13   51.34    3.60
  -1 -15 -13   53.78    3.25
   1 -15  13   53.90    3.69
  -1 -15 -13   45.96    4.36
  -1 -15  13   54.76    3.24
  -1 -15  13   60.14    3.74
  -1 -15  13   58.81    3.72
   1 -15 -13   53.82    3.30
  -1 -15  13   54.98    3.61
   1 -15 -13   43.49    4.27
   3 -15  13    4.88    1.21
   3 -15  13    4.06    0.79
  -3 -15  13    6.90    1.51
  -3 -15  13    6.13    1.37
   3 -15 -13    3.11    1.59
   3 -15 -13    4.83    0.93
  -3 -15  13    4.57    0.92
  -3 -15  13    4.47    1.13
  -5 -15 -13   -0.22    0.96
   5 -15  13   -0.84    0.42
   5 -15  13   -0.41    0.85
   5 -15 -13   -0.10    1.11
   5 -15 -13   -0.69    0.60
  -5 -15  13    0.40    0.75
  -5 -15  13   -0.47    1.12
   5 -15 -13    1.38    1.66
  -5 -15  13   -0.89    1.28
  -5 -15  13    0.49    0.91
   7 -15  13    7.42    1.57
  -7 -15 -13    3.63    1.42
  -7 -15  13    9.27    2.11
  -7 -15  13    8.85    1.43
  -7 -15  13    9.44    1.87
   7 -15 -13    3.94    1.49
   7 -15 -13    5.63    1.20
   9  15 -13    1.18    1.84
   9 -15  13    0.14    1.25
  -9 -15 -13    1.98    1.49
   9 -15 -13    2.95    1.48
   9 -15 -13    2.48    1.05
  -9 -15  13    3.12    1.53
   9  15  13   -0.37    1.30
  -9 -15  13    2.07    1.92
  11 -15  13    0.92    1.50
  11  15 -13    1.67    1.69
  11 -15 -13   -0.87    1.56
 -11 -15  13   -1.64    2.18
  11  15  13    1.19    1.35
  13  15 -13    1.28    1.70
  13 -15 -13   -0.13    1.63
   1 -17  13   57.56    3.80
   1 -17  13   61.95    4.08
  -1 -17 -13   60.90    3.65
   1 -17  13   59.24    3.60
   1 -17  13   52.71    3.96
  -1 -17  13   59.92    4.09
   1 -17 -13   58.85    3.67
  -1 -17  13   61.22    3.61
  -1 -17  13   63.31    4.04
  -1 -17  13   59.94    4.00
   3 -17  13   14.01    1.95
   3 -17  13   12.90    1.43
   3 -17  13   15.79    1.92
   3 -17 -13    9.58    2.28
  -3 -17  13   13.90    1.63
  -3 -17  13   16.42    2.05
  -3 -17  13   11.97    1.81
  -3 -17  13   18.02    2.20
   3 -17 -13   17.35    1.72
  -5 -17 -13   13.61    2.13
   5 -17  13   10.21    1.30
   5 -17  13   14.26    2.00
  -5 -17  13   14.95    2.33
   5 -17 -13   13.75    2.01
  -5 -17  13   15.38    2.08
  -5 -17  13   13.27    1.63
   5 -17 -13   12.14    1.55
   7 -17  13    0.43    1.14
  -7 -17 -13   -1.51    1.09
   7 -17 -13    1.09    0.90
  -7 -17  13   -1.76    1.10
  -7 -17  13   -1.82    1.69
  -7 -17  13    0.44    1.55
   7 -17 -13   -1.03    1.40
  -9 -17 -13    8.19    1.86
   9  17 -13    5.58    1.95
   9 -17  13    5.87    1.67
  -9 -17  13   10.35    2.63
  -9 -17  13   12.10    1.98
   9 -17 -13    6.92    1.98
   9  17  13    5.04    1.72
   9 -17 -13    6.61    1.36
  11  17 -13    2.87    1.68
  11  17  13    7.26    1.78
 -11 -17  13   10.33    2.96
  13  17 -13   -1.61    1.56
  13 -17 -13    0.55    1.65
   1 -19  13   77.21    4.83
  -1 -19 -13   81.55    4.66
   1 -19  13   69.91    4.96
   1 -19  13   77.99    4.61
  -1 -19  13   80.82    4.59
   1 -19 -13   77.82    4.65
  -1 -19  13   83.12    5.05
  -1 -19  13   74.73    5.01
   3 -19  13    0.86    0.97
   3 -19  13    0.25    0.58
   3 -19  13    1.16    1.13
  -3 -19  13    0.51    0.71
   3 -19 -13    1.34    0.79
  -3 -19  13    0.17    1.20
  -3 -19  13   -0.40    1.18
   5 -19  13    0.14    0.56
   5 -19  13   -0.04    1.07
   5 -19  13   -0.32    1.02
  -5 -19  13    0.00    1.36
  -5 -19  13   -0.40    0.87
   5 -19 -13   -0.86    1.45
  -5 -19  13   -0.09    1.51
   5 -19 -13   -0.03    0.79
   7 -19  13    5.07    1.52
  -7 -19 -13    5.32    1.60
  -7 -19  13    4.89    1.98
   7 -19 -13    2.42    1.11
   7 -19 -13    8.37    1.96
  -7 -19  13    4.83    2.29
  -7 -19  13    8.51    1.56
   9 -19  13   11.91    2.75
   9  19 -13    8.24    1.92
   9  19  13   11.48    2.11
   9 -19 -13   16.18    2.46
  -9 -19  13   18.90    3.26
  11  19 -13    2.97    1.71
 -11 -19  13   12.71    3.31
  11 -19 -13   12.71    2.34
  11  19  13    8.05    1.86
  13  19 -13   -0.88    1.57
  13 -19 -13   -1.55    1.96
   1 -21  13   21.21    2.71
  -1 -21 -13   24.99    2.22
   1 -21  13   23.25    2.13
   1 -21  13   25.99    2.62
  -1 -21  13   24.36    2.80
   1 -21 -13   26.08    2.23
  -1 -21  13   21.96    2.72
  -1 -21  13   23.99    2.17
   3 -21  13    3.20    1.59
   3 -21  13    3.31    0.92
   3 -21  13    5.70    1.49
   3 -21 -13    4.48    1.14
  -3 -21  13    3.83    1.73
  -3 -21  13    5.07    1.11
  -3 -21  13    3.92    1.63
   5 -21  13    0.59    1.22
   5 -21  13    2.07    0.80
   5 -21  13    2.41    1.51
   5 -21 -13    1.02    0.92
  -5 -21  13    3.17    2.04
  -5 -21  13    1.88    1.00
  -5 -21  13    2.69    1.73
   7 -21  13    2.00    1.44
   7 -21 -13   -0.34    1.67
  -7 -21  13    1.51    2.32
  -7 -21  13    2.80    1.40
   7 -21 -13    0.47    0.95
  -7 -21  13    0.57    1.91
  -9 -21 -13   12.01    2.18
   9  21  13    6.04    1.90
   9 -21 -13   13.45    1.84
  -9 -21  13   16.84    3.26
   9 -21 -13   13.99    2.42
  -9 -21  13   16.54    2.38
  11  21 -13   -0.37    1.41
  11 -21 -13    3.51    1.90
   1 -23  13    6.37    1.84
  -1 -23 -13   10.43    1.53
   1 -23  13   11.99    2.21
   1 -23  13   10.11    1.52
  -1 -23  13   10.09    2.06
  -1 -23  13   13.00    2.36
   1 -23 -13   11.58    1.64
  -1 -23  13    7.73    1.36
   3 -23  13    7.95    1.35
   3 -23  13    9.41    1.85
   3 -23  13    7.67    1.90
  -3 -23  13    9.03    2.27
   3 -23 -13    8.29    1.51
  -3 -23  13    9.03    1.46
  -3 -23  13    8.02    2.35
   5 -23  13    2.56    1.42
   5 -23  13    0.89    0.83
   5 -23  13    2.31    1.58
  -5 -23  13    3.81    1.32
  -5 -23  13    7.23    2.45
   5 -23 -13    2.29    1.08
  -5 -23  13    3.91    1.89
  -7 -23  13   12.22    1.95
  -7 -23  13    6.44    3.20
   7 -23 -13    8.08    3.63
  -7 -23  13    7.80    2.58
   7 -23 -13    6.88    1.52
   9  23 -13    2.82    1.52
   9 -23 -13    7.91    2.25
   9 -23 -13    8.91    1.71
  11  23 -13   -0.75    1.46
  -1 -25 -13    0.18    1.00
   1 -25  13    1.45    0.93
   1 -25  13    0.20    1.65
   1 -25  13    1.58    1.61
   1 -25 -13    0.28    1.08
  -1 -25  13   -0.22    0.91
  -1 -25  13    0.44    1.83
  -1 -25  13    1.08    1.78
   3 -25  13    4.84    1.66
   3 -25  13    2.17    1.00
   3 -25  13    3.34    1.77
  -3 -25  13    3.44    1.25
  -3 -25  13    3.24    2.04
   3 -25 -13    4.24    1.25
  -3 -25  13    7.48    2.17
   5 -25  13   33.08    2.63
   5 -25  13   29.09    3.04
   5 -25  13   19.18    3.02
  -5 -25  13   32.02    4.08
  -5 -25  13   30.27    2.97
  -5 -25  13   31.65    3.56
   5 -25 -13   35.26    2.89
  -7 -25  13   10.90    2.09
   7 -25 -13   11.12    1.84
  -7 -25  13   20.50    3.55
  -7 -25  13   10.29    2.79
   9  25 -13    1.71    1.55
   9 -25 -13   -0.74    1.20
   1 -27  13    6.10    1.35
   1 -27  13    9.05    2.17
  -1 -27 -13    7.60    1.57
   1 -27  13    8.53    2.37
  -1 -27  13    5.93    2.16
   1 -27 -13    6.47    1.56
  -1 -27  13    5.99    2.33
  -1 -27  13    7.56    1.48
   3 -27  13    9.40    2.35
   3 -27  13   15.74    2.56
   3 -27  13   19.04    2.15
  -3 -27  13   19.29    3.30
  -3 -27  13   12.52    1.88
   3 -27 -13   12.89    1.88
  -3 -27  13   14.02    2.79
   5 -27  13   46.32    3.28
   5 -27 -13   39.86    3.31
  -5 -27  13   32.94    4.26
  -5 -27  13   43.06    3.49
   7 -27 -13   15.35    2.08
  -7 -27  13   16.73    3.08
  -7 -27  13   18.11    2.32
  -1 -29 -13    8.76    1.60
   1 -29  13    4.69    2.34
   1 -29  13    5.58    1.42
  -1 -29  13    4.46    2.23
  -1 -29  13    7.39    1.53
   1 -29 -13    5.71    1.40
   3 -29  13   14.22    1.79
   3 -29  13   14.54    2.72
  -3 -29  13    9.00    2.54
   3 -29 -13   11.51    1.74
  -3 -29  13   12.65    1.91
   5 -29  13   66.24    4.18
   5 -29 -13   59.73    4.18
  -5 -29  13   59.82    4.29
  -5 -29  13   52.83    4.95
  -1 -31 -13    0.94    1.45
   1 -31  13    0.95    1.05
  -1 -31  13    1.18    1.06
   1 -31 -13    1.69    1.17
   0   0  14  169.16    9.08
   0   0  14  194.67    9.62
   0   0  14  171.19    9.78
   2   0  14    6.65    1.36
  -2   0  14    4.21    1.21
  -2   0  14    2.92    1.13
  -2   0  14    5.77    0.88
   2   0 -14    4.64    1.50
  -2   0 -14    5.57    1.29
   2   0  14    4.48    0.77
   4   0  14    1.36    0.65
  -4   0  14    2.42    1.17
   4   0 -14    1.17    1.53
   6   0  14   13.61    1.65
   8   0  14   28.00    2.64
   8   0 -14   24.75    2.56
  10   0  14   48.82    3.58
  10   0 -14   41.77    3.62
  12   0 -14    1.72    1.50
  12   0  14    0.68    1.08
  14   0  14    0.39    1.41
  14   0 -14   -0.04    1.78
  16   0 -14    1.53    2.00
   0   2  14   72.96    4.69
   0   2  14   66.87    3.94
   0  -2  14   72.84    4.70
   0  -2  14   79.54    4.59
   0  -2  14   70.74    4.05
   0  -2 -14   80.66    4.94
   2  -2  14   13.07    1.83
   2  -2  14   13.27    1.89
  -2   2  14   11.63    1.76
  -2   2  14   12.59    1.75
  -2  -2 -14   15.45    2.15
   2  -2  14   10.84    1.22
  -2  -2  14   14.28    1.92
  -2  -2  14   11.20    1.30
   2   2  14   13.78    1.24
  -2  -2  14   12.53    1.89
   2  -2 -14   14.40    2.09
  -4   2  14    2.32    1.21
   4  -2  14    2.16    1.10
   4  -2  14    2.02    0.76
  -4  -2  14    1.11    0.84
   4   2  14    1.26    0.61
   4  -2 -14    1.86    1.49
  -4  -2  14    0.87    1.12
   6  -2  14    1.30    1.11
   6  -2  14    0.92    0.78
   6   2  14    0.32    0.72
   6  -2 -14    0.99    1.75
   8  -2  14   22.78    2.34
   8   2 -14   20.52    2.58
   8   2  14   25.02    2.39
   8  -2 -14   28.93    3.98
   8  -2 -14   23.88    2.39
  10  -2  14   12.88    1.88
  10   2 -14   10.73    2.14
  10  -2 -14   10.75    1.83
 -10  -2  14   18.54    1.97
  10   2  14   21.44    2.45
  12   2 -14    3.72    1.79
  12  -2  14    4.29    1.45
  12  -2 -14    3.83    1.61
  12   2  14    4.28    1.41
  14   2 -14    0.15    1.79
  14  -2  14    2.07    1.54
  14   2  14    0.97    1.30
  14  -2 -14   -0.19    1.81
  16   2 -14   -2.82    1.84
  16  -2 -14   -0.95    2.01
   0   4  14    2.50    0.50
   0  -4  14    3.10    0.73
   0  -4  14    2.74    0.62
   0  -4  14    3.16    1.07
   0  -4 -14    2.58    1.15
   0  -4  14    3.65    1.13
   0   4  14    2.86    0.99
   2  -4  14    0.88    0.56
  -2   4  14    1.59    0.92
  -2  -4 -14    2.05    1.03
   2  -4  14    1.87    1.04
   2  -4  14    2.45    0.94
  -2   4  14    1.17    0.80
  -2  -4  14    1.50    0.72
  -2  -4  14    1.66    1.02
   2  -4 -14    1.67    1.23
  -2  -4  14    1.82    0.79
  -2  -4  14    2.46    0.62
  -2  -4  14    1.69    1.01
   2   4  14    1.64    0.53
  -4   4  14   20.59    2.52
   4  -4  14   21.50    2.46
   4  -4  14   21.52    1.93
  -4   4  14   22.51    2.69
   4  -4 -14   25.74    3.21
  -4  -4  14   22.39    1.70
  -4  -4  14   19.91    1.98
   4   4  14   22.07    1.76
  -4  -4  14   16.73    2.45
   6  -4  14   30.01    3.05
   6  -4  14   34.03    2.59
   6   4  14   33.50    2.50
  -6  -4  14   30.18    2.30
   6  -4 -14   38.74    4.37
   8  -4  14    6.88    1.46
   8   4 -14    8.91    1.83
  -8  -4  14   11.93    1.47
   8  -4 -14   13.74    3.34
   8   4  14   10.45    1.59
   8  -4 -14    9.50    1.60
  10  -4  14    5.73    1.48
  10   4 -14    3.24    2.07
  10  -4 -14    5.03    1.50
 -10  -4  14    7.12    1.47
  10   4  14    7.13    1.50
  12  -4  14    2.98    1.46
  12   4 -14    1.06    1.85
  12  -4 -14    1.21    1.58
  12   4  14    0.63    1.19
  14   4 -14   -1.29    1.83
  14  -4  14   -0.35    1.53
  14   4  14   -0.83    1.23
  14  -4 -14   -2.56    1.71
  16   4 -14    0.91    1.92
  16  -4 -14   -1.26    1.82
   0  -6 -14   11.94    1.16
   0  -6  14   12.90    1.50
   0  -6  14   13.66    1.23
   0  -6  14   14.33    2.02
   0  -6  14   13.72    1.42
   0  -6  14   14.22    1.96
   0  -6 -14   14.38    2.05
   2  -6  14    1.24    0.47
  -2  -6 -14    1.52    1.03
   2  -6  14    1.89    1.06
   2  -6  14    1.74    0.73
  -2   6  14    0.99    0.82
   2  -6  14    1.31    0.85
   2  -6 -14    0.58    0.51
   2   6  14    1.31    0.54
   2  -6 -14    0.71    1.13
  -2  -6  14    1.09    0.70
  -2  -6  14    1.96    0.59
  -2  -6  14    0.62    0.93
  -2  -6  14    0.98    0.77
   4  -6  14  156.98    7.97
  -4   6  14  135.07    8.35
   4  -6  14  147.48    8.40
  -4   6  14  143.22    8.54
   4  -6  14  140.94    8.49
  -4  -6  14  142.61    7.94
  -4  -6  14  150.11    7.65
   4   6  14  150.55    7.80
  -4  -6  14  153.51    7.90
   4  -6 -14  151.76    8.87
   6  -6  14   50.11    4.00
   6   6 -14   40.92    3.18
   6  -6  14   52.98    3.46
  -6  -6  14   48.33    3.08
   6  -6 -14   65.90    5.12
   6   6  14   54.60    3.36
  -6  -6  14   45.74    3.41
   8  -6  14    5.90    1.34
   8   6 -14    8.01    1.70
   8   6  14    8.20    1.52
   8  -6 -14    9.03    1.61
   8  -6 -14    7.70    3.11
  -8  -6  14    6.02    1.22
  10  -6  14    1.34    1.12
  10   6 -14   -0.94    1.83
 -10  -6  14   -1.18    1.20
  10   6  14    1.30    1.20
  10  -6 -14    1.92    1.39
  12   6 -14    1.35    1.77
  12  -6  14    1.33    1.42
  12  -6 -14   -0.55    1.61
  12   6  14    0.10    1.14
  14  -6  14    0.17    1.59
  14   6 -14   -0.85    1.81
  14   6  14    2.37    1.40
  14  -6 -14    1.31    1.86
  16   6 -14   -2.29    1.86
  16  -6 -14    1.18    1.79
   0  -8  14   53.84    3.42
   0  -8 -14   57.20    4.22
   0  -8  14   55.68    3.34
   0  -8 -14   49.85    3.08
   0  -8  14   54.31    3.07
   0  -8  14   47.16    3.83
   2  -8  14  113.22    7.11
  -2   8  14  113.29    6.89
   2  -8  14  118.42    6.23
   2  -8  14  126.58    6.96
  -2  -8 -14  128.98    7.46
   2  -8  14  123.48    6.58
   2   8  14  115.47    6.31
  -2  -8  14  122.28    6.32
  -2  -8  14  117.57    6.58
   2  -8 -14  114.62    6.31
  -2  -8  14  114.45    7.25
  -2  -8  14  126.19    6.54
   2  -8 -14  119.79    7.45
   4  -8  14  111.63    6.57
   4  -8  14  115.02    6.20
   4  -8  14  103.12    6.67
  -4   8  14   91.82    6.55
   4  -8 -14  104.76    5.86
   4   8  14  113.98    5.99
  -4  -8  14  106.55    6.17
  -4  -8  14  114.09    6.15
  -4  -8  14  113.04    5.87
   4  -8 -14  118.81    7.23
   6  -8  14   81.16    4.81
   6  -8  14   75.80    5.33
  -6  -8  14   63.15    6.01
   6   8  14   77.19    4.66
  -6  -8  14   80.81    4.86
  -6  -8  14   77.72    4.48
   6  -8 -14   76.73    4.51
   6  -8 -14   85.95    6.38
   8   8 -14    8.48    1.67
   8  -8  14    6.19    1.36
  -8  -8  14    5.32    1.81
  -8  -8  14    8.23    1.39
   8  -8 -14   17.95    6.14
   8   8  14   10.18    1.55
   8  -8 -14   10.93    1.65
  10  -8  14    1.21    1.25
  10   8 -14    1.00    1.77
 -10  -8  14    1.63    1.31
  10  -8 -14    1.15    1.39
  10   8  14    0.39    1.14
  12   8 -14   -0.44    1.82
  12  -8  14    2.60    1.46
  12  -8 -14   -0.71    1.48
  12   8  14   -0.51    1.24
  14  -8  14    3.58    1.83
  14   8 -14    1.42    1.83
  14  -8 -14    0.41    1.67
  14   8  14    3.59    1.55
   0 -10  14    6.04    1.14
   0 -10 -14    7.59    1.67
   0 -10  14    4.73    1.43
   0 -10  14    6.54    1.21
   0 -10  14    5.86    0.87
   0 -10 -14    9.14    1.03
   2 -10  14   21.14    2.59
  -2 -10 -14   19.27    2.81
  -2 -10 -14   17.89    1.52
   2 -10  14   19.60    1.47
   2 -10  14   19.57    1.91
  -2 -10  14   19.32    1.85
   2 -10 -14   18.26    2.82
  -2 -10  14   20.90    1.59
  -2 -10  14   21.88    1.99
   2 -10 -14   18.97    1.64
   4 -10  14  167.39    8.58
   4 -10  14  138.11    9.07
   4 -10  14  169.49    8.70
   4 -10 -14  162.24    8.38
   4  10  14  164.08    8.46
   4 -10 -14  160.09    9.65
  -4 -10  14  168.67    8.32
  -4 -10  14  156.97    8.60
  -4 -10  14  147.85    8.38
  -4 -10  14  157.26    8.67
   6  10 -14   73.41    4.73
   6 -10  14   81.47    5.03
   6 -10 -14   84.25    6.56
  -6 -10  14   83.49    5.16
  -6 -10  14   84.56    4.67
   6  10  14   80.85    4.86
   6 -10 -14   81.94    4.69
  -6 -10  14   78.48    5.06
   8  10 -14    1.05    1.55
   8 -10  14    1.31    1.02
   8 -10 -14    1.50    1.30
  -8 -10  14   -0.28    1.56
  -8 -10  14    1.41    1.02
   8  10  14    0.95    1.09
  10  10 -14    0.99    1.72
  10 -10  14    2.48    1.29
 -10 -10  14    6.65    1.49
  10  10  14    2.48    1.22
  10 -10 -14    3.68    1.35
  12 -10  14    1.25    1.52
  12  10 -14    0.98    1.89
  12  10  14   -1.09    1.27
  12 -10 -14   -1.94    1.43
  14  10 -14   -0.57    1.75
  14 -10 -14    0.99    1.80
  14  10  14    2.32    1.98
   0 -12  14   10.30    1.45
   0 -12  14   10.42    1.10
   0 -12 -14    8.83    1.84
   0 -12  14    9.23    2.10
   0 -12 -14   10.67    1.20
   0 -12  14   12.17    1.64
  -2 -12 -14    8.41    1.78
  -2 -12 -14   11.80    1.17
   2 -12  14   11.88    1.60
   2 -12  14    9.19    1.93
   2 -12  14   10.26    1.09
  -2 -12  14   12.10    1.58
   2 -12 -14    8.49    1.92
   2 -12 -14   12.53    1.29
  -2 -12  14   12.80    1.71
  -2 -12  14   12.86    1.26
   4 -12  14   95.90    5.54
  -4 -12 -14   82.21    5.16
   4 -12  14   89.56    4.98
   4 -12 -14   88.81    6.65
  -4 -12  14   92.97    5.58
   4 -12 -14   95.47    5.21
  -4 -12  14   89.65    5.28
  -4 -12  14  101.63    5.61
  -4 -12  14   98.52    5.15
   4  12  14   90.46    5.25
   6 -12  14   74.26    4.83
  -6 -12 -14   73.01    4.65
  -6 -12  14   63.08    4.78
   6 -12 -14   77.22    6.52
   6  12  14   76.00    4.70
  -6 -12  14   80.33    5.12
  -6 -12  14   76.29    4.46
   6 -12 -14   81.30    4.57
  -6 -12  14   76.04    4.71
   8 -12  14    1.17    1.11
   8  12 -14    1.69    1.74
   8 -12 -14    1.17    0.96
   8  12  14    3.26    1.17
  -8 -12  14   -0.74    1.70
   8 -12 -14    1.22    1.21
  -8 -12  14    2.86    1.19
  10 -12  14   -0.45    1.16
  10  12 -14    0.41    1.64
  10  12  14   -0.97    1.16
  10 -12 -14    1.99    1.32
 -10 -12  14    3.72    2.20
 -10 -12  14    0.40    1.41
  12 -12  14   -1.71    1.48
  12  12 -14   -0.32    1.83
  12 -12 -14   -3.07    1.49
  12  12  14   -0.29    1.29
  14  12 -14    1.38    1.81
  14 -12 -14    3.97    1.86
   0 -14  14   15.72    1.44
   0 -14 -14   14.26    2.26
   0 -14 -14   19.01    1.58
   0 -14  14   16.73    1.94
   0 -14  14   16.64    2.02
   2 -14  14   33.69    2.78
   2 -14  14   34.09    2.32
  -2 -14 -14   31.44    2.31
  -2 -14 -14   30.29    3.62
   2 -14 -14   32.56    3.68
  -2 -14  14   35.91    2.69
  -2 -14  14   37.44    2.37
   2 -14 -14   39.03    2.52
  -2 -14  14   34.95    2.84
  -2 -14  14   40.98    2.85
  -4 -14 -14   23.55    2.63
   4 -14  14   26.26    2.53
   4 -14  14   24.24    1.88
  -4 -14  14   31.79    2.71
  -4 -14  14   27.41    2.47
  -4 -14  14   25.43    2.48
   4 -14 -14   26.45    2.10
  -4 -14  14   25.92    2.06
   4 -14 -14   23.03    3.43
   4  14  14   24.86    2.55
  -6 -14 -14   10.63    1.83
   6 -14  14   11.25    1.84
  -6 -14  14   15.08    1.68
   6  14  14   13.95    1.87
   6 -14 -14   15.80    1.75
  -6 -14  14    9.58    1.73
  -6 -14  14   15.17    2.38
  -6 -14  14   16.55    2.09
  -8 -14 -14    2.18    1.32
   8  14 -14    1.90    1.67
   8 -14  14    2.14    1.27
   8 -14 -14    1.26    0.95
   8 -14 -14    1.04    1.32
   8  14  14    2.74    1.27
  -8 -14  14   -0.65    1.80
  -8 -14  14    3.44    1.31
  10 -14  14    2.04    1.47
  10  14 -14   -0.78    1.62
  10 -14 -14    2.90    1.42
 -10 -14  14   -0.60    1.87
  10  14  14   -0.88    1.26
 -10 -14  14    0.53    1.54
  12  14 -14    1.01    1.77
  12  14  14   -0.88    1.32
  12 -14 -14   -2.19    1.62
  14  14 -14   -0.15    1.83
  14 -14 -14    1.18    1.71
   0 -16 -14   67.15    5.64
   0 -16  14   81.42    4.84
   0 -16  14   78.10    4.41
   0 -16  14   74.04    4.85
   0 -16 -14   80.77    4.50
   2 -16  14   51.15    3.67
  -2 -16 -14   52.53    3.27
   2 -16  14   51.08    3.22
  -2 -16 -14   39.61    4.43
  -2 -16  14   57.24    3.84
  -2 -16  14   59.46    3.82
   2 -16 -14   45.72    4.50
  -2 -16  14   56.59    3.31
  -2 -16  14   53.44    3.60
   2 -16 -14   56.19    3.40
   4 -16  14    0.12    0.94
   4 -16  14   -0.18    0.47
  -4 -16  14    0.48    1.14
  -4 -16  14    0.90    0.95
   4 -16 -14    1.37    2.40
  -4 -16  14    0.85    1.16
  -4 -16  14    0.16    0.70
  -6 -16 -14    0.24    1.23
   6 -16  14    0.59    1.06
  -6 -16  14    0.16    1.26
   6 -16 -14    0.78    0.82
   6  16  14   -0.01    1.03
  -6 -16  14    2.62    1.13
  -6 -16  14    0.55    1.57
  -8 -16 -14    2.14    1.38
   8 -16  14    5.14    1.61
   8  16 -14    6.70    1.78
   8 -16 -14    3.31    1.13
   8  16  14    2.13    1.44
  -8 -16  14    5.89    2.28
  -8 -16  14    9.94    1.75
   8 -16 -14    6.74    1.83
  10 -16  14    4.14    1.71
  10  16 -14    2.41    1.73
 -10 -16  14    5.20    2.88
 -10 -16  14    7.21    2.48
  10 -16 -14    5.54    1.80
  10  16  14    3.76    1.58
  12  16 -14    2.70    1.75
  12  16  14    4.85    1.63
  12 -16 -14    8.17    1.97
  14  16 -14   -4.43    1.94
   0 -18  14  154.63    8.13
   0 -18 -14  161.01    8.23
   0 -18  14  148.42    8.46
   0 -18  14  137.34    8.52
   0 -18  14  156.26    8.38
  -2 -18 -14   25.60    2.16
   2 -18  14   22.30    2.03
   2 -18  14   25.59    2.56
   2 -18  14   23.35    2.62
   2 -18 -14   28.19    2.25
  -2 -18  14   25.57    2.68
  -2 -18  14   25.21    2.09
  -2 -18  14   27.82    2.60
   4 -18  14    0.53    1.00
   4 -18  14   -0.36    0.56
  -4 -18  14   -0.13    0.74
  -4 -18  14   -1.00    1.31
  -4 -18  14    1.74    1.38
   6 -18  14    8.02    1.72
  -6 -18  14    4.91    2.21
   6 -18 -14    5.72    1.27
  -6 -18  14    7.24    1.83
  -6 -18  14    8.08    1.52
   8 -18  14    2.07    1.54
   8  18 -14    3.76    1.71
  -8 -18 -14    3.22    1.52
   8  18  14    0.06    1.27
   8 -18 -14    2.16    1.14
  -8 -18  14    2.55    1.49
  -8 -18  14   -1.05    2.28
   8 -18 -14    3.37    1.63
  10 -18 -14   30.13    3.53
  10  18  14   16.42    2.44
  12  18 -14    1.80    1.63
  12 -18 -14    0.27    1.82
   0 -20  14  101.74    6.24
   0 -20  14  106.32    5.94
   0 -20 -14  103.24    5.96
   0 -20  14  104.64    6.42
   2 -20  14    6.54    1.71
   2 -20  14    6.58    1.18
  -2 -20 -14    8.39    1.33
   2 -20  14    7.79    1.62
  -2 -20  14    7.56    1.78
   2 -20 -14    7.01    1.26
  -2 -20  14    7.91    1.74
  -2 -20  14    6.47    1.15
   4 -20  14   -0.42    0.53
   4 -20  14   -1.50    1.18
  -4 -20  14    0.27    1.42
  -4 -20  14    0.19    0.81
   4 -20 -14    0.06    0.80
  -4 -20  14   -0.39    1.62
   6 -20  14    1.74    1.36
  -6 -20  14    1.51    1.19
  -6 -20  14    1.80    1.74
  -6 -20  14    5.83    2.17
   6 -20 -14    0.62    0.92
  -8 -20 -14    0.34    1.58
   8  20 -14    0.36    1.56
   8 -20  14    5.39    1.69
   8 -20 -14    5.26    1.30
  -8 -20  14    3.97    1.61
  -8 -20  14    5.98    2.77
  10  20  14   13.33    2.22
  10 -20 -14   20.17    2.99
  12  20 -14   -2.55    1.52
   0 -22 -14    4.53    1.23
   0 -22  14    1.89    0.92
   0 -22  14    2.50    1.64
   0 -22  14    4.86    1.79
   2 -22  14   38.35    3.35
   2 -22  14   32.71    3.44
   2 -22  14   37.39    2.92
  -2 -22 -14   40.92    3.02
  -2 -22  14   40.57    3.78
  -2 -22  14   38.58    3.56
  -2 -22  14   41.19    2.98
   2 -22 -14   41.13    3.05
   4 -22  14   -1.51    1.34
   4 -22  14    0.53    0.65
  -4 -22  14    0.15    1.63
  -4 -22  14   -1.12    1.79
  -4 -22  14   -1.03    0.84
   4 -22 -14    1.76    0.94
   6 -22  14    5.97    1.64
  -6 -22  14    2.08    2.53
  -6 -22  14    5.55    1.51
   6 -22 -14    3.14    1.16
  -6 -22  14    4.59    2.12
  -8 -22  14   16.19    2.33
   8 -22 -14   13.95    2.01
  -8 -22  14   21.05    3.28
  10  22 -14    0.89    1.64
  10 -22 -14    6.57    1.48
   0 -24  14   16.78    2.66
   0 -24  14   21.21    3.02
   0 -24 -14   19.10    2.25
   0 -24  14   18.29    2.19
  -2 -24 -14   -0.71    0.90
   2 -24  14    0.49    0.82
   2 -24  14   -0.47    1.35
   2 -24  14    0.75    1.45
  -2 -24  14    0.56    0.92
  -2 -24  14   -1.20    1.70
  -2 -24  14    0.66    1.90
   2 -24 -14    0.69    1.02
   4 -24  14   21.64    3.11
   4 -24  14   34.80    2.73
   4 -24 -14   32.04    2.79
  -4 -24  14   40.63    4.21
  -4 -24  14   30.59    3.64
  -4 -24  14   31.27    2.82
   6 -24  14    7.51    1.96
  -6 -24  14   14.45    2.74
  -6 -24  14   11.45    3.04
  -6 -24  14   11.24    1.92
   6 -24 -14   10.77    1.74
   8 -24 -14    9.10    1.77
  -8 -24  14   14.63    2.14
  10  24 -14   -0.59    1.70
  10 -24 -14    2.39    1.29
   0 -26  14    9.19    2.44
   0 -26 -14    8.41    1.57
   0 -26  14    6.06    1.39
   0 -26  14   10.05    2.31
   2 -26  14    4.85    1.96
   2 -26  14    5.57    1.32
   2 -26  14    4.44    2.06
  -2 -26  14    3.48    1.25
  -2 -26  14    1.23    2.20
  -2 -26  14    6.13    2.26
   2 -26 -14    4.60    1.31
   4 -26  14   19.47    2.13
   4 -26  14   13.14    2.56
  -4 -26  14   23.20    3.05
   4 -26 -14   16.11    2.05
  -4 -26  14   15.89    2.25
  -4 -26  14   25.54    3.55
  -6 -26  14   45.18    3.68
  -6 -26  14   41.62    4.41
   6 -26 -14   46.11    3.61
   8  26 -14    1.95    1.49
  -8 -26  14    5.30    1.66
   8 -26 -14    3.42    1.47
   0 -28  14   17.78    2.11
   0 -28 -14   14.48    2.01
   0 -28  14   15.30    2.86
   2 -28  14    0.58    2.25
   2 -28  14    0.89    1.04
  -2 -28  14   -0.25    2.15
   2 -28 -14    0.52    1.12
  -2 -28  14    1.98    1.18
   4 -28  14   44.05    3.23
  -4 -28  14   38.55    4.23
   4 -28 -14   40.99    3.34
  -4 -28  14   43.27    3.37
  -6 -28  14   50.43    3.83
  -6 -28  14   49.83    4.68
   6 -28 -14   55.30    3.94
   0 -30  14    6.10    2.34
   0 -30  14    8.51    1.62
   0 -30 -14    9.11    1.61
   2 -30  14   -0.04    0.98
  -2 -30  14   -0.77    1.05
  -2 -30  14   -3.34    2.30
   2 -30 -14   -0.51    1.05
   1  -1  15   90.50    5.75
  -1  -1 -15   99.09    5.87
   1  -1  15   95.89    5.55
  -1   1  15   91.52    5.52
  -1   1  15   87.17    4.91
   1  -1  15   89.15    5.02
  -1   1  15   88.85    5.69
   1   1  15   93.21    5.81
   1   1  15   88.33    4.98
  -1  -1  15   97.37    5.57
  -1  -1  15   89.23    5.76
  -1  -1  15   90.87    5.00
   1  -1 -15  104.58    5.98
   1   1  15   92.13    5.44
  -3   1  15   10.74    1.82
   3  -1  15    9.15    1.22
   3  -1  15   12.70    1.85
  -3   1  15    9.46    1.73
   3  -1 -15   12.39    2.13
  -3  -1  15   12.25    1.94
  -3  -1  15    9.81    1.86
   3   1  15   11.04    1.25
  -3  -1  15   12.96    1.66
   5  -1  15    0.03    0.99
   5   1  15    0.33    0.59
   5  -1 -15    1.16    1.61
   7  -1  15    7.24    1.34
   7   1  15    7.51    1.38
   7  -1 -15   10.22    2.53
   9   1 -15   17.49    2.30
   9   1 -15   19.35    3.75
   9  -1  15   26.84    2.60
   9  -1 -15   16.05    4.94
   9  -1 -15   24.35    2.65
   9   1  15   31.76    2.81
  11   1 -15    3.98    1.64
  11  -1  15    7.33    1.65
  11   1  15    7.98    1.60
  11  -1 -15    6.54    1.70
 -11  -1  15   10.06    1.77
  13   1 -15   -1.89    1.59
  13  -1  15    2.94    1.43
  13  -1 -15    1.83    1.67
  13   1  15    0.73    1.28
  15   1 -15   -1.30    1.93
  15  -1 -15   -1.02    1.87
  -1   3  15    5.21    1.31
   1  -3  15    6.56    0.86
   1  -3  15    7.95    1.46
   1  -3  15    5.77    0.91
   1  -3  15    9.04    1.63
  -1   3  15    5.90    1.19
  -1  -3 -15    7.41    1.52
  -1  -3  15    4.92    1.33
  -1  -3  15    7.60    1.10
   1   3  15    4.96    0.78
   1  -3 -15    7.97    1.74
  -1  -3  15    6.62    1.48
  -3   3  15    9.58    1.78
   3  -3  15    9.58    1.23
  -3   3  15    9.09    1.72
   3  -3  15    9.10    1.66
   3  -3  15   12.69    1.95
  -3  -3  15    8.51    1.21
   3   3  15   10.64    1.17
   3  -3 -15   11.73    2.11
  -3  -3  15    7.58    1.75
   5  -3  15    4.69    1.06
  -5   3  15    3.80    1.54
   5  -3  15    5.33    1.52
   5  -3 -15    5.93    1.85
   5   3  15    4.39    0.95
   7  -3  15    1.20    0.92
   7  -3  15    0.05    1.19
   7  -3 -15    1.10    2.12
   7   3  15    1.79    0.98
   9  -3  15   24.36    2.58
   9   3 -15   15.25    2.41
   9   3  15   24.40    2.56
   9  -3 -15   21.30    2.63
  -9  -3  15   22.96    2.38
  11  -3  15    2.75    1.41
  11   3 -15    4.12    1.86
  11   3  15    3.23    1.41
 -11  -3  15    7.02    1.57
  11  -3 -15    2.81    1.50
  13  -3  15   -0.21    1.42
  13   3 -15   -1.10    1.72
  13   3  15    0.17    1.20
  13  -3 -15   -0.92    1.67
  15   3 -15    0.20    1.88
  15  -3 -15   -2.83    1.84
   1  -5  15    1.27    0.86
  -1   5  15    0.26    0.84
   1  -5  15    0.49    0.44
   1  -5  15   -0.27    0.48
  -1  -5 -15    0.62    1.03
   1  -5  15    1.18    1.06
   1   5  15    1.42    0.52
  -1  -5  15    1.95    1.02
  -1  -5  15    1.63    0.99
  -1  -5  15    1.13    0.76
   1  -5 -15    1.56    1.20
  -1  -5  15    1.22    0.51
  -3  -5 -15   52.72    4.19
   3  -5  15   55.08    3.39
  -3   5  15   45.75    3.86
   3  -5  15   53.84    3.97
  -3   5  15   50.92    3.86
   3  -5  15   55.58    3.34
   3  -5  15   54.79    3.99
   3   5  15   51.80    3.19
  -3  -5  15   54.31    3.14
  -3  -5  15   50.36    4.08
  -3  -5  15   51.97    3.35
   3  -5 -15   61.22    4.67
  -5   5  15   27.32    3.25
   5  -5  15   37.83    3.36
   5  -5  15   38.07    2.73
   5   5  15   34.48    2.51
   5  -5 -15   43.22    4.19
  -5  -5  15   36.21    2.46
  -5  -5  15   33.56    2.65
   7  -5  15   17.00    1.98
   7  -5  15   10.21    1.98
  -7  -5  15   12.12    1.49
   7   5  15   18.22    1.98
   7  -5 -15   12.56    2.83
   9   5 -15   -0.74    1.72
   9  -5  15    3.21    1.21
   9  -5 -15    2.57    1.45
   9   5  15    4.06    1.31
  -9  -5  15    3.14    1.21
  11  -5  15    2.89    1.36
  11   5 -15    2.87    1.90
  11  -5 -15    2.79    1.48
 -11  -5  15    4.34    1.82
  11   5  15    0.85    1.31
  13  -5  15   -0.20    1.41
  13   5 -15    0.66    1.88
  13   5  15   -0.44    1.29
  13  -5 -15   -2.47    1.70
  15   5 -15    0.53    1.88
  15  -5 -15    0.04    1.84
  -1  -7 -15   -0.42    0.97
   1  -7  15    0.89    1.08
   1  -7  15    0.03    0.81
   1  -7  15    0.44    0.62
  -1   7  15    0.75    0.88
   1  -7  15    1.34    0.51
  -1  -7  15    1.55    0.57
  -1  -7  15    0.22    0.99
   1  -7 -15    0.17    1.06
   1  -7 -15    0.66    0.56
  -1  -7  15   -0.76    0.68
   3  -7  15   88.71    5.05
   3  -7  15   86.48    5.50
   3  -7  15   80.99    5.57
   3  -7  15   85.47    4.61
  -3   7  15   78.33    5.43
  -3  -7 -15   93.78    5.90
   3   7  15   83.78    4.78
  -3  -7  15   90.27    4.99
  -3  -7  15   91.02    4.74
   3  -7 -15   85.42    6.07
   3  -7 -15   82.79    4.74
   5  -7  15   87.44    5.23
   5  -7  15   86.65    5.78
  -5  -7  15   85.97    4.89
  -5  -7  15   87.20    5.20
   5   7  15   85.35    5.04
   5  -7 -15   98.57    6.53
   7   7 -15   13.11    1.86
   7  -7  15   13.09    1.84
   7  -7  15   14.03    2.72
   7   7  15   21.68    2.20
  -7  -7  15   17.22    2.20
  -7  -7  15   18.03    1.88
   7  -7 -15   14.79    3.12
   9  -7  15   -0.43    0.96
   9   7 -15   -0.11    1.67
  -9  -7  15    1.38    1.25
   9  -7 -15    0.70    1.29
   9   7  15    1.17    1.14
  11   7 -15   -2.23    1.79
  11  -7  15    0.15    1.28
  11  -7 -15   -0.16    1.41
  11   7  15   -0.48    1.16
  13   7 -15   -1.68    1.82
  13  -7  15    0.50    1.50
  13   7  15    0.85    1.32
  13  -7 -15   -0.23    1.62
  15   7 -15    0.01    1.84
  15  -7 -15    3.19    1.81
  -1  -9 -15    2.22    1.27
  -1  -9 -15    1.79    0.60
  -1   9  15    2.42    1.01
   1  -9  15    3.28    0.99
   1  -9  15    2.99    0.65
   1  -9  15    2.84    1.16
  -1  -9  15    3.00    0.69
   1  -9 -15    2.94    0.71
  -1  -9  15    2.95    1.36
  -1  -9  15    3.41    0.99
   1  -9 -15    2.95    1.35
   3  -9  15   40.94    2.96
   3  -9  15   37.07    3.50
  -3  -9 -15   44.57    3.94
   3  -9  15   39.20    3.36
   3  -9  15   41.70    2.51
  -3  -9  15   42.51    2.64
   3  -9 -15   45.85    4.17
   3  -9 -15   41.42    2.69
  -3  -9  15   42.10    3.16
   3   9  15   41.10    2.72
  -3  -9  15   44.25    2.97
   5  -9  15  112.75    6.48
   5  -9  15  108.04    6.87
  -5  -9  15  112.85    6.10
  -5  -9  15  120.33    6.50
   5  -9 -15  111.84    7.61
   5  -9 -15  109.90    6.12
   5   9  15  109.47    6.24
   7  -9  15   52.57    4.71
   7   9 -15   49.87    3.86
   7  -9  15   58.60    4.01
  -7  -9  15   59.65    3.70
  -7  -9  15   59.80    4.16
   7  -9 -15   68.55    6.75
   7   9  15   59.93    3.89
   9  -9  15    1.29    1.08
   9   9 -15    2.53    1.73
   9  -9 -15    4.66    1.32
   9   9  15    5.78    1.44
  -9  -9  15    3.89    1.30
  11   9 -15    1.37    1.97
  11  -9  15    1.57    1.38
  11   9  15    0.52    1.26
  11  -9 -15    0.63    1.30
  13   9 -15    1.22    1.81
  13  -9  15    1.49    1.59
  13  -9 -15   -1.62    1.69
  13   9  15    1.48    1.42
  15   9 -15    1.53    1.98
  15  -9 -15    1.96    1.97
   1 -11  15    1.00    0.82
  -1 -11 -15    0.64    1.18
   1 -11  15    2.20    0.58
  -1 -11 -15    1.46    0.60
  -1 -11  15    2.94    0.69
  -1 -11  15    2.62    0.99
  -1 -11  15    1.70    0.92
   1 -11 -15    2.48    0.67
   1 -11 -15    2.33    1.33
  -3 -11 -15   77.54    5.91
   3 -11  15   82.81    4.61
   3 -11  15   92.68    5.17
   3 -11 -15   84.91    4.80
  -3 -11  15   92.38    5.13
   3  11  15   79.27    5.41
  -3 -11  15   81.82    5.06
  -3 -11  15   87.14    4.72
   3 -11 -15   81.67    6.20
   5 -11  15   79.81    5.00
   5 -11 -15   81.96    6.36
  -5 -11  15   74.41    4.77
  -5 -11  15   68.95    5.90
   5 -11 -15   83.00    4.67
  -5 -11  15   85.63    5.09
  -5 -11  15   76.86    4.54
   5  11  15   82.20    4.78
   7  11 -15   33.30    3.18
   7 -11  15   32.69    3.11
  -7 -11  15   37.86    3.61
   7 -11 -15   42.43    2.89
  -7 -11  15   38.27    2.82
   7  11  15   37.04    3.07
   9  11 -15    1.39    1.62
   9 -11  15    0.59    1.28
  -9 -11  15    6.46    1.47
   9 -11 -15    2.71    1.34
   9  11  15    3.51    1.32
  -9 -11  15    4.81    1.85
  11 -11  15   -0.09    1.53
  11  11 -15    2.10    1.81
  11 -11 -15    3.16    1.58
  11  11  15   -1.34    1.34
  13 -11  15   -1.41    1.80
  13  11 -15    1.92    1.91
  13 -11 -15    0.89    1.63
  13  11  15    2.95    1.45
  15  11 -15    4.46    2.05
  15 -11 -15    4.36    2.36
  -1 -13 -15    3.22    0.75
   1 -13  15    3.66    1.08
  -1 -13 -15    2.87    1.50
   1 -13  15    3.00    0.69
   1 -13 -15    4.55    1.59
  -1 -13  15    4.41    0.81
   1 -13 -15    4.69    0.88
  -1 -13  15    3.65    1.10
  -1 -13  15    4.32    1.13
   3 -13  15   34.19    2.79
   3 -13  15   32.30    2.24
  -3 -13 -15   31.91    3.84
   3 -13 -15   30.88    3.84
  -3 -13  15   31.72    2.67
  -3 -13  15   35.18    2.79
   3 -13 -15   33.65    2.46
  -3 -13  15   36.72    2.35
  -3 -13  15   39.34    2.98
   5 -13  15   72.65    4.87
  -5 -13  15   71.74    4.63
   5 -13 -15   76.68    4.53
   5  13  15   73.14    4.58
  -5 -13  15   77.62    4.39
  -5 -13  15   66.94    4.84
   5 -13 -15   76.16    6.45
  -5 -13  15   84.16    5.04
   7 -13  15   12.44    1.99
   7  13 -15   13.80    2.00
  -7 -13  15   13.89    2.39
   7  13  15   11.93    1.89
   7 -13 -15   17.39    1.96
  -7 -13  15   14.74    1.76
   9 -13  15    1.32    1.34
   9  13 -15   -0.80    1.57
  -9 -13  15    1.14    1.42
  -9 -13  15    2.28    1.76
   9  13  15    0.11    1.27
   9 -13 -15   -0.23    1.43
  11  13 -15   -0.16    1.73
  11 -13  15   -0.36    1.47
  11  13  15    0.85    1.37
  11 -13 -15   -1.72    1.46
  13  13 -15   -2.25    1.75
  13 -13 -15    0.69    1.67
   1 -15  15   25.97    1.99
   1 -15  15   27.43    2.50
  -1 -15 -15   24.95    3.45
  -1 -15 -15   29.92    2.10
  -1 -15  15   28.75    2.05
   1 -15 -15   25.80    2.13
  -1 -15  15   27.04    2.61
  -1 -15  15   28.07    2.65
   1 -15 -15   22.12    3.40
   3 -15  15   26.10    1.94
   3 -15  15   23.94    2.46
  -3 -15  15   27.38    2.65
  -3 -15  15   31.36    2.69
  -3 -15  15   21.91    2.48
  -3 -15  15   28.85    2.05
   3 -15 -15   27.18    2.16
   3 -15 -15   20.23    3.13
   5 -15  15    1.34    1.07
   5 -15 -15    2.45    0.89
   5  15  15    1.51    1.38
  -5 -15  15    5.78    1.74
  -5 -15  15    3.73    1.26
  -5 -15  15    4.96    1.03
  -5 -15  15    5.61    1.47
   7 -15  15    0.03    1.21
   7  15 -15   -1.14    1.51
  -7 -15  15    1.87    1.77
  -7 -15  15    0.02    1.02
   7  15  15   -0.15    1.05
   7 -15 -15   -0.20    0.87
   9  15 -15   -0.59    1.80
   9 -15  15    3.08    1.52
  -9 -15  15    3.61    1.61
   9  15  15    2.08    1.43
  -9 -15  15    4.94    2.05
  11 -15  15    3.12    1.84
  11  15 -15    1.83    1.77
  11  15  15    2.07    1.55
  11 -15 -15    3.92    1.77
  13  15 -15    0.95    1.81
  13 -15 -15    1.23    1.58
  -1 -17 -15   95.13    5.35
   1 -17  15   88.00    5.67
   1 -17  15   91.68    5.28
  -1 -17  15  100.06    5.70
   1 -17 -15   90.70    5.37
  -1 -17  15   93.81    5.93
  -1 -17  15   96.25    5.31
   3 -17  15    1.12    1.11
   3 -17  15    2.75    0.80
  -3 -17  15    2.34    1.37
  -3 -17  15    4.18    1.43
   3 -17 -15    3.31    0.94
  -3 -17  15    3.19    0.85
   5 -17  15    5.74    1.51
   5 -17 -15    4.64    1.13
  -5 -17  15    5.12    1.83
  -5 -17  15    6.69    1.62
  -5 -17  15    4.95    1.16
   7  17 -15    0.18    1.62
   7 -17  15    0.72    1.21
   7 -17 -15   -0.48    0.93
  -7 -17  15   -1.90    1.88
  -7 -17  15    0.99    1.20
   7  17  15    0.02    1.09
   9  17 -15    5.07    1.94
   9 -17  15   11.48    2.08
   9 -17 -15   22.84    2.39
  -9 -17  15   18.11    2.27
  -9 -17  15   14.50    2.77
   9  17  15    6.97    1.90
  11  17 -15    2.04    1.76
 -11 -17  15   10.22    4.07
  11  17  15    6.66    1.80
  13  17 -15    0.55    1.74
   1 -19  15   68.18    4.88
   1 -19  15   71.84    4.41
  -1 -19 -15   78.40    4.51
   1 -19 -15   71.65    4.49
  -1 -19  15   75.19    4.93
  -1 -19  15   73.38    4.41
  -1 -19  15   74.78    4.84
   3 -19  15    0.06    1.19
   3 -19  15    1.51    0.71
  -3 -19  15   -0.30    1.38
  -3 -19  15    0.54    0.77
  -3 -19  15    0.49    1.40
   3 -19 -15    3.14    0.97
   5 -19  15   10.45    2.00
   5 -19  15    9.49    1.37
  -5 -19  15   13.68    1.71
  -5 -19  15   14.69    2.28
  -5 -19  15   15.38    2.59
   5 -19 -15   10.25    1.56
   7 -19  15    0.87    1.28
  -7 -19  15    0.31    2.19
   7 -19 -15    0.05    0.96
  -7 -19  15   -0.09    1.29
  -7 -19  15    0.02    1.71
   9 -19  15   13.75    2.27
   9  19  15   12.27    2.19
  -9 -19  15   16.73    3.36
  11  19 -15    1.05    1.68
  -1 -21 -15   33.75    2.79
   1 -21  15   31.65    3.27
   1 -21  15   35.79    2.77
  -1 -21  15   37.14    2.76
   1 -21 -15   41.20    2.94
  -1 -21  15   31.87    3.38
  -1 -21  15   42.30    3.55
   3 -21  15   -1.26    1.32
   3 -21  15    0.51    0.73
   3 -21 -15    1.22    0.97
  -3 -21  15   -0.69    0.68
  -3 -21  15    2.05    1.69
  -3 -21  15   -0.51    1.57
   5 -21  15   -0.03    0.64
   5 -21  15   -0.82    1.27
  -5 -21  15    0.36    1.09
   5 -21 -15   -0.42    0.87
  -5 -21  15    1.10    1.89
  -5 -21  15    0.62    1.67
   7 -21  15    0.59    1.47
  -7 -21  15    0.40    1.92
  -7 -21  15   -1.31    2.33
   7 -21 -15   -0.34    0.98
  -7 -21  15    0.15    1.24
   9 -21 -15   16.24    2.10
  -9 -21  15   15.82    3.33
  -9 -21  15   20.61    2.45
  11  21 -15   -0.27    1.60
   1 -23  15    6.07    1.37
  -1 -23 -15    9.35    1.52
   1 -23  15    7.60    1.98
  -1 -23  15    7.27    1.36
   1 -23 -15    8.44    1.55
  -1 -23  15    5.50    1.96
  -1 -23  15    8.11    2.06
   3 -23  15   11.66    2.18
   3 -23  15    8.07    1.39
  -3 -23  15    7.74    1.49
   3 -23 -15    9.94    1.59
  -3 -23  15    8.96    2.66
  -3 -23  15    8.75    2.30
   5 -23  15    6.64    1.27
   5 -23  15    5.04    1.90
   5 -23 -15    6.59    1.43
  -5 -23  15    5.95    1.54
  -5 -23  15    6.25    2.14
  -5 -23  15   10.13    2.72
   7 -23  15    4.18    1.80
   7 -23 -15    6.80    1.60
  -7 -23  15    7.26    2.34
  -7 -23  15    7.97    1.78
  -7 -23  15    8.33    3.07
   9  23 -15    0.90    1.66
   9 -23 -15    8.65    1.60
  -9 -23  15    3.46    1.71
  -1 -25 -15    0.44    1.11
   1 -25  15    0.28    0.92
   1 -25  15    1.37    1.64
  -1 -25  15    0.22    1.72
  -1 -25  15    0.43    1.03
  -1 -25  15    1.73    1.93
   1 -25 -15   -1.12    0.97
   3 -25  15   13.97    1.80
   3 -25  15   11.91    2.29
   3 -25 -15   12.69    1.82
  -3 -25  15   18.51    3.21
  -3 -25  15   11.81    1.81
  -3 -25  15    9.44    2.61
   5 -25  15   21.53    2.08
   5 -25  15   10.84    2.43
  -5 -25  15   19.68    3.42
   5 -25 -15   17.68    2.19
  -5 -25  15   19.34    3.06
  -5 -25  15   20.30    2.27
  -7 -25  15   13.40    2.77
   7 -25 -15   13.09    2.02
  -7 -25  15   18.62    2.28
   9 -25 -15    1.42    1.20
  -1 -27 -15    3.00    1.30
   1 -27  15    4.72    2.05
   1 -27  15    2.85    1.18
  -1 -27  15   -0.15    2.27
  -1 -27  15    2.95    2.20
  -1 -27  15    3.92    1.23
   1 -27 -15    2.26    1.19
   3 -27  15    9.19    1.57
   3 -27 -15    6.56    1.49
  -3 -27  15    8.32    2.36
  -3 -27  15    6.21    1.51
   5 -27  15   51.68    3.68
  -5 -27  15   47.26    4.65
  -5 -27  15   54.09    3.92
   5 -27 -15   55.26    3.92
  -7 -27  15   20.80    2.40
   7 -27 -15   19.54    2.34
   1 -29  15    6.09    1.42
   1 -29 -15    3.93    1.38
  -1 -29  15    8.97    1.56
   3 -29  15   19.25    2.17
  -3 -29  15   15.71    2.02
  -3 -29  15   17.53    2.84
   3 -29 -15   12.84    1.90
   0   0  16  344.24   18.07
   0   0  16  368.80   19.02
   0   0  16  376.25   18.64
   2   0  16    0.79    0.54
   2   0  16   -0.55    0.67
  -2   0  16    0.47    0.90
  -2   0  16   -0.07    0.92
  -2   0 -16   -0.15    0.90
   2   0  16   -0.09    0.88
   4   0  16   66.11    4.43
  -4   0  16   51.73    4.55
   4   0  16   62.97    3.80
   6   0  16    3.16    0.98
   6   0  16    1.84    1.27
   8   0  16    6.52    1.34
  10   0 -16    4.56    1.53
  10   0  16    6.62    1.44
  12   0  16    6.95    1.62
  12   0 -16    5.21    1.79
  14   0  16   -0.41    1.41
  14   0 -16   -0.80    1.83
   0  -2  16   83.49    4.66
   0  -2  16   82.37    5.45
   0   2  16   86.23    5.17
   0  -2  16   87.34    5.27
   0  -2 -16   95.45    5.74
   0   2  16   76.35    4.53
   0   2  16   78.63    5.37
  -2   2  16    3.60    1.22
  -2  -2 -16    3.11    1.22
   2  -2  16    2.30    1.03
   2  -2  16    3.04    0.56
  -2   2  16    3.11    1.15
   2  -2  16    3.08    1.24
   2  -2  16    2.76    0.74
  -2  -2  16    2.07    1.15
   2  -2 -16    2.16    1.51
   2   2  16    1.77    0.63
  -2  -2  16    3.48    0.84
  -2  -2  16    2.19    1.16
   4  -2  16    0.25    0.65
  -4   2  16   -0.13    1.19
   4  -2  16    0.56    1.02
   4   2  16   -0.04    0.60
   4  -2 -16    0.58    1.53
   6  -2  16    3.95    1.05
   6  -2  16    3.63    1.47
   6  -2 -16    3.33    1.91
   6   2  16    4.07    1.04
   8  -2  16    5.09    1.32
   8   2 -16   10.17    2.54
   8   2  16    6.73    1.48
   8  -2 -16    6.82    2.98
  10   2 -16    5.53    1.84
  10  -2 -16   11.83    1.85
 -10  -2  16   17.78    2.04
  10   2  16   11.98    1.80
  12   2 -16    0.61    1.58
  12  -2  16    0.25    1.31
  12   2  16    1.74    1.26
  12  -2 -16   -1.19    1.56
  14  -2  16   -0.58    1.47
  14   2 -16   -0.04    1.86
  14   2  16    0.94    1.38
  14  -2 -16    0.96    1.78
   0  -4  16    5.53    0.98
   0   4  16    3.72    1.21
   0  -4  16    4.27    1.27
   0  -4  16    5.80    1.45
   0  -4 -16    3.67    1.55
   0  -4  16    4.56    0.75
  -2  -4 -16    5.31    1.47
   2  -4  16    7.45    1.11
   2  -4  16    7.85    0.91
  -2   4  16    6.24    1.48
   2  -4  16    7.63    1.60
  -2   4  16    6.29    1.39
   2  -4  16    8.29    1.77
   2   4  16    7.10    1.00
  -2  -4  16    7.92    1.68
  -2  -4  16    7.24    0.96
   2  -4 -16    8.27    1.86
  -2  -4  16    6.22    1.17
  -2  -4  16    6.11    1.57
   4  -4  16   27.93    2.28
  -4   4  16   23.64    2.94
   4  -4  16   26.70    2.85
  -4   4  16   26.59    3.10
  -4  -4  16   28.97    2.03
   4  -4 -16   32.81    3.69
  -4  -4  16   21.86    2.15
   4   4  16   27.59    2.08
   6  -4  16    0.65    1.29
   6  -4  16    0.97    0.87
   6  -4 -16    2.90    1.80
   6   4  16    0.59    0.80
  -6  -4  16   -0.18    0.80
   8  -4  16    4.15    1.23
   8   4  16    4.38    1.26
   8  -4 -16    0.40    3.07
  -8  -4  16    4.80    1.26
  10   4 -16   -0.18    1.82
  10  -4  16    4.48    1.49
  10   4  16    4.68    1.44
 -10  -4  16    6.52    1.52
  10  -4 -16    2.86    1.52
  12  -4  16   -0.32    1.22
  12   4 -16    0.22    1.81
  12   4  16    1.42    1.20
  12  -4 -16   -1.05    1.53
  14  -4  16    0.34    1.53
  14   4 -16    0.02    1.79
  14  -4 -16   -1.64    1.79
  14   4  16   -0.22    1.24
   0  -6  16   66.05    3.82
   0  -6 -16   67.89    4.88
   0  -6  16   60.07    3.54
   0  -6  16   64.83    4.38
   0  -6  16   55.73    4.44
   0   6  16   59.83    4.44
  -2  -6 -16   44.80    3.79
   2  -6  16   37.92    3.31
   2  -6  16   36.68    3.30
   2  -6  16   38.53    2.67
   2  -6  16   37.00    2.31
  -2   6  16   32.85    3.19
   2  -6 -16   39.87    3.84
   2   6  16   37.20    2.43
  -2  -6  16   40.21    2.71
  -2  -6  16   36.29    2.39
  -4   6  16   46.83    4.01
   4  -6  16   51.80    3.33
  -4   6  16   43.69    3.93
   4  -6  16   47.34    3.91
  -4  -6  16   46.33    3.23
  -4  -6  16   49.33    2.96
   4   6  16   49.37    3.11
   4  -6 -16   48.10    4.62
   6  -6  16   17.85    2.15
   6  -6  16   14.88    2.44
  -6  -6  16   20.20    1.84
  -6  -6  16   16.18    3.21
   6  -6 -16   21.17    3.15
   6   6  16   20.03    1.93
   8   6 -16    1.39    1.50
   8  -6  16    1.56    1.06
   8   6  16    3.06    1.20
  -8  -6  16    2.94    1.17
  10   6 -16   -3.19    1.64
  10  -6  16    1.66    1.13
  10  -6 -16   -0.68    1.31
  10   6  16   -0.34    1.16
 -10  -6  16    0.30    1.32
  12   6 -16   -0.10    1.87
  12  -6  16   -1.23    1.32
  12   6  16   -0.03    1.28
  12  -6 -16   -0.95    1.51
  14   6 -16   -1.85    1.80
  14  -6  16    1.71    2.05
  14   6  16   -0.45    1.33
  14  -6 -16   -1.91    1.70
   0   8  16    3.00    1.22
   0  -8 -16    5.72    0.83
   0  -8  16    6.38    1.13
   0  -8 -16    4.24    1.48
   0  -8  16    5.04    0.81
   2  -8  16    1.76    0.81
   2  -8  16    1.82    1.20
  -2   8  16    1.60    1.07
  -2  -8 -16    1.88    1.20
   2  -8  16    2.35    0.59
  -2  -8  16    1.44    0.62
   2  -8 -16    1.78    0.64
   2  -8 -16    1.17    1.29
  -2  -8  16    1.63    0.92
   4  -8  16   92.94    5.28
  -4   8  16   72.94    5.69
   4  -8  16   84.05    5.68
  -4  -8  16   90.30    4.87
   4   8  16   86.30    4.97
  -4  -8  16   93.87    5.23
   4  -8 -16   89.20    6.41
   6  -8  16   76.56    4.83
   6  -8  16   70.87    5.49
   6  -8 -16   83.06    6.33
  -6  -8  16   77.03    4.86
  -6  -8  16   76.66    4.46
   6   8  16   73.78    4.65
   8  -8  16   -0.32    0.97
   8   8 -16    0.57    1.48
  -8  -8  16    0.85    1.10
   8   8  16    5.98    1.37
  10  -8  16    0.78    1.24
  10   8 -16    0.65    1.73
 -10  -8  16    2.88    1.34
  10  -8 -16   -0.66    1.66
  10   8  16    0.25    1.19
  12   8 -16   -0.19    1.81
  12  -8  16    0.61    1.50
  12   8  16   -0.29    1.37
  12  -8 -16    1.54    1.51
  14   8 -16   -0.59    1.78
  14  -8 -16    0.24    1.81
   0 -10 -16   24.22    3.15
   0 -10  16   28.40    2.29
   0  10  16   21.35    2.61
   0 -10  16   23.84    1.77
   0 -10 -16   24.30    1.86
  -2 -10 -16    6.87    1.79
  -2 -10 -16    9.19    1.06
   2 -10  16    8.46    0.99
   2 -10  16   11.71    1.61
  -2 -10  16   11.16    1.57
   2 -10 -16    9.74    1.18
  -2 -10  16    8.57    1.08
   2 -10 -16    8.30    2.01
  -4  10  16   32.75    3.61
   4 -10  16   46.49    3.24
  -4 -10  16   43.58    3.27
   4 -10 -16   41.90    2.78
   4  10  16   45.35    2.91
  -4 -10  16   42.10    2.72
   4 -10 -16   38.81    4.43
   6  10 -16   71.06    4.95
   6 -10  16   82.24    5.20
   6 -10 -16   88.24    7.81
  -6 -10  16   86.72    5.31
   6  10  16   81.72    4.97
  -6 -10  16   81.12    4.71
   8 -10  16    3.40    1.27
   8  10 -16    1.76    1.51
   8  10  16    5.26    1.42
  -8 -10  16    4.83    1.34
  -8 -10  16    3.39    1.95
  10 -10  16    5.94    1.61
  10  10 -16    4.96    1.97
  10  10  16    4.98    1.59
 -10 -10  16   10.94    1.77
  12 -10  16   -0.32    1.59
  12  10 -16   -1.24    1.86
  12 -10 -16   -2.10    1.58
  12  10  16    2.12    1.39
  14  10 -16    0.78    1.84
  14 -10 -16    5.09    2.18
   0 -12  16   40.35    2.71
   0 -12 -16   44.02    4.19
   0 -12 -16   47.96    2.87
   0 -12  16   42.75    3.12
   2 -12  16   18.39    1.96
  -2 -12 -16   13.24    1.51
   2 -12  16   14.36    1.33
  -2 -12 -16   11.89    2.23
  -2 -12  16   17.15    2.07
   2 -12 -16   16.06    1.62
   2 -12 -16   12.68    2.39
  -2 -12  16   17.54    1.47
   4 -12  16   42.97    3.28
   4 -12  16   41.86    3.32
   4 -12 -16   44.23    2.96
   4 -12 -16   35.59    4.64
  -4 -12  16   44.98    2.85
  -4 -12  16   43.97    3.33
   4  12  16   41.80    3.42
   6 -12  16   53.08    4.10
  -6 -12  16   59.31    3.62
   6 -12 -16   57.03    3.69
   6  12  16   53.76    3.79
  -6 -12  16   56.57    4.30
   8  12 -16    3.22    1.69
   8 -12  16    2.36    1.33
   8  12  16    1.99    1.17
  -8 -12  16    2.97    1.32
  -8 -12  16    3.08    1.81
  10  12 -16    3.39    1.82
  10 -12  16    5.21    1.69
  10  12  16    2.31    1.48
 -10 -12  16    9.07    1.73
  12 -12  16   -1.44    1.58
  12  12 -16   -0.42    1.78
  12  12  16    0.51    1.41
  14  12 -16   -0.52    1.79
   0 -14  16    5.08    1.31
   0 -14  16    4.22    0.89
   0 -14 -16    9.10    1.94
  -2 -14 -16    2.29    1.52
   2 -14  16    2.20    0.63
   2 -14  16    1.48    0.96
  -2 -14 -16    2.49    0.78
  -2 -14  16    2.85    1.14
   2 -14 -16    2.48    0.86
  -2 -14  16    2.85    0.72
   2 -14 -16    1.22    1.45
   4 -14  16   22.15    2.48
   4 -14  16   22.25    1.82
   4 -14 -16   25.00    2.17
  -4 -14  16   25.24    2.62
  -4 -14  16   25.39    2.04
  -4 -14  16   29.41    3.80
   6  14 -16    9.78    1.93
   6 -14  16   12.09    1.97
   6  14  16   10.00    1.69
  -6 -14  16   13.08    1.60
  -6 -14  16   18.03    2.55
   6 -14 -16   12.78    1.64
   8  14 -16    0.55    1.70
   8 -14  16    0.47    1.24
  -8 -14  16    0.61    1.23
   8  14  16    0.96    1.11
  -8 -14  16   -0.07    1.85
  10 -14  16    0.16    1.47
  10  14 -16    0.64    1.75
  10  14  16    0.72    1.33
 -10 -14  16   -0.48    1.52
  12 -14  16    0.20    1.75
  12  14 -16    2.48    1.86
  12  14  16    0.66    1.51
  14  14 -16   -0.81    2.25
   0 -16 -16   55.70    3.35
   0 -16  16   47.98    3.61
   0 -16  16   48.12    3.19
   2 -16  16   12.91    1.44
   2 -16  16   13.01    1.97
  -2 -16 -16   14.11    1.66
   2 -16 -16   14.50    1.69
  -2 -16  16   15.77    2.08
  -2 -16  16   14.56    1.58
   4 -16  16    0.38    0.52
   4 -16  16    0.13    1.00
  -4 -16  16    0.32    1.25
  -4 -16  16    1.06    1.26
   4 -16 -16   -0.27    0.77
  -4 -16  16    0.75    0.74
   6 -16  16    1.58    1.23
  -6 -16  16    2.15    1.79
  -6 -16  16    0.93    1.44
  -6 -16  16    1.25    0.98
   6 -16 -16    2.67    1.06
   8 -16  16   -2.10    1.17
   8  16 -16   -0.36    1.71
   8 -16 -16    0.49    0.99
  -8 -16  16    1.09    2.17
   8  16  16   -0.17    1.18
  -8 -16  16   -0.93    1.32
  10 -16  16   10.84    2.19
  10  16 -16    3.77    1.79
  10  16  16    7.00    1.83
 -10 -16  16   17.26    2.19
 -10 -16  16   19.83    3.01
  12  16 -16    2.19    1.77
   0 -18 -16   77.33    4.61
   0 -18  16   75.53    4.94
   0 -18  16   76.80    4.52
  -2 -18 -16   20.77    2.21
   2 -18  16   20.71    1.93
   2 -18  16   22.72    2.69
   2 -18 -16   20.47    2.08
  -2 -18  16   23.54    2.66
  -2 -18  16   24.66    2.05
   4 -18  16    6.98    1.21
   4 -18  16   10.48    1.96
  -4 -18  16   10.19    1.46
  -4 -18  16   10.91    1.92
   4 -18 -16   10.12    1.52
  -4 -18  16   12.39    2.14
   6 -18  16    9.62    1.98
  -6 -18  16   12.24    2.63
   6 -18 -16    8.07    1.44
  -6 -18  16    7.89    2.09
  -6 -18  16   11.48    1.68
   8 -18  16    3.79    1.72
   8  18 -16    0.30    1.76
  -8 -18  16   -2.57    2.47
   8  18  16    0.88    1.88
   8 -18 -16    3.92    1.24
  -8 -18  16    4.52    1.71
  10 -18  16    7.92    2.13
  10  18 -16    2.47    1.71
 -10 -18  16   16.31    2.47
 -10 -18  16   11.67    2.94
  10  18  16    7.58    1.80
  12  18 -16    3.00    1.74
   0 -20 -16   30.65    2.49
   0 -20  16   29.56    2.40
   0 -20  16   25.17    3.02
   2 -20  16   22.10    2.13
   2 -20  16   23.99    2.99
  -2 -20  16   24.73    2.22
   2 -20 -16   25.58    2.30
  -2 -20  16   24.56    2.93
   4 -20  16    7.57    1.91
   4 -20  16    8.22    1.26
  -4 -20  16    6.46    1.29
  -4 -20  16    8.66    2.29
  -4 -20  16    7.89    1.97
   4 -20 -16    8.18    1.48
   6 -20  16    5.45    1.77
  -6 -20  16    5.47    1.44
  -6 -20  16    2.66    2.06
   6 -20 -16    6.46    1.42
  -6 -20  16    8.51    2.54
   8 -20  16    6.25    1.88
   8 -20 -16    7.72    1.55
  -8 -20  16    7.38    3.18
  -8 -20  16    8.99    1.87
  10  20 -16    1.61    1.62
   0 -22 -16   69.29    4.43
   0 -22  16   68.19    4.36
   0 -22  16   69.91    5.09
   2 -22  16    1.19    0.89
   2 -22  16    0.65    1.43
   2 -22 -16    3.82    1.12
  -2 -22  16    1.45    1.64
  -2 -22  16    0.25    0.88
  -2 -22  16    1.82    2.30
   4 -22  16    1.92    1.68
   4 -22  16    3.76    0.97
   4 -22 -16    3.24    1.23
  -4 -22  16    1.68    2.16
  -4 -22  16    2.26    1.10
  -4 -22  16    1.97    1.82
   6 -22  16    2.22    1.45
  -6 -22  16    1.52    1.29
  -6 -22  16    0.80    2.44
  -6 -22  16   -0.70    1.92
   6 -22 -16   -0.02    1.10
   8 -22  16   -0.33    1.74
   8  22 -16   -0.44    1.42
   8 -22 -16    3.03    1.32
  -8 -22  16    4.05    1.69
  -8 -22  16    9.79    2.72
  10  22 -16    0.31    1.62
   0 -24  16    6.99    1.39
   0 -24 -16    7.75    1.45
   0 -24  16    8.83    2.28
   2 -24  16   17.34    2.67
   2 -24  16   19.95    2.22
  -2 -24  16   22.13    3.49
   2 -24 -16   22.51    2.39
  -2 -24  16   18.92    2.23
   4 -24  16   -2.90    1.47
   4 -24  16   -0.20    0.79
  -4 -24  16    0.88    1.12
  -4 -24  16   -0.01    1.93
  -4 -24  16   -3.18    2.19
   4 -24 -16   -0.84    0.98
   6 -24  16    3.75    1.80
  -6 -24  16    9.54    1.73
  -6 -24  16    8.60    2.87
   6 -24 -16    6.41    1.65
  -6 -24  16    8.48    2.66
   8  24 -16   -1.03    1.50
   8 -24 -16    2.87    1.35
  -8 -24  16    5.82    1.76
   0 -26 -16    1.67    1.15
   0 -26  16    1.76    2.03
   0 -26  16    0.83    1.02
   2 -26  16    1.89    1.70
   2 -26  16    0.51    0.92
  -2 -26  16    1.37    2.47
   2 -26 -16   -1.09    1.04
  -2 -26  16    0.48    1.05
   4 -26  16   18.91    2.15
   4 -26 -16   18.28    2.19
  -4 -26  16   17.38    2.22
  -4 -26  16   18.83    3.04
  -6 -26  16   18.05    2.37
   6 -26 -16   16.35    2.26
  -6 -26  16   18.13    3.08
   0 -28 -16   14.00    2.01
   0 -28  16   15.48    2.00
   2 -28  16    1.40    1.07
   2 -28 -16   -1.92    1.13
  -2 -28  16    1.45    1.12
   4 -28  16   31.77    2.71
   4 -28 -16   30.36    2.92
  -4 -28  16   28.89    2.80
  -1  -1 -17  121.39    7.12
  -1   1  17  111.93    6.70
   1  -1  17  114.05    6.79
  -1   1  17  105.18    6.96
   1  -1  17  115.84    6.17
   1  -1  17  109.69    7.04
   1  -1 -17  119.56    7.17
   1   1  17  112.78    6.12
   1   1  17  111.19    6.68
  -1  -1  17  124.97    6.89
  -1  -1  17  107.64    6.10
   1   1  17  114.56    7.07
  -1  -1  17  106.57    6.99
   3  -1  17   34.61    3.05
   3  -1  17   31.43    2.36
  -3   1  17   28.96    3.17
  -3   1  17   32.85    3.18
   3   1  17   32.50    2.94
  -3  -1  17   30.03    3.16
   3   1  17   34.14    2.40
   3  -1 -17   34.65    3.96
   5  -1  17   41.95    3.77
   5  -1  17   44.86    3.15
   5   1  17   42.09    3.71
   5  -1 -17   51.78    4.61
   5   1  17   44.51    3.11
   7  -1  17    1.12    0.95
   7   1  17    0.24    0.88
   7  -1 -17    1.27    2.12
   9  -1  17    6.58    1.50
   9   1  17    5.28    1.37
  11   1 -17    5.25    1.66
  11  -1  17    4.29    1.53
 -11  -1  17    7.35    1.80
  11  -1 -17   11.29    2.70
  11   1  17    3.66    1.46
  13   1 -17    1.70    1.69
  13  -1  17    1.50    1.47
  13   1  17    1.90    1.36
  13  -1 -17   -0.67    1.62
  15   1 -17    0.44    1.85
  15  -1 -17   -2.41    1.95
  -1   3  17    9.97    1.80
  -1  -3 -17   12.69    2.09
   1  -3  17   13.25    2.04
   1  -3  17   12.68    1.36
   1  -3  17   11.06    1.09
  -1   3  17   10.87    1.88
  -1  -3  17   13.68    1.50
  -1  -3  17   14.72    2.26
   1   3  17   12.36    1.25
   1   3  17    9.98    1.88
  -1  -3  17   13.36    1.23
   1  -3 -17   13.57    2.28
   3  -3  17    0.23    0.61
  -3   3  17    0.18    1.04
  -3   3  17   -0.44    1.09
   3  -3  17   -1.01    1.09
  -3  -3  17   -0.60    0.69
   3   3  17    0.73    0.59
   3  -3 -17   -1.55    1.36
   5  -3  17    3.09    1.00
   5  -3  17    2.69    1.41
   5  -3 -17    3.81    1.89
   5   3  17    1.87    0.82
   7  -3  17    1.57    0.97
   7   3  17   -0.09    0.78
   7  -3 -17    1.85    2.20
  -7  -3  17   -0.83    0.97
   9  -3  17    8.87    1.63
   9   3  17    9.57    1.63
  -9  -3  17   11.50    1.73
  11  -3  17    0.47    1.32
  11   3 -17   -1.82    1.61
 -11  -3  17   -0.32    1.40
  11   3  17    1.05    1.17
  13  -3  17    0.95    1.43
  13   3 -17    1.00    1.76
  13  -3 -17   -0.84    1.76
  13   3  17   -0.66    1.28
  15   3 -17    0.33    1.96
  -1   5  17   13.82    2.14
   1  -5  17   14.27    1.53
   1  -5  17   18.71    2.48
  -1  -5 -17   14.42    2.34
   1  -5  17   13.30    1.25
   1   5  17   14.12    2.20
  -1  -5  17   14.77    1.66
   1  -5 -17   18.94    2.66
  -1  -5  17   13.77    1.28
  -1  -5  17   14.20    2.19
  -3  -5 -17   30.87    3.34
  -3   5  17   23.81    2.94
   3  -5  17   26.86    2.93
   3  -5  17   28.36    2.29
  -3   5  17   23.35    2.84
   3  -5 -17   27.65    3.74
  -3  -5  17   25.81    2.17
  -3  -5  17   27.85    1.98
   3   5  17   26.97    2.06
   5  -5  17   10.24    2.11
   5  -5  17    9.37    1.44
   5   5  17    7.78    1.25
   5  -5 -17   11.98    2.40
  -5  -5  17    8.26    1.25
   7  -5  17    0.63    0.95
  -7  -5  17    0.91    0.91
   7  -5 -17    2.47    2.15
   7   5  17   -0.11    0.88
   9  -5  17    0.39    1.08
   9   5  17    0.91    1.17
  -9  -5  17   -0.49    1.16
  11   5 -17   -2.25    1.69
  11  -5  17   -0.28    1.23
 -11  -5  17    1.14    1.50
  11   5  17    0.99    1.32
  13   5 -17   -0.72    1.80
  13  -5  17    0.09    1.57
  13   5  17   -0.55    1.13
  15   5 -17    0.40    1.96
   1  -7  17   26.67    1.91
  -1   7  17   23.11    2.80
  -1  -7 -17   30.42    3.40
   1  -7  17   28.68    2.91
   1  -7  17   31.22    2.38
  -1  -7  17   27.30    2.23
   1  -7 -17   31.74    3.46
  -1  -7  17   28.43    1.99
  -3  -7 -17   33.16    3.64
   3  -7  17   32.42    2.55
  -3   7  17   27.23    2.99
  -3   7  17   38.36    4.96
   3  -7  17   29.28    3.18
   3  -7  17   31.90    2.06
   3   7  17   29.72    2.19
   3  -7 -17   30.11    3.82
  -3  -7  17   30.99    2.55
  -3  -7  17   30.40    2.14
   5  -7  17   40.74    3.95
   5  -7  17   43.24    3.20
  -5  -7  17   41.73    2.83
  -5  -7  17   39.58    3.13
   5  -7 -17   47.95    4.82
   5   7  17   42.95    2.99
   7  -7  17    4.85    1.29
   7   7  17    4.53    1.24
  -7  -7  17    6.79    1.25
   9   7 -17    4.40    2.12
   9  -7  17    2.53    1.24
   9   7  17    2.77    1.37
  -9  -7  17    6.43    1.53
  11  -7  17    0.79    1.34
  11   7 -17    2.17    1.89
 -11  -7  17    1.61    1.41
  11   7  17   -0.08    1.19
  13  -7  17    1.69    1.62
  13   7 -17    1.47    1.90
  13   7  17   -0.05    1.30
  15   7 -17    0.42    1.93
  -1  -9 -17   21.76    3.20
   1  -9  17   21.10    1.65
   1  -9  17   24.72    2.20
  -1   9  17   20.57    2.62
  -1  -9  17   25.58    2.17
   1  -9 -17   21.59    3.17
   1  -9 -17   20.92    1.75
  -1  -9  17   23.70    1.76
   3  -9  17   11.77    1.12
  -3   9  17    8.58    1.86
   3  -9  17   11.57    2.16
   3  -9  17   14.59    1.82
  -3  -9 -17    9.95    2.14
  -3  -9  17   13.22    1.66
   3  -9 -17   11.36    2.35
   3  -9 -17   11.55    1.38
  -3  -9  17   12.27    1.32
   5  -9  17  107.44    6.20
   5  -9  17   90.09    6.61
  -5  -9  17  105.71    6.10
  -5  -9  17  106.03    5.75
   5  -9 -17  104.31    7.50
   5   9  17  106.21    5.93
   7  -9  17    6.91    1.51
  -7  -9  17    6.51    2.30
   7   9  17    8.94    1.52
  -7  -9  17    7.98    1.35
   9   9 -17    3.19    1.66
   9  -9  17    2.30    1.27
  -9  -9  17    5.35    1.49
   9   9  17    3.19    1.33
  11   9 -17   -1.49    1.82
  11  -9  17    0.46    1.41
 -11  -9  17    3.51    1.57
  11   9  17    0.07    1.39
  13   9 -17    0.90    1.95
  13  -9  17   -0.67    1.68
  13   9  17   -0.21    1.30
   1 -11  17   20.26    1.64
   1 -11  17   21.91    2.16
  -1 -11 -17   20.02    1.69
  -1 -11 -17   16.91    2.70
  -1 -11  17   22.63    2.17
  -1 -11  17   22.36    1.71
   1 -11 -17   21.44    1.80
   1 -11 -17   17.16    2.69
   3 -11  17   19.92    1.56
   3 -11  17   20.48    2.20
  -3 -11 -17   17.56    2.78
  -3 -11  17   21.31    1.76
   3 -11 -17   20.49    1.80
   3 -11 -17   17.52    2.88
  -3 -11  17   21.83    2.23
   5 -11  17   38.83    3.28
  -5 -11  17   38.64    3.29
  -5 -11  17   39.64    2.77
   5  11  17   40.86    2.97
   5 -11 -17   38.00    2.84
   7 -11  17   34.44    3.24
   7  11  17   33.39    3.03
  -7 -11  17   33.84    3.42
  -7 -11  17   38.12    2.86
   9  11 -17   -0.96    1.63
   9 -11  17    4.47    1.52
  -9 -11  17    2.24    1.40
   9  11  17    2.34    1.41
  11 -11  17    4.38    1.73
  11  11 -17    3.53    1.98
 -11 -11  17    8.36    2.21
  11  11  17    3.80    1.54
  13  11 -17   -0.94    1.73
  -1 -13 -17    3.91    1.66
   1 -13  17    5.66    1.27
   1 -13  17    3.58    0.80
  -1 -13 -17    4.38    0.91
   1 -13 -17    6.51    1.11
  -1 -13  17    4.30    0.85
  -1 -13  17    6.00    1.34
   1 -13 -17    3.08    1.64
   3 -13  17    4.39    1.19
   3 -13  17    3.32    0.74
   3 -13 -17    4.36    1.06
  -3 -13  17    4.15    1.39
  -3 -13  17    4.00    0.85
   3 -13 -17    2.67    2.44
   5 -13  17   12.00    1.91
  -5 -13  17   15.05    2.14
  -5 -13  17   11.17    1.42
   5 -13 -17   11.71    1.53
   7 -13  17   17.38    2.49
   7  13 -17   31.89    4.09
   7  13  17   22.15    2.63
  -7 -13  17   26.94    3.03
  -7 -13  17   28.58    2.40
   9  13 -17   -0.06    1.61
   9 -13  17    3.22    1.55
   9  13  17    1.50    1.42
  -9 -13  17    2.06    1.52
  11 -13  17    0.16    1.61
  11  13 -17    3.36    1.86
  11  13  17    0.86    1.46
  13  13 -17    0.25    1.83
   1 -15  17    5.54    0.96
   1 -15  17    4.37    1.30
  -1 -15  17    5.81    1.49
  -1 -15  17    5.10    1.00
   3 -15  17   -0.17    0.89
   3 -15  17   -0.14    0.47
  -3 -15  17    0.27    0.58
   3 -15 -17   -0.78    0.69
  -3 -15  17   -0.08    1.11
   5 -15  17    2.79    1.35
  -5 -15  17    3.10    1.63
   5 -15 -17    1.95    0.97
  -5 -15  17    1.80    0.82
   7 -15  17    0.00    1.19
   7  15 -17   -1.46    1.55
   7 -15 -17    1.44    0.95
  -7 -15  17    3.01    1.90
   7  15  17    1.53    1.17
  -7 -15  17    0.60    1.09
   9  15 -17   -2.42    1.53
   9 -15  17   -0.73    1.41
   9  15  17   -2.55    1.32
  -9 -15  17    6.44    2.01
  -9 -15  17    0.83    1.51
  11  15 -17   -0.02    1.76
  11 -15  17   -1.95    1.59
  11  15  17   -1.24    1.50
  13  15 -17    0.39    1.88
  -1 -17 -17   30.29    2.37
   1 -17  17   25.24    2.71
   1 -17  17   26.92    2.15
  -1 -17  17   24.77    2.20
  -1 -17  17   31.48    2.75
   1 -17 -17   28.88    2.42
   3 -17  17    0.67    0.62
   3 -17  17    0.38    1.05
   3 -17 -17    0.96    0.85
  -3 -17  17    1.30    1.30
  -3 -17  17   -0.02    0.64
   5 -17  17    4.08    1.52
   5 -17 -17    6.81    1.29
  -5 -17  17    6.45    1.92
  -5 -17  17    6.15    1.26
   7  17 -17    8.95    1.84
   7 -17  17    6.78    1.90
   7 -17 -17   11.58    1.64
  -7 -17  17   11.63    1.78
  -7 -17  17    9.54    2.49
   9  17 -17    1.69    1.76
   9 -17  17    3.25    1.71
  -9 -17  17   10.12    1.92
  -9 -17  17    9.75    2.43
   9  17  17    3.99    1.68
  11  17 -17    3.56    1.75
   1 -19  17   19.08    2.63
   1 -19  17   16.40    1.85
  -1 -19 -17   16.51    2.00
  -1 -19  17   22.45    1.93
   1 -19 -17   18.44    2.06
  -1 -19  17   20.60    2.64
   3 -19  17    0.02    1.25
   3 -19  17    0.35    0.62
  -3 -19  17    0.31    0.75
   3 -19 -17   -0.20    0.84
   5 -19  17   24.36    3.06
  -5 -19  17   27.45    2.53
  -5 -19  17   32.28    3.69
   5 -19 -17   27.71    2.62
   7 -19  17    6.10    1.77
   7  19 -17    0.59    1.69
  -7 -19  17    2.57    2.54
   7 -19 -17    4.57    1.28
  -7 -19  17    3.51    1.49
   9 -19  17    3.79    1.82
   9  19 -17    0.66    1.67
  -9 -19  17   10.67    1.87
  -9 -19  17    7.12    2.93
  11  19 -17    3.41    1.81
  -1 -21 -17   15.12    1.89
   1 -21  17   15.25    2.54
   1 -21  17   18.84    1.95
   1 -21 -17   16.45    2.05
  -1 -21  17   18.06    1.98
  -1 -21  17   16.90    2.62
   3 -21  17   -1.70    1.37
   3 -21  17   -0.12    0.72
  -3 -21  17   -0.80    0.84
  -3 -21  17    1.21    1.86
   3 -21 -17    0.62    0.96
   5 -21  17   12.42    2.32
  -5 -21  17   15.70    2.82
  -5 -21  17   10.78    1.74
   5 -21 -17   10.57    1.75
   7  21 -17   -0.34    1.73
   7 -21  17    0.51    1.60
  -7 -21  17   -0.63    1.29
  -7 -21  17   -1.25    2.42
   7 -21 -17   -0.39    1.08
   9  21 -17   -0.91    1.65
  -9 -21  17    8.01    1.81
   1 -23  17    7.83    1.37
  -1 -23 -17    4.56    1.31
   1 -23  17    7.51    2.12
   1 -23 -17    7.74    1.50
  -1 -23  17    8.04    1.40
  -1 -23  17   11.90    2.45
   3 -23  17    1.63    1.58
   3 -23  17    2.47    0.98
  -3 -23  17    0.63    1.07
   3 -23 -17    0.55    1.03
  -3 -23  17    1.51    2.28
   5 -23  17   -1.81    1.64
  -5 -23  17   -0.65    1.10
   5 -23 -17    0.08    1.08
  -5 -23  17   -0.01    2.53
  -7 -23  17   -1.72    1.35
   7 -23 -17   -0.58    1.16
  -9 -23  17    2.56    1.60
   1 -25  17    0.91    0.95
  -1 -25 -17    0.12    1.18
   1 -25  17    1.80    1.86
  -1 -25  17    0.41    1.03
   1 -25 -17    0.66    1.21
  -1 -25  17    3.68    2.23
   3 -25  17    0.85    0.90
   3 -25  17    2.95    1.77
  -3 -25  17   -1.25    2.30
   3 -25 -17   -0.81    1.03
  -3 -25  17    0.81    1.05
   5 -25 -17    2.43    1.35
  -5 -25  17    1.51    1.30
   7 -25 -17    0.58    1.25
  -7 -25  17    3.67    1.51
   1 -27  17    9.75    1.58
   1 -27 -17    8.16    1.67
  -1 -27  17   10.71    1.70
   3 -27  17    6.93    1.40
   3 -27 -17    7.20    1.53
  -3 -27  17    7.19    1.54
  -5 -27  17   16.15    2.10
   5 -27 -17   14.52    2.09
   1 -29  17   12.67    1.86
  -1 -29  17   14.60    1.90
   1 -29 -17   11.76    1.87
   0   0  18  134.15    7.33
   0   0  18  143.15    8.10
  -2   0  18    7.20    1.64
   2   0  18    5.36    0.79
   2   0  18    6.76    1.08
   2   0  18    7.87    1.73
   4   0  18  105.46    6.00
   4   0  18  105.97    6.66
   6   0  18  113.19    6.56
   8   0  18   -0.69    0.91
 -10   0  18   26.64    2.79
  10   0  18   15.01    2.23
 -12   0  18   -1.67    1.71
  12   0  18    1.72    1.45
   0  -2  18  129.54    6.73
   0  -2  18  122.57    6.52
   0   2  18  115.81    6.97
   0   2  18  121.61    7.25
   0  -2 -18  126.55    7.74
   0  -2  18  127.01    7.36
   2  -2  18   -1.03    1.05
  -2   2  18   -0.14    1.01
  -2  -2 -18    0.22    1.05
   2  -2  18   -0.41    0.50
   2  -2  18    0.21    0.35
   2  -2 -18   -1.05    1.47
  -2  -2  18   -0.28    1.06
   2   2  18   -0.17    0.50
  -2  -2  18    1.55    0.71
   2   2  18    0.41    1.02
   4  -2  18   74.17    5.26
   4  -2  18   75.11    4.56
   4   2  18   74.49    4.53
   4  -2 -18   79.52    6.00
   4   2  18   71.31    5.16
   6  -2  18   24.75    2.38
   6   2  18   20.37    2.29
   6  -2 -18   30.17    4.44
   6   2  18   21.86    2.97
   8  -2  18    0.42    0.98
   8   2  18   -0.81    0.95
  -8  -2  18   -0.48    1.09
  10  -2  18    4.47    1.48
 -10  -2  18    2.07    1.51
  10   2  18    2.03    1.34
  12  -2  18    1.63    1.37
 -12   2  18    1.21    1.69
 -12  -2  18    0.58    2.25
  12   2  18    2.48    1.33
   0  -4 -18    0.53    1.26
   0  -4  18    2.04    1.27
   0  -4  18    2.31    0.84
   0  -4  18    0.75    0.45
  -2   4  18   -0.29    0.97
   2  -4  18   -0.91    1.05
   2  -4  18    0.13    0.59
   2  -4  18   -0.31    0.36
  -2  -4 -18    0.59    1.09
   2  -4 -18   -0.86    1.44
  -2  -4  18   -0.24    0.99
  -2  -4  18    0.10    0.48
   2   4  18   -0.35    0.50
  -2  -4  18   -0.63    0.69
  -4   4  18   -0.20    1.35
   4  -4  18    0.97    1.22
   4  -4  18    0.88    0.76
   4   4  18   -0.40    0.63
  -4  -4  18    0.07    0.57
   4  -4 -18    0.57    1.70
   6  -4  18    3.03    1.08
   6  -4 -18    6.44    2.28
  -6  -4  18    2.34    0.99
   6   4  18    2.62    0.94
   8  -4  18    0.03    0.98
  -8  -4  18    0.24    1.08
   8   4  18    0.34    0.98
  10  -4  18    0.19    1.16
 -10  -4  18    0.48    1.41
  10   4  18    0.71    1.17
  12  -4  18   -0.96    1.34
  12   4  18    0.35    1.23
   0  -6  18   63.64    3.81
   0  -6  18   58.64    4.43
   0  -6  18   59.14    3.49
   0  -6 -18   58.73    4.90
   2  -6  18   13.10    1.63
  -2   6  18    8.61    1.76
   2  -6  18   16.69    2.48
  -2  -6 -18   12.42    2.16
   2  -6  18   12.75    1.18
  -2  -6  18   13.50    1.34
  -2  -6  18   14.86    1.74
   2  -6 -18   13.36    2.43
   4  -6  18   16.90    2.70
  -4   6  18   16.07    2.68
   4  -6  18   21.36    2.12
  -4  -6  18   20.26    1.69
   4  -6 -18   18.72    3.01
   4   6  18   16.72    1.82
  -4  -6  18   17.17    2.00
   6  -6  18    9.02    1.55
   6   6  18    9.05    1.46
  -6  -6  18    9.07    1.31
   6  -6 -18    8.27    2.44
   8  -6  18    3.32    1.22
   8   6  18    4.37    1.33
  -8  -6  18    3.73    1.24
  10  -6  18    3.45    1.43
 -10  -6  18    8.98    1.80
  10   6  18    4.36    1.48
  12  -6  18    1.22    1.37
  12   6  18    1.07    1.29
   0  -8  18  303.78   15.12
   0  -8  18  262.83   14.18
   0  -8  18  286.87   14.52
   0  -8 -18  274.00   15.56
   2  -8  18    2.79    0.66
   2  -8  18    2.89    1.47
  -2  -8 -18    0.77    1.32
   2  -8  18    2.36    0.88
  -2  -8  18    2.57    0.98
  -2  -8  18    1.96    0.70
   2  -8 -18    0.93    1.42
   4  -8  18   35.84    2.79
  -4   8  18   27.06    3.41
   4  -8  18   28.54    3.34
   4   8  18   31.38    2.40
  -4  -8  18   32.92    2.30
  -4  -8  18   30.61    2.67
   4  -8 -18   31.31    4.35
   6  -8  18   31.33    2.79
  -6  -8  18   29.62    2.42
  -6  -8  18   25.08    4.05
   6   8  18   26.12    2.46
   8  -8  18    3.43    1.25
   8   8  18    1.59    1.20
  -8  -8  18    2.32    1.33
  10  -8  18    5.33    1.61
  10   8  18    4.57    1.53
 -10  -8  18   12.30    1.89
  12  -8  18   -0.45    1.44
  12   8  18    0.41    1.40
   0 -10  18   51.23    3.18
   0 -10 -18   49.24    4.68
   0 -10  18   57.98    3.65
   2 -10  18   19.83    2.16
  -2 -10 -18   16.68    2.72
   2 -10  18   20.45    1.63
  -2 -10  18   21.11    2.15
   2 -10 -18   20.03    2.93
  -2 -10  18   24.62    1.79
   4 -10  18   62.89    4.16
  -4 -10  18   60.29    3.63
  -4 -10  18   58.31    4.05
   4 -10 -18   55.18    5.70
   6 -10  18   39.06    3.31
   6  10  18   36.53    2.98
  -6 -10  18   40.11    2.82
  -6 -10  18   35.14    3.31
   8 -10  18   -0.76    1.13
  -8 -10  18   -2.57    1.01
   8  10  18    2.00    1.16
  10 -10  18    4.45    1.78
  10  10  18    4.84    1.72
  12 -10  18    1.77    1.70
  12  10  18    3.84    1.61
   0 -12 -18   51.00    4.84
   0 -12  18   48.36    3.16
   0 -12 -18   51.15    3.24
   0 -12  18   56.16    3.64
  -2 -12 -18    4.61    1.80
   2 -12  18    5.29    1.35
   2 -12  18    6.41    0.98
   2 -12 -18    5.53    1.84
   2 -12 -18    6.14    1.05
  -2 -12  18    4.88    1.44
  -2 -12  18    5.23    0.95
   4 -12  18    4.00    1.26
  -4 -12  18    4.16    1.47
   4 -12 -18    4.94    1.09
  -4 -12  18    4.79    1.02
   6 -12  18   30.14    3.12
  -6 -12  18   29.45    3.25
  -6 -12  18   34.64    2.57
   6  12  18   29.19    2.73
   8 -12  18    1.93    1.41
   8  12  18    2.22    1.27
  -8 -12  18    3.38    1.39
  10 -12  18    8.62    2.03
  10  12  18    9.78    2.02
 -10 -12  18   15.88    2.12
  12 -12  18    1.43    1.82
  12  12  18    1.78    1.48
   0 -14 -18   17.14    1.74
   0 -14  18    9.89    1.34
   0 -14  18   10.33    1.76
   2 -14  18    0.04    0.47
   2 -14  18    0.10    0.80
  -2 -14  18   -0.74    0.91
  -2 -14  18    0.37    0.54
   2 -14 -18   -0.27    0.71
   4 -14  18    3.52    1.28
  -4 -14  18    2.75    0.87
  -4 -14  18    2.98    1.39
   4 -14 -18    1.61    0.89
   6 -14  18    8.63    1.80
   6 -14 -18    9.55    1.52
  -6 -14  18    8.05    2.08
  -6 -14  18    9.05    1.42
   8 -14  18    1.03    1.39
  -8 -14  18    2.16    1.47
   8  14  18   -0.46    1.23
  -8 -14  18    3.17    2.03
  10 -14  18    2.31    1.68
  10  14  18    1.46    1.39
 -10 -14  18    0.61    1.58
   0 -16  18   19.88    2.46
   0 -16  18   18.09    1.75
   2 -16  18    0.74    0.57
   2 -16  18    1.50    1.14
   2 -16 -18    1.26    0.91
  -2 -16  18    0.84    0.68
  -2 -16  18    0.89    1.28
   4 -16  18    5.00    1.51
   4 -16  18    4.29    0.94
   4 -16 -18    5.12    1.24
  -4 -16  18    5.15    1.10
  -4 -16  18    7.86    1.80
   6 -16  18    2.54    1.39
  -6 -16  18    2.08    1.04
   6 -16 -18    1.85    1.00
  -6 -16  18    1.52    1.77
   8 -16  18    0.43    1.37
  -8 -16  18    0.23    2.15
  -8 -16  18    0.68    1.48
  10 -16  18   -0.07    1.62
  10  16  18    1.11    1.45
 -10 -16  18    1.17    1.67
   0 -18  18   13.42    1.62
   0 -18 -18   17.03    1.91
   0 -18  18   14.77    2.25
   2 -18  18    0.27    1.22
   2 -18  18   -0.13    0.56
  -2 -18  18   -0.69    0.68
  -2 -18  18   -0.75    1.22
   2 -18 -18   -0.96    0.84
   4 -18  18    5.55    1.05
   4 -18  18    7.66    1.78
   4 -18 -18    6.95    1.39
  -4 -18  18    5.96    1.23
  -4 -18  18    9.00    2.10
   6 -18  18   35.98    3.75
  -6 -18  18   42.89    3.21
   6 -18 -18   42.83    3.25
  -6 -18  18   39.04    4.14
   8 -18  18    2.34    1.58
  -8 -18  18   -1.28    1.45
  -8 -18  18   -4.93    2.47
 -10 -18  18   14.54    2.21
   0 -20  18   16.08    1.87
   0 -20  18   16.44    2.52
   0 -20 -18   16.07    1.94
   2 -20  18   -1.13    1.47
   2 -20  18    0.89    0.69
   2 -20 -18    1.01    1.04
  -2 -20  18    1.65    1.59
  -2 -20  18    0.44    0.77
   4 -20  18   14.26    2.53
   4 -20  18   12.67    1.63
   4 -20 -18   13.11    1.88
  -4 -20  18   13.49    1.77
  -4 -20  18   14.82    2.74
   6 -20  18   20.02    2.91
  -6 -20  18   30.71    3.71
   6 -20 -18   28.14    2.72
  -6 -20  18   24.42    2.58
   8 -20  18    1.14    1.52
  -8 -20  18   -4.89    2.61
  -8 -20  18   -1.02    1.31
 -10 -20  18    4.32    1.83
   0 -22  18   -0.48    1.66
   0 -22 -18    0.14    0.99
   0 -22  18    0.98    0.86
   2 -22  18    5.69    2.00
   2 -22  18    7.74    1.40
  -2 -22  18    8.02    2.23
  -2 -22  18    7.80    1.39
   2 -22 -18    7.76    1.53
   4 -22  18   18.81    2.05
   4 -22  18   16.97    2.92
   4 -22 -18   20.01    2.38
  -4 -22  18   20.51    2.28
  -4 -22  18   22.58    3.38
   6 -22  18    7.63    1.92
   6 -22 -18    5.84    1.57
  -6 -22  18    3.66    2.60
  -6 -22  18    5.44    1.50
  -8 -22  18    1.79    1.51
   0 -24  18   29.43    3.64
   0 -24 -18   27.46    2.77
   0 -24  18   30.93    2.72
   2 -24  18   14.65    2.75
   2 -24  18   20.54    2.20
   2 -24 -18   16.70    2.12
  -2 -24  18   16.32    2.03
  -2 -24  18   19.08    3.32
   4 -24  18    0.58    0.82
   4 -24  18   -2.01    1.69
   4 -24 -18   -0.71    1.13
  -4 -24  18   -0.71    1.07
  -4 -24  18   -0.48    2.32
   6 -24 -18   -1.16    1.14
  -6 -24  18    1.45    1.34
  -8 -24  18   -1.13    1.43
   0 -26 -18   18.65    2.35
   0 -26  18   23.88    2.39
   2 -26  18    0.50    0.91
  -2 -26  18   -1.34    1.07
   2 -26 -18    0.60    1.24
   4 -26  18    0.60    0.93
   4 -26 -18    0.08    1.19
  -4 -26  18   -0.90    1.08
   6 -26 -18    4.25    1.53
  -6 -26  18    4.07    1.55
   0 -28  18   43.29    3.30
   0 -28 -18   41.54    3.77
   2 -28  18   -0.06    0.95
   2 -28 -18   -0.56    1.18
  -2 -28  18   -0.12    1.01
  -1   1  19   56.05    4.31
   1  -1  19   56.34    4.35
   1  -1  19   53.42    3.33
  -1  -1 -19   58.93    4.63
   1  -1  19   60.46    3.62
  -1  -1  19   58.74    3.60
   1   1  19   58.22    3.56
  -1  -1  19   61.67    4.48
   1   1  19   58.76    4.38
   1  -1 -19   62.41    4.88
  -3   1  19   39.40    3.77
   3  -1  19   39.52    3.69
   3  -1  19   43.65    2.97
   3   1  19   43.54    2.95
  -3  -1  19   41.96    3.87
   3   1  19   39.10    3.61
   5  -1  19  156.70    8.58
   5   1  19  146.75    9.29
   5   1  19  162.12    8.60
   7  -1  19   52.98    3.84
   7   1  19   52.21    3.88
   9  -1  19    8.06    1.67
   9   1  19    7.14    1.64
  -9  -1  19   10.99    1.88
 -11   1  19   -1.25    1.63
  11  -1  19    0.14    1.27
 -11  -1  19   -0.24    1.53
  11   1  19   -0.69    1.23
  13  -1  19   -1.01    1.36
  13   1  19   -0.60    1.35
  -1  -3 -19    7.57    1.81
   1  -3  19   10.00    1.94
  -1   3  19    6.76    1.64
   1  -3  19    7.90    0.98
   1  -3  19    9.85    1.36
   1  -3 -19    8.44    2.22
  -1  -3  19   10.93    1.42
  -1  -3  19    9.57    2.00
  -1  -3  19    9.08    1.12
   1   3  19    7.44    1.71
   1   3  19    7.88    1.46
   3  -3  19   27.24    2.34
  -3   3  19   26.13    3.18
   3  -3  19   26.15    3.12
   3  -3 -19   30.42    4.04
  -3  -3  19   29.21    2.12
   3   3  19   26.26    2.92
   3   3  19   31.85    2.33
   5  -3  19   39.08    3.04
   5  -3 -19   42.78    5.14
   5   3  19   38.18    3.02
  -5  -3  19   38.41    2.74
   7  -3  19    7.10    1.48
   7   3  19    5.14    1.38
  -7  -3  19    7.63    1.42
   9  -3  19   -0.02    1.09
   9   3  19    0.90    1.17
  -9  -3  19    0.37    1.28
  11  -3  19    0.69    1.27
  11   3  19    1.25    1.30
 -11  -3  19    0.14    1.53
  13  -3  19    0.70    1.52
  13   3  19    0.38    1.33
   1  -5  19   16.50    2.70
   1  -5  19   18.66    1.95
  -1  -5 -19   21.89    3.20
   1  -5  19   19.29    1.55
  -1   5  19   17.11    2.48
  -1  -5  19   20.60    1.61
  -1  -5  19   20.13    2.77
   1  -5 -19   19.31    2.92
  -1  -5  19   20.68    1.99
  -3   5  19    2.48    1.53
   3  -5  19    4.08    1.74
   3  -5  19    4.56    1.13
  -3  -5  19    4.00    0.82
   3   5  19    5.05    1.03
   3  -5 -19    3.46    1.87
  -3  -5  19    1.93    1.10
   5  -5  19    0.20    0.78
   5  -5 -19   -1.49    1.84
  -5  -5  19    0.60    0.74
   5   5  19   -0.84    0.78
   7  -5  19    4.60    1.26
   7   5  19    3.64    1.11
  -7  -5  19    3.57    1.14
   9  -5  19    2.20    1.32
   9   5  19    2.48    1.10
  -9  -5  19    4.30    1.41
  11  -5  19    2.30    1.50
 -11  -5  19    6.68    1.80
  11   5  19    1.50    1.28
  13  -5  19    0.94    1.51
  13   5  19   -0.17    1.36
   1  -7  19  103.62    5.97
   1  -7  19  115.33    6.42
  -1  -7 -19  116.02    7.65
   1  -7  19  109.20    7.05
  -1  -7  19  109.15    6.05
  -1  -7  19  119.56    6.36
   1  -7 -19  114.26    7.62
   3  -7  19   -0.35    1.24
  -3   7  19   -0.56    1.19
   3  -7  19   -0.08    0.75
  -3  -7  19    0.22    0.59
  -3  -7  19   -1.15    1.02
   3  -7 -19   -0.04    1.59
   5  -7  19   16.11    2.09
   5   7  19   16.58    1.83
  -5  -7  19   16.53    1.78
   7  -7  19   -0.19    0.93
  -7  -7  19    0.74    1.02
   7   7  19   -0.34    0.92
   9  -7  19   23.76    2.81
   9   7  19   14.61    2.20
  -9  -7  19   22.94    2.60
  11  -7  19    3.16    1.60
  11   7  19    4.88    1.66
 -11  -7  19    9.17    1.84
  -1  -9 -19  150.47    9.51
   1  -9  19  138.62    7.80
   1  -9  19  153.88    8.27
  -1  -9  19  159.31    8.22
  -1  -9  19  144.90    7.86
   1  -9 -19  150.63    9.49
   3  -9  19   14.11    1.91
  -3   9  19   10.32    2.22
   3  -9  19   14.59    1.38
  -3  -9 -19   12.14    2.53
   3  -9 -19   13.73    2.81
  -3  -9  19   17.13    1.99
  -3  -9  19   14.58    1.55
   5  -9  19   26.81    2.69
  -5  -9  19   24.56    2.19
  -5  -9  19   27.66    2.72
   5   9  19   25.12    2.33
   7  -9  19    0.84    1.15
   7   9  19    0.26    1.06
  -7  -9  19    3.70    1.20
   9  -9  19    8.83    2.00
   9   9  19   11.12    1.90
  11  -9  19    3.36    1.84
  11   9  19    4.72    1.73
 -11  -9  19    9.72    1.86
  -1 -11 -19   74.19    7.02
   1 -11  19   75.36    4.53
   1 -11  19   82.49    4.99
   1 -11 -19   80.57    7.02
  -1 -11  19   80.23    4.58
  -1 -11  19   85.83    5.03
   3 -11  19    2.32    0.62
   3 -11  19    2.64    1.11
  -3 -11  19    2.02    0.77
  -3 -11  19    1.10    1.18
   5 -11  19   38.79    3.38
  -5 -11  19   38.38    2.85
  -5 -11  19   44.67    3.46
   7 -11  19    6.76    1.64
  -7 -11  19    8.44    1.49
   7  11  19    5.98    1.51
   9 -11  19    9.56    1.98
  -9 -11  19   14.46    2.01
   9  11  19    8.17    1.89
  11 -11  19    5.31    1.95
 -11 -11  19    9.70    1.85
  11  11  19    2.17    1.63
   1 -13  19   41.84    2.93
   1 -13  19   46.15    3.47
  -1 -13 -19   48.94    3.06
  -1 -13  19   46.67    3.47
   1 -13 -19   46.25    3.10
  -1 -13  19   46.87    3.02
   3 -13  19    3.21    1.20
   3 -13  19    2.27    0.67
  -3 -13  19    2.74    1.37
   3 -13 -19    1.73    0.85
  -3 -13  19    2.60    0.80
   5 -13  19    2.77    1.24
  -5 -13  19    1.35    0.85
  -5 -13  19    1.89    1.56
   7 -13  19    5.76    1.63
   7  13  19    6.64    1.55
  -7 -13  19    5.40    1.91
  -7 -13  19    7.40    1.44
   9 -13  19   -0.57    1.43
  -9 -13  19    0.69    1.56
   9  13  19    0.24    1.46
  11 -13  19    6.44    1.99
  11  13  19    5.46    1.86
 -11 -13  19   12.11    2.11
   1 -15  19    0.50    1.06
  -1 -15 -19    1.55    0.82
   1 -15  19    0.92    0.63
   1 -15 -19    3.05    0.96
  -1 -15  19    0.92    1.17
  -1 -15  19    0.47    0.65
   3 -15  19   12.40    1.48
   3 -15  19   15.05    2.18
  -3 -15  19   18.91    2.40
   3 -15 -19   15.13    1.79
  -3 -15  19   16.26    1.68
   5 -15  19    8.77    1.84
  -5 -15  19    8.08    1.97
   5 -15 -19    7.48    1.38
  -5 -15  19    6.54    1.22
   7 -15  19   -0.30    1.35
  -7 -15  19    1.27    1.12
  -7 -15  19    3.47    1.90
   9 -15  19   -0.69    1.43
  -9 -15  19   -2.35    1.50
   9  15  19    0.67    1.33
  -1 -17 -19    1.09    0.90
   1 -17  19    2.77    0.82
   1 -17  19    3.66    1.42
  -1 -17  19    2.23    1.31
  -1 -17  19    2.19    0.86
   1 -17 -19    3.66    1.08
   3 -17  19   15.03    2.27
   3 -17  19   13.41    1.54
  -3 -17  19   14.11    2.15
  -3 -17  19   11.74    1.58
   3 -17 -19   12.28    1.72
   5 -17  19   29.64    3.39
  -5 -17  19   36.13    2.84
   5 -17 -19   36.66    2.97
  -5 -17  19   36.77    3.71
   7 -17  19    8.33    2.09
  -7 -17  19   10.02    1.75
  -7 -17  19    8.21    2.57
   9 -17  19    0.67    1.67
  -9 -17  19   -1.52    1.48
  -1 -19 -19    5.19    1.29
   1 -19  19    4.68    1.75
   1 -19  19    6.51    1.19
  -1 -19  19    5.90    1.17
   1 -19 -19    6.30    1.39
  -1 -19  19    4.83    1.77
   3 -19  19   13.92    2.50
   3 -19  19   15.45    1.76
  -3 -19  19   14.29    1.82
   3 -19 -19   15.17    1.93
  -3 -19  19   15.77    2.54
   5 -19  19   29.51    3.48
  -5 -19  19   23.73    2.58
  -5 -19  19   30.92    3.54
   5 -19 -19   29.20    2.73
   7 -19  19   29.35    3.45
  -7 -19  19   27.53    3.78
  -7 -19  19   30.68    2.90
  -9 -19  19    1.21    1.50
   1 -21  19    0.76    0.76
   1 -21  19   -0.37    1.58
  -1 -21 -19    1.68    1.15
  -1 -21  19    0.34    0.81
  -1 -21  19    0.49    1.71
   1 -21 -19    1.88    1.10
   3 -21  19   -0.10    1.70
   3 -21  19    1.93    1.00
  -3 -21  19    0.25    1.93
  -3 -21  19    1.45    0.99
   3 -21 -19    2.13    1.29
   5 -21  19   32.00    3.70
  -5 -21  19   37.50    4.05
   5 -21 -19   38.09    3.20
  -5 -21  19   34.67    2.99
   7 -21  19    8.15    2.70
  -7 -21  19    9.52    3.08
  -7 -21  19    7.52    1.73
  -9 -21  19    1.83    1.44
   1 -23  19   -0.69    1.78
   1 -23  19    0.67    0.86
  -1 -23  19    3.06    1.97
   1 -23 -19   -1.53    1.09
  -1 -23  19    0.27    0.85
   3 -23  19    2.22    2.00
   3 -23  19    4.16    1.20
  -3 -23  19    6.55    1.48
   3 -23 -19    7.67    1.59
  -3 -23  19    3.40    2.49
   5 -23  19   12.80    3.27
  -5 -23  19   12.26    3.97
  -5 -23  19   11.36    1.83
   5 -23 -19   11.35    1.90
  -7 -23  19    4.54    1.62
   1 -25  19    1.76    1.02
   1 -25 -19    0.87    1.24
  -1 -25  19    0.70    1.07
   3 -25  19   10.39    1.59
  -3 -25  19   11.33    1.75
   3 -25 -19    9.73    1.83
   5 -25 -19   -1.42    1.09
  -5 -25  19   -3.06    0.99
   1 -27  19   17.11    2.02
  -1 -27  19   15.19    2.06
   1 -27 -19   16.21    2.17
   3 -27  19   -0.16    0.94
  -3 -27  19   -0.13    1.11
   3 -27 -19   -1.15    1.19
   0   0  20  135.05    7.23
   0   0  20  129.82    7.98
   2   0  20   -0.08    0.64
  -2   0  20   -0.26    1.16
   2   0  20    0.09    1.18
   4   0  20  123.50    7.03
   6   0  20  168.32    9.33
   8   0  20   -1.10    1.08
 -10   0  20    0.50    1.68
  10   0  20    0.85    1.34
  12   0  20    0.75    1.35
 -12   0  20    2.97    1.62
   0  -2  20   37.21    3.52
   0   2  20   36.46    3.43
   0  -2  20   37.79    2.68
   0  -2  20   32.83    2.34
   0  -2 -20   38.64    3.98
   2  -2  20    1.86    0.58
  -2  -2 -20    2.44    1.34
   2  -2  20    1.03    0.76
  -2   2  20    1.80    1.37
   2  -2  20    2.43    1.45
  -2  -2  20    1.70    0.70
  -2  -2  20    1.25    1.46
   2   2  20    2.98    1.47
   2   2  20    2.71    0.81
   2  -2 -20    2.36    1.70
   4  -2  20   85.03    5.16
   4   2  20   91.64    5.19
   4   2  20   76.40    5.83
   6  -2  20   91.66    5.50
  -6  -2  20   88.48    5.15
   6   2  20   80.26    5.39
   8  -2  20    5.58    1.42
  -8  -2  20    7.20    1.53
   8   2  20    5.74    1.53
  10  -2  20    3.19    1.43
  10   2  20    2.39    1.48
 -10  -2  20    4.80    1.71
  12  -2  20    0.56    1.43
 -12   2  20   -0.52    1.80
  12   2  20    1.22    1.42
 -12  -2  20   -0.33    1.54
   0  -4  20    1.44    0.83
   0  -4 -20    0.36    1.42
   0   4  20    1.62    1.23
   0  -4  20    0.91    0.53
   0  -4  20    0.28    1.36
  -2   4  20    8.89    2.10
   2  -4  20   11.21    1.18
   2  -4  20    9.93    1.46
  -2  -4 -20   10.59    2.08
   2  -4  20   11.15    2.27
  -2  -4  20   11.54    1.31
   2   4  20    8.89    2.00
  -2  -4  20   12.19    1.54
  -2  -4  20    7.73    2.02
   2  -4 -20   11.26    2.49
   2   4  20    9.57    1.80
   4  -4  20   30.46    2.65
   4  -4 -20   33.59    4.38
  -4  -4  20   30.41    2.30
   4   4  20   29.67    2.51
   4   4  20   25.76    3.27
   6  -4  20   11.57    1.75
   6   4  20    7.70    1.52
  -6  -4  20    8.81    1.40
   8  -4  20    5.34    1.44
  -8  -4  20    8.82    1.52
   8   4  20    6.88    1.59
  10  -4  20    1.23    1.32
  10   4  20    1.12    1.31
 -10  -4  20    2.39    1.65
  12  -4  20   -0.59    1.41
 -12  -4  20   -0.61    1.71
  12   4  20   -0.27    1.33
   0  -6  20   87.69    5.01
   0  -6  20   90.80    6.17
   0  -6 -20   90.11    6.62
   0  -6  20   92.85    5.36
  -2   6  20   19.54    2.78
   2  -6  20   23.88    2.31
   2  -6  20   24.80    3.68
   2  -6  20   23.05    1.75
  -2  -6 -20   27.64    3.61
  -2  -6  20   23.89    2.32
  -2  -6  20   25.16    1.92
   2  -6 -20   24.65    3.27
   4  -6  20    0.64    0.82
  -4  -6  20    0.16    0.64
   4  -6 -20   -0.23    1.73
   4   6  20   -0.19    0.88
   6  -6  20   -0.84    0.89
  -6  -6  20   -0.04    0.84
   6   6  20    0.11    0.95
   8  -6  20    6.24    1.55
  -8  -6  20    8.82    1.56
   8   6  20    4.83    1.34
  10  -6  20    6.90    1.72
  10   6  20    7.68    1.72
 -10  -6  20   14.16    2.12
  12  -6  20    1.31    1.51
  12   6  20    0.92    1.42
 -12  -6  20    4.23    2.38
   0  -8  20  155.18    8.10
   0  -8  20  136.86    7.68
   0  -8 -20  146.86    9.39
  -2   8  20   56.51    4.86
   2  -8  20   67.42    5.28
  -2  -8 -20   76.57    5.84
   2  -8  20   72.35    4.53
   2  -8  20   69.81    3.96
   2  -8 -20   67.25    5.72
  -2  -8  20   70.53    4.08
  -2  -8  20   72.12    4.39
   4  -8  20    9.26    1.63
  -4  -8  20    8.24    1.27
  -4  -8  20   12.13    1.74
   6  -8  20    2.03    1.17
  -6  -8  20    2.90    1.07
   6   8  20    3.07    1.04
   8  -8  20    2.86    1.47
   8   8  20    4.72    1.41
  -8  -8  20    4.28    1.40
  10  -8  20   33.00    3.73
  10   8  20   33.20    3.51
 -10  -8  20   42.83    3.36
  12  -8  20    0.19    1.75
  12   8  20    2.42    1.45
   0 -10  20  332.48   16.58
   0 -10  20  309.40   16.18
   2 -10  20   15.41    1.43
   2 -10  20   17.29    2.13
  -2 -10  20   14.85    1.59
  -2 -10  20   16.66    2.13
   4 -10  20    4.53    1.34
  -4 -10  20    4.16    1.49
  -4 -10  20    5.87    1.07
   6 -10  20   23.33    2.71
   6  10  20   19.99    2.29
  -6 -10  20   20.63    2.11
   8 -10  20    4.17    1.56
   8  10  20    5.52    1.57
  -8 -10  20    8.73    1.64
  10 -10  20   19.10    2.69
  10  10  20   17.65    2.54
   0 -12  20  116.06    6.50
   0 -12  20  122.12    6.92
   2 -12  20   44.82    2.93
   2 -12  20   44.96    3.50
  -2 -12  20   47.85    3.02
  -2 -12  20   43.92    3.43
   4 -12  20    3.89    1.42
  -4 -12  20    4.34    1.49
  -4 -12  20    4.61    1.09
   6 -12  20   10.27    1.96
  -6 -12  20    8.82    2.08
  -6 -12  20    9.95    1.49
   8 -12  20    3.63    1.69
   8  12  20    3.12    1.44
  -8 -12  20    2.46    1.43
  10 -12  20    5.26    1.98
  10  12  20    6.11    1.96
 -10 -12  20   13.37    2.10
   0 -14  20   22.56    1.96
   0 -14  20   24.03    2.59
   2 -14  20   30.91    2.33
   2 -14  20   32.74    3.05
  -2 -14  20   31.19    2.91
  -2 -14  20   33.94    2.44
   4 -14  20    2.69    1.38
  -4 -14  20    3.92    0.99
  -4 -14  20    3.73    1.56
   6 -14  20    0.89    1.30
  -6 -14  20    0.13    1.68
  -6 -14  20    0.71    0.89
   8 -14  20    0.24    1.44
  -8 -14  20   -2.23    1.22
  10 -14  20    2.88    1.78
 -10 -14  20    4.68    1.83
  10  14  20    3.37    1.61
   0 -16 -20    2.28    0.85
   0 -16  20    1.60    1.36
   0 -16  20    1.55    0.72
   2 -16  20    4.48    1.52
   2 -16  20    3.63    0.87
  -2 -16  20    5.13    1.07
  -2 -16  20    3.12    1.47
   2 -16 -20    4.99    1.19
   4 -16  20   48.36    4.08
  -4 -16  20   49.89    3.41
  -4 -16  20   54.65    4.11
   4 -16 -20   47.45    3.55
   6 -16  20   23.27    3.05
  -6 -16  20   22.11    2.90
  -6 -16  20   26.06    2.45
   8 -16  20   -0.21    1.39
  -8 -16  20   -3.36    1.36
  -8 -16  20    1.19    3.75
 -10 -16  20   -0.15    1.60
   0 -18 -20   18.43    2.09
   0 -18  20   15.37    2.38
   0 -18  20   16.36    1.77
   2 -18  20    0.56    0.70
   2 -18  20    2.85    1.44
   2 -18 -20    0.46    0.97
  -2 -18  20    0.85    0.84
  -2 -18  20   -0.33    1.40
   4 -18  20   65.90    5.22
   4 -18 -20   80.17    4.87
  -4 -18  20   75.64    5.44
  -4 -18  20   74.68    4.63
   6 -18  20   32.70    3.70
  -6 -18  20   40.50    4.21
  -6 -18  20   39.50    3.15
   8 -18  20    1.06    1.62
  -8 -18  20   -0.13    1.38
 -10 -18  20   -2.27    1.49
   0 -20 -20    7.82    1.51
   0 -20  20    6.65    1.27
   0 -20  20    6.93    2.17
   2 -20  20    6.07    1.19
   2 -20  20    5.02    2.01
   2 -20 -20    8.75    1.59
  -2 -20  20    3.47    1.82
  -2 -20  20    6.04    1.22
   4 -20  20   31.97    3.68
  -4 -20  20   22.64    2.44
  -4 -20  20   27.99    3.50
   4 -20 -20   25.19    2.69
   6 -20  20   35.88    3.93
  -6 -20  20   36.54    4.17
  -6 -20  20   40.68    3.20
  -8 -20  20    5.21    1.53
 -10 -20  20    2.30    1.56
   0 -22 -20   -0.39    1.10
   0 -22  20    0.11    0.84
   0 -22  20    0.28    1.93
   2 -22  20    9.16    1.54
   2 -22  20    4.08    2.33
  -2 -22  20    8.32    1.50
  -2 -22  20   10.96    2.78
   2 -22 -20    9.48    1.69
   4 -22  20    3.36    2.02
  -4 -22  20    4.38    1.34
   4 -22 -20    6.91    1.54
  -4 -22  20    4.54    2.52
  -6 -22  20   30.78    2.91
  -8 -22  20    2.99    1.53
   0 -24 -20   33.84    3.12
   0 -24  20   37.47    4.44
   0 -24  20   34.32    2.93
   2 -24  20    0.61    0.88
   2 -24 -20   -0.58    1.20
  -2 -24  20   -0.29    0.93
   4 -24 -20   14.68    1.99
  -4 -24  20   14.89    2.00
  -6 -24  20    8.21    1.67
   0 -26  20    4.38    1.24
   2 -26  20   20.64    2.26
   2 -26 -20   18.95    2.25
  -2 -26  20   18.86    2.30
  -4 -26  20    0.21    1.11
   4 -26 -20    2.58    1.32
   1  -1  21   19.19    1.91
   1  -1  21   18.36    1.52
  -1  -1  21   16.58    1.58
   1   1  21   18.40    1.79
   1   1  21   17.32    4.16
   3  -1  21   57.13    3.92
   3   1  21   60.65    3.91
   5  -1  21  136.05    7.73
   5  -1 -21  139.02    9.72
   5   1  21  129.72    7.67
   7  -1  21   43.98    3.58
   7   1  21   38.09    3.48
   9  -1  21    0.48    1.20
   9   1  21   -0.84    1.11
  -9  -1  21    0.84    1.51
  11  -1  21    1.41    1.40
 -11   1  21   -2.54    1.66
 -11  -1  21    2.91    1.67
  11   1  21   -0.93    1.27
   1  -3  21   -0.63    0.73
   1  -3  21   -0.10    0.43
  -1  -3 -21    0.17    1.22
   1  -3 -21    0.30    1.40
   1   3  21    0.37    1.15
  -1  -3  21    0.51    0.53
  -1  -3  21    0.64    0.80
   3  -3  21   32.06    2.63
   3  -3 -21   27.37    3.68
   3   3  21   29.00    2.48
  -3  -3  21   27.18    2.20
   5  -3  21   58.03    4.07
   5   3  21   52.28    3.96
  -5  -3  21   60.40    3.74
   7  -3  21   35.67    3.19
   7   3  21   29.92    3.08
  -7  -3  21   31.46    2.84
   9  -3  21   -0.50    1.19
  -9  -3  21   -0.32    1.29
   9   3  21    0.60    1.23
  11  -3  21   -0.16    1.40
  11   3  21    0.66    1.36
 -11  -3  21   -0.53    1.54
   1  -5  21   25.73    2.38
  -1  -5 -21   24.77    3.59
   1  -5  21   23.61    1.86
  -1  -5  21   26.29    2.35
  -1  -5  21   24.04    1.91
   1  -5 -21   23.68    3.26
   3  -5  21   19.60    2.28
  -3  -5  21   23.13    1.88
   3  -5 -21   21.86    3.37
   5  -5  21    6.94    1.55
  -5  -5  21    8.81    1.28
   5   5  21    8.78    1.61
   7  -5  21    2.12    1.18
  -7  -5  21    2.71    1.10
   7   5  21    2.16    1.18
   9  -5  21    9.57    1.95
   9   5  21    9.62    1.85
  -9  -5  21   14.08    1.97
  11  -5  21    1.23    1.50
  11   5  21    1.26    1.44
 -11  -5  21    2.04    1.70
  -1  -7 -21   95.26    9.04
   1  -7  21   87.83    5.03
   1  -7  21   88.32    5.48
   1  -7 -21   99.73    9.46
  -1  -7  21   95.02    5.45
  -1  -7  21   87.37    5.10
   3  -7  21   13.28    1.87
  -3  -7  21   13.33    1.69
  -3  -7  21   10.11    1.35
   5  -7  21    1.76    1.10
  -5  -7  21    1.66    0.93
   5   7  21    0.05    1.02
   7  -7  21   -0.25    1.11
   7   7  21    0.53    1.20
  -7  -7  21    2.87    1.15
   9  -7  21   10.99    2.08
  -9  -7  21   16.63    2.18
   9   7  21    8.92    1.91
  11  -7  21   10.25    2.16
  11   7  21    8.82    1.95
   1  -9  21  132.76    7.48
   1  -9  21  126.56    6.98
  -1  -9  21  130.73    7.40
  -1  -9  21  131.57    7.04
   3  -9  21    5.55    1.44
  -3  -9  21    4.27    0.99
  -3  -9  21    4.32    1.33
   5  -9  21    8.60    1.72
  -5  -9  21    7.18    1.26
   7  -9  21   -0.61    1.14
  -7  -9  21    0.21    1.00
   7   9  21    0.16    1.00
   9  -9  21   38.22    3.99
   9   9  21   41.81    3.72
  -9  -9  21   52.34    3.67
  11  -9  21    6.86    2.01
  11   9  21    9.83    1.97
   1 -11  21  147.29    8.27
   1 -11  21  158.55    8.80
  -1 -11  21  163.04    8.74
  -1 -11  21  157.56    8.34
   3 -11  21    2.63    1.20
  -3 -11  21    3.22    1.45
  -3 -11  21    2.57    0.89
   5 -11  21    4.72    1.48
  -5 -11  21    3.94    1.12
  -5 -11  21    7.14    1.74
   7 -11  21   -0.58    1.19
  -7 -11  21   -1.19    0.98
   7  11  21    0.67    1.14
  -9 -11  21   32.80    3.11
   9  11  21   27.93    3.28
  11 -11  21   10.04    3.32
 -11 -11  21   16.35    2.24
  11  11  21    7.42    2.20
   1 -13  21   49.32    3.38
   1 -13  21   57.06    4.01
  -1 -13  21   57.19    3.50
  -1 -13  21   53.13    3.93
   3 -13  21   15.36    1.60
   3 -13  21   22.62    2.64
  -3 -13  21   21.05    2.52
  -3 -13  21   20.70    1.87
   5 -13  21    6.21    1.70
  -5 -13  21    5.11    1.86
  -5 -13  21    5.57    1.15
   7 -13  21    2.35    1.55
  -7 -13  21    3.33    1.28
   9 -13  21   10.71    2.33
   9  13  21   10.09    2.05
  -9 -13  21   15.48    2.19
 -11 -13  21    3.61    1.68
   1 -15  21    5.60    1.69
   1 -15  21    5.99    1.08
  -1 -15  21    6.03    1.57
  -1 -15  21    4.45    1.08
   3 -15  21   19.40    2.61
   3 -15  21   12.44    1.56
  -3 -15  21   15.97    2.41
  -3 -15  21   18.90    1.84
   5 -15  21   28.92    3.38
  -5 -15  21   34.17    2.63
  -5 -15  21   29.88    3.45
   7 -15  21    5.72    1.84
  -7 -15  21    6.16    1.48
  -7 -15  21    8.47    3.06
   9 -15  21   -0.22    1.51
  -9 -15  21    0.07    1.53
 -11 -15  21    2.40    1.72
   1 -17  21    7.41    1.23
   1 -17  21    9.40    2.04
  -1 -17  21    6.96    1.90
  -1 -17  21    7.14    1.23
   3 -17  21   33.04    3.48
   3 -17  21   33.82    2.57
  -3 -17  21   31.89    3.37
  -3 -17  21   37.30    2.76
   5 -17  21   90.65    6.39
  -5 -17  21   99.05    5.73
  -5 -17  21  100.11    6.57
   7 -17  21    4.28    1.82
  -7 -17  21    5.69    2.37
  -7 -17  21    8.51    1.69
  -9 -17  21    0.55    1.54
   1 -19  21    5.77    1.18
   1 -19  21    5.76    1.93
  -1 -19  21    5.41    1.89
   1 -19 -21    5.45    1.39
  -1 -19  21    5.38    1.13
   3 -19  21   30.82    3.58
   3 -19  21   30.86    2.58
   3 -19 -21   36.55    3.03
  -3 -19  21   30.81    3.57
  -3 -19  21   36.66    2.76
   5 -19  21   69.04    5.43
  -5 -19  21   74.35    4.69
  -5 -19  21   71.20    5.46
   7 -19  21    8.86    2.21
  -7 -19  21   12.44    1.93
  -7 -19  21   11.56    3.01
  -9 -19  21   -1.57    1.36
   1 -21  21    0.83    0.85
   1 -21  21   -1.73    1.69
   1 -21 -21   -0.80    1.00
  -1 -21  21    0.01    1.75
  -1 -21  21   -0.41    0.76
   3 -21  21   36.68    4.17
   3 -21  21   31.85    2.82
  -3 -21  21   38.41    2.93
   3 -21 -21   35.76    3.16
  -3 -21  21   32.57    4.06
   5 -21  21   10.94    2.41
  -5 -21  21   15.47    2.92
  -5 -21  21   12.13    1.86
  -7 -21  21   31.60    2.97
   1 -23  21   16.50    3.31
   1 -23  21   14.84    1.92
  -1 -23  21   15.15    1.93
   1 -23 -21   15.17    2.06
  -1 -23  21   19.50    3.20
   3 -23  21    1.75    1.02
  -3 -23  21    1.30    1.14
   3 -23 -21    4.32    1.39
  -5 -23  21   17.72    2.12
  -7 -23  21   11.08    1.90
   1 -25  21   23.65    2.46
   1 -25 -21   25.75    2.74
  -1 -25  21   23.99    2.51
   3 -25  21   -0.13    0.95
   3 -25 -21    4.12    1.43
  -3 -25  21    2.86    1.16
  -5 -25  21    6.46    1.44
   0   0  22   33.72    2.33
   2   0  22    6.79    1.29
   4   0  22  112.05    6.63
   6   0  22   64.78    4.59
   8   0  22    4.09    1.43
  -8   0  22    7.61    1.68
  10   0  22    9.20    1.92
 -10   0  22   19.34    2.48
 -12   0  22   -2.90    1.66
  12   0  22    1.17    1.64
   0  -2  22    4.60    1.13
   0  -2  22    2.56    0.71
   0  -2 -22    3.20    1.53
   2  -2  22    4.96    1.16
   2   2  22    5.62    1.45
  -2  -2  22    3.49    0.88
   4  -2  22   63.45    4.25
   4   2  22   62.14    4.21
  -4  -2  22   58.87    3.85
   6  -2  22   77.69    5.15
   6   2  22   72.26    5.06
  -6  -2  22   79.51    4.79
   8  -2  22   -0.07    1.19
  -8  -2  22   -0.87    1.22
   8   2  22   -0.22    1.17
  10  -2  22   -0.99    1.33
 -10   2  22   -5.33    1.64
  10   2  22    0.67    1.38
 -10  -2  22    1.47    1.59
  12  -2  22    0.24    2.12
 -12   2  22   -1.78    1.68
 -12  -2  22   -2.25    1.68
  12   2  22   -0.41    1.70
   0  -4 -22    0.98    1.54
   0  -4  22    3.90    0.85
   0  -4  22    3.89    1.11
   2  -4  22   18.14    1.99
   2  -4  22   16.29    2.04
  -2  -4  22   17.48    1.64
   4  -4  22   33.01    2.91
  -4  -4  22   30.41    2.41
   4   4  22   32.10    2.78
   6  -4  22   10.43    1.83
   6   4  22    8.77    1.79
  -6  -4  22   11.07    1.53
   8  -4  22    2.73    1.41
   8   4  22    2.95    1.41
  -8  -4  22    3.57    1.32
  10  -4  22   -1.97    1.20
  10   4  22    1.52    1.39
 -10  -4  22   -1.06    1.62
 -12   4  22   -0.99    1.88
 -12  -4  22    1.03    1.72
   0  -6  22   42.85    3.18
   0  -6  22   39.25    2.71
   2  -6  22   40.45    2.59
   2  -6  22   37.12    3.16
  -2  -6  22   40.31    3.01
  -2  -6  22   41.42    2.78
   4  -6  22    3.77    1.33
  -4  -6  22    3.86    0.98
   6  -6  22   -0.78    1.02
  -6  -6  22   -0.29    0.89
   6   6  22    0.49    1.07
   8  -6  22    4.10    1.53
   8   6  22    2.78    1.47
  -8  -6  22    4.91    1.48
  10  -6  22    6.96    1.95
  10   6  22    8.32    1.99
 -10  -6  22   14.18    2.19
 -12  -6  22    7.14    1.85
   0  -8  22  159.70    8.52
   0  -8  22  145.31    8.05
   2  -8  22   19.37    2.38
   2  -8  22   19.49    1.63
  -2  -8  22   19.63    1.83
  -2  -8  22   18.40    2.27
   4  -8  22    0.45    1.03
  -4  -8  22   -0.06    0.77
   6  -8  22    5.43    1.61
  -6  -8  22    2.01    1.11
   6   8  22    6.39    1.48
   8  -8  22    8.63    2.00
   8   8  22    8.67    1.80
  -8  -8  22   13.83    1.92
  10  -8  22   17.00    2.60
  10   8  22   18.41    2.61
 -12  -8  22    1.26    1.92
   0 -10  22  140.37    7.77
   0 -10  22  131.52    7.30
   2 -10  22   31.37    3.02
   2 -10  22   31.90    2.25
  -2 -10  22   30.24    2.88
  -2 -10  22   32.72    2.43
   4 -10  22    6.38    1.61
  -4 -10  22    7.01    1.23
  -4 -10  22    7.28    1.63
   6 -10  22    2.23    1.32
  -6 -10  22    1.42    1.02
   8 -10  22    7.26    1.93
  -8 -10  22    5.63    1.57
   8  10  22    5.53    1.68
  10 -10  22   31.91    3.86
  10  10  22   33.42    3.58
   0 -12  22   98.92    6.13
   0 -12  22   99.65    5.63
   2 -12  22   21.83    2.63
   2 -12  22   20.46    1.82
  -2 -12  22   24.07    1.98
  -2 -12  22   21.24    2.42
   4 -12  22    2.84    1.38
  -4 -12  22    1.99    1.00
  -4 -12  22    1.56    1.34
   6 -12  22   -0.21    1.27
  -6 -12  22    0.76    0.99
   8 -12  22   11.90    2.38
  -8 -12  22   12.46    1.94
  10 -12  22    9.43    2.27
  10  12  22   10.25    1.90
   0 -14  22   11.42    2.00
   0 -14  22    8.45    1.32
   2 -14  22   14.57    2.22
   2 -14  22   13.02    1.58
  -2 -14  22   15.06    2.33
  -2 -14  22   13.81    1.64
   4 -14  22    6.95    1.80
  -4 -14  22    7.45    1.88
  -4 -14  22    7.40    1.30
   6 -14  22    1.48    1.46
  -6 -14  22    2.02    1.06
  -6 -14  22    3.81    2.22
   8 -14  22    7.53    2.14
  -8 -14  22   11.27    1.92
 -10 -14  22    0.69    1.61
   0 -16  22    3.26    1.63
   0 -16  22    2.69    0.90
   2 -16  22    1.11    1.41
   2 -16  22    0.81    0.64
  -2 -16  22    0.11    1.45
  -2 -16  22    0.77    0.78
   4 -16  22   36.09    3.84
  -4 -16  22   46.61    3.94
  -4 -16  22   44.92    3.18
   6 -16  22   43.96    4.35
  -6 -16  22   57.71    3.81
  -6 -16  22   52.14    4.54
   8 -16  22   -2.24    1.47
  -8 -16  22   -3.05    1.32
 -10 -16  22    0.50    1.52
   0 -18  22   27.08    2.32
   0 -18  22   28.69    3.19
   2 -18  22    2.72    1.71
   2 -18  22    1.42    0.83
  -2 -18  22   -0.22    1.54
  -2 -18  22    1.55    0.91
   4 -18  22   59.97    5.19
  -4 -18  22   72.29    4.38
  -4 -18  22   65.09    5.16
   6 -18  22   53.53    4.72
  -6 -18  22   62.35    4.11
  -6 -18  22   59.33    5.12
  -8 -18  22   -0.47    1.45
 -10 -18  22    0.30    1.55
   0 -20  22   12.10    2.53
   0 -20  22   13.06    1.79
   2 -20  22    6.88    1.31
   2 -20  22    8.61    2.27
  -2 -20  22    6.44    2.22
  -2 -20  22    6.56    1.35
   4 -20  22   42.84    4.27
  -4 -20  22   48.16    3.42
  -4 -20  22   43.72    4.53
  -6 -20  22   26.60    2.69
  -8 -20  22    1.84    1.37
   0 -22  22    1.82    0.97
   0 -22  22    4.14    2.14
   2 -22  22    6.66    3.18
   2 -22  22    9.10    1.59
  -2 -22  22    9.71    1.63
  -2 -22  22    7.88    3.13
  -4 -22  22   23.73    2.48
  -6 -22  22   10.42    1.73
   0 -24  22   13.49    1.90
   2 -24  22   11.91    1.74
  -2 -24  22   15.37    1.93
  -4 -24  22   -0.73    1.04
   1  -1  23    7.95    1.71
   1  -1  23    7.96    1.05
   1   1  23    6.81    0.99
  -1  -1  23    6.84    1.13
   3  -1  23   26.23    2.56
   3   1  23   26.85    2.52
  -3  -1  23   21.85    2.12
   5  -1  23   68.81    4.80
  -5  -1  23   72.42    4.50
   5   1  23   71.73    4.85
   7  -1  23   17.78    2.48
  -7  -1  23   25.83    2.59
   7   1  23   23.81    2.89
  -9   1  23   10.64    2.05
   9  -1  23    8.91    2.03
   9   1  23    8.75    1.86
  -9  -1  23   14.06    2.15
  11  -1  23    1.90    1.49
 -11   1  23   -1.76    1.72
 -11  -1  23   -1.09    1.71
  11   1  23    1.53    1.51
   1  -3  23   -0.18    0.50
   1  -3  23   -1.04    0.77
  -1  -3  23    0.26    0.52
   3  -3  23   25.99    2.55
  -3  -3  23   21.58    2.04
   5  -3  23   27.95    2.90
   5   3  23   29.27    2.83
  -5  -3  23   25.24    2.42
   7  -3  23    0.38    1.11
  -7  -3  23    1.25    1.08
   7   3  23    2.14    1.33
   9  -3  23    0.73    1.26
   9   3  23   -0.08    1.39
  -9  -3  23   -1.06    1.38
  11  -3  23    0.29    1.41
 -11   3  23   -0.99    1.88
 -11  -3  23   -1.84    1.73
  11   3  23    0.90    1.46
   1  -5  23   17.43    1.64
   1  -5  23   20.64    2.40
  -1  -5  23   19.93    2.21
  -1  -5  23   17.17    1.72
   3  -5  23   19.77    2.40
  -3  -5  23   17.39    1.82
   5  -5  23    1.12    1.12
  -5  -5  23    0.37    0.86
   5   5  23    0.19    0.97
   7  -5  23    2.70    1.45
   7   5  23    1.09    1.33
  -7  -5  23    3.35    1.18
   9  -5  23   -0.53    1.40
  -9  -5  23   -1.03    1.43
   9   5  23    0.16    1.39
  11  -5  23    2.34    1.62
 -11  -5  23    4.27    1.85
  11   5  23    0.93    1.57
 -13   5  23   -1.72    2.49
   1  -7  23   50.99    3.78
   1  -7  23   50.32    3.16
  -1  -7  23   49.54    3.24
  -1  -7  23   49.92    3.66
   3  -7  23    2.44    1.22
  -3  -7  23    0.02    0.75
   5  -7  23   -0.28    1.01
  -5  -7  23    0.17    0.83
   7  -7  23    0.65    1.21
  -7  -7  23   -0.09    1.08
   7   7  23    0.63    1.25
   9  -7  23   14.83    2.47
   9   7  23   15.72    2.38
 -11  -7  23    7.57    1.86
   1  -9  23   74.61    4.30
   1  -9  23   75.09    4.89
  -1  -9  23   75.16    4.80
  -1  -9  23   68.29    4.30
   3  -9  23    0.01    1.02
  -3  -9  23   -0.93    1.17
  -3  -9  23    0.06    0.71
   5  -9  23    4.83    1.56
  -5  -9  23    4.64    1.14
   7  -9  23    0.58    1.33
  -7  -9  23    0.86    1.08
   9  -9  23   15.99    2.64
  -9  -9  23   24.40    2.66
   9   9  23   17.29    2.49
 -11  -9  23   12.57    2.17
   1 -11  23   39.43    2.65
   1 -11  23   36.58    3.31
  -1 -11  23   34.58    3.21
  -1 -11  23   39.82    2.72
   3 -11  23    6.81    1.70
  -3 -11  23    3.54    1.53
  -3 -11  23    4.11    1.04
   5 -11  23   10.84    2.13
  -5 -11  23   11.22    1.56
   7 -11  23    0.28    1.36
  -7 -11  23    2.70    1.22
   9 -11  23   16.66    2.68
  -9 -11  23   21.22    2.49
   9  11  23   20.74    3.48
 -11 -11  23   12.24    2.13
   1 -13  23   19.77    2.64
   1 -13  23   19.07    1.78
  -1 -13  23   17.95    1.79
  -1 -13  23   19.29    2.55
   3 -13  23   -0.49    1.15
  -3 -13  23   -0.80    0.62
  -3 -13  23   -0.46    1.30
   5 -13  23    2.38    1.47
  -5 -13  23    1.62    0.96
  -5 -13  23    2.49    2.24
   7 -13  23   -2.01    1.35
  -7 -13  23    0.80    1.12
   9 -13  23    5.05    1.89
  -9 -13  23    8.00    1.95
 -11 -13  23    6.08    1.80
   1 -15  23   -0.32    0.57
   1 -15  23    1.55    1.38
  -1 -15  23    1.11    1.30
  -1 -15  23   -1.00    0.60
   3 -15  23    5.11    1.80
  -3 -15  23    6.85    1.25
  -3 -15  23    7.75    1.87
   5 -15  23   15.88    2.56
  -5 -15  23   12.81    2.38
  -5 -15  23   14.76    1.90
   7 -15  23    4.59    1.94
  -7 -15  23    9.06    1.69
  -9 -15  23   -1.10    1.55
   1 -17  23   11.27    2.42
   1 -17  23    8.30    1.32
  -1 -17  23    9.46    1.44
  -1 -17  23   11.84    2.36
   3 -17  23    6.12    2.17
  -3 -17  23    8.19    1.39
  -3 -17  23    3.57    1.89
   5 -17  23   46.72    4.35
  -5 -17  23   54.64    3.68
  -5 -17  23   46.67    4.44
   7 -17  23   21.31    4.34
  -7 -17  23   26.34    2.70
  -9 -17  23   -0.01    1.50
   1 -19  23   16.18    2.63
   1 -19  23   13.07    1.78
  -1 -19  23   13.73    1.74
  -1 -19  23   11.10    2.56
   3 -19  23   19.41    3.14
  -3 -19  23   19.50    2.23
  -3 -19  23   22.36    3.15
   5 -19  23   36.69    4.29
  -5 -19  23   43.61    4.11
  -5 -19  23   38.73    3.18
  -7 -19  23   16.44    2.11
   1 -21  23   -1.76    1.90
   1 -21  23    0.20    0.88
  -1 -21  23    0.65    1.00
  -1 -21  23    0.52    1.87
  -3 -21  23   16.00    1.94
  -5 -21  23   39.99    3.17
  -7 -21  23   -0.65    1.19
   1 -23  23    1.38    1.07
  -1 -23  23    1.49    0.97
  -3 -23  23   18.49    2.17
  -5 -23  23    2.42    1.22
   1 -25  23   18.77    2.17
  -1 -25  23   16.37    2.13
   0   0  24   22.92    1.91
  -2   0  24    2.18    0.83
   4   0  24   28.60    2.92
   6   0  24   54.25    4.34
  -6   0  24   61.97    4.09
   8   0  24   11.56    2.11
  -8   0  24   11.23    1.94
  10   0  24    5.29    1.74
 -10   0  24    6.96    1.98
 -12   0  24    2.86    1.85
   0  -2  24   32.95    2.35
   2  -2  24    0.96    0.95
  -2  -2  24   -0.35    0.62
   4  -2  24   31.39    2.95
   4   2  24   28.44    2.74
  -4  -2  24   25.44    2.37
   6  -2  24    4.08    1.54
   6   2  24    5.54    1.57
  -6  -2  24    5.98    1.39
   8  -2  24    1.20    1.20
  -8  -2  24    0.25    1.14
   8   2  24    0.07    1.18
 -10   2  24   15.33    2.49
  10  -2  24   10.12    2.15
 -10  -2  24   14.35    2.27
  10   2  24    8.03    2.04
 -12   2  24    1.93    1.72
 -12  -2  24    0.66    1.80
   0  -4  24   -0.09    0.91
   0  -4  24    1.13    0.67
   2  -4  24    4.54    1.41
  -2  -4  24    5.10    1.05
   4  -4  24    2.56    1.22
  -4  -4  24    2.01    0.92
   6  -4  24    1.15    1.31
  -6  -4  24    2.06    1.09
   6   4  24    1.63    1.30
   8  -4  24    0.49    1.26
  -8  -4  24   -0.10    1.20
   8   4  24    0.10    1.30
  10  -4  24   -0.29    1.41
 -10  -4  24   -0.86    1.64
  10   4  24    3.08    1.62
 -12   4  24   -1.51    1.81
 -12  -4  24    2.17    1.64
   0  -6  24   37.16    2.60
   0  -6  24   37.47    3.06
   2  -6  24    1.12    1.12
  -2  -6  24    2.88    0.92
   4  -6  24   -0.08    1.07
  -4  -6  24   -0.16    0.79
   6  -6  24    1.37    1.30
  -6  -6  24    2.50    1.13
   6   6  24    1.76    1.22
   8  -6  24    0.38    1.30
  -8  -6  24   -0.59    1.30
   8   6  24    2.42    1.52
  10  -6  24    3.94    1.70
  10   6  24    3.58    1.66
 -10  -6  24    7.89    1.86
 -12   6  24   -0.76    1.86
 -12  -6  24   -1.09    1.63
   0  -8  24   44.41    3.48
   0  -8  24   43.13    2.91
   2  -8  24    6.40    1.61
  -2  -8  24    7.03    1.82
  -2  -8  24    7.91    1.21
   4  -8  24    5.58    1.64
  -4  -8  24    7.38    1.32
   6  -8  24    1.18    1.37
  -6  -8  24    2.18    1.11
   8  -8  24   -1.00    1.36
  -8  -8  24    3.34    1.38
   8   8  24    1.62    1.44
  10  -8  24    9.05    2.46
 -10  -8  24   17.27    2.30
  10   8  24   11.18    2.72
 -12  -8  24    1.87    1.66
   0 -10  24   25.49    2.07
   0 -10  24   25.83    2.75
   2 -10  24   10.01    1.38
   2 -10  24   14.25    2.16
  -2 -10  24   11.69    1.52
  -2 -10  24   11.77    1.92
   4 -10  24    2.85    1.40
  -4 -10  24    2.00    0.95
   6 -10  24   10.07    2.14
  -6 -10  24    9.31    1.58
   8 -10  24    7.01    2.05
  -8 -10  24    9.14    1.76
 -10 -10  24   11.31    2.08
   0 -12  24   25.46    2.94
   0 -12  24   18.28    1.82
   2 -12  24    2.12    0.74
   2 -12  24    1.67    1.31
  -2 -12  24   -1.21    1.34
  -2 -12  24    3.34    0.93
   4 -12  24    0.95    1.41
  -4 -12  24    0.52    2.46
  -4 -12  24    0.16    0.83
   6 -12  24    2.88    1.55
  -6 -12  24    2.96    1.20
   8 -12  24    2.14    1.57
  -8 -12  24    2.25    1.39
 -10 -12  24   11.94    2.17
   0 -14  24    5.28    1.86
   0 -14  24    5.41    1.10
   2 -14  24    0.49    1.40
   2 -14  24    0.02    0.58
  -2 -14  24   -0.10    0.70
  -2 -14  24   -0.73    1.37
   4 -14  24   -0.13    1.26
  -4 -14  24    1.46    1.42
  -4 -14  24    0.72    0.83
   6 -14  24    4.92    1.93
  -6 -14  24    5.68    1.42
  -8 -14  24    0.91    1.37
 -10 -14  24   -0.16    1.61
   0 -16  24   18.83    2.74
   0 -16  24   20.75    2.03
   2 -16  24    0.15    0.69
   2 -16  24    2.29    1.58
  -2 -16  24    0.18    0.83
  -2 -16  24   -1.40    1.51
   4 -16  24    7.75    2.11
  -4 -16  24    3.71    1.83
  -4 -16  24    7.09    1.50
   6 -16  24   10.08    2.20
  -6 -16  24   14.09    1.98
  -8 -16  24    8.34    1.80
   0 -18  24   29.94    3.82
   0 -18  24   39.59    2.85
   2 -18  24   -0.76    1.81
   2 -18  24    1.11    0.85
  -2 -18  24   -0.86    1.57
  -2 -18  24    1.16    0.94
   4 -18  24   14.00    2.85
  -4 -18  24   15.78    1.96
  -4 -18  24   16.35    2.70
  -6 -18  24   41.10    3.33
  -8 -18  24   -1.92    1.29
   0 -20  24   24.46    3.23
   0 -20  24   20.38    2.25
   2 -20  24    2.64    2.15
   2 -20  24    0.34    0.85
  -2 -20  24    2.41    2.79
  -2 -20  24    0.61    0.99
  -4 -20  24   38.27    3.04
  -6 -20  24   16.12    2.03
   0 -22  24    8.85    1.52
   2 -22  24    1.28    1.07
  -2 -22  24    2.09    0.99
  -4 -22  24   13.01    1.80
   0 -24  24   -1.20    0.93
  -1   1  25   35.23    2.63
   1  -1  25   36.64    2.52
   1   1  25   36.96    3.11
  -1  -1  25   35.36    2.58
   3  -1  25    1.62    1.09
  -3  -1  25    2.17    0.96
   5  -1  25   17.33    2.54
  -5  -1  25   24.54    2.36
   5   1  25   23.99    2.75
   7  -1  25    1.09    1.21
  -7   1  25   -0.17    1.20
   7   1  25    0.57    1.23
  -7  -1  25   -0.84    1.12
   9  -1  25    7.52    1.92
  -9   1  25   17.69    2.37
  -9  -1  25   12.33    2.10
   9   1  25    9.06    2.08
 -11   1  25   14.45    2.26
 -11  -1  25   13.25    2.26
   1  -3  25    7.84    1.16
  -1  -3  25    6.19    1.10
   3  -3  25    1.94    1.22
  -3  -3  25    2.09    0.86
   5  -3  25    0.46    1.15
  -5  -3  25    0.75    0.87
   5   3  25   -0.43    0.95
   7  -3  25    2.05    1.55
  -7  -3  25    5.16    1.39
   7   3  25    6.72    1.68
  -9   3  25   14.98    2.42
   9  -3  25    9.63    2.14
  -9  -3  25   18.41    2.38
   9   3  25   11.81    2.36
 -11   3  25   -2.67    1.72
 -11  -3  25   -0.68    1.76
   1  -5  25    3.83    0.89
   1  -5  25    4.00    1.41
  -1  -5  25    2.54    0.88
   3  -5  25    2.29    1.28
  -3  -5  25    4.00    1.07
   5  -5  25    0.16    1.16
  -5  -5  25   -0.27    0.91
   7  -5  25    3.59    1.53
  -7  -5  25    4.46    1.45
   7   5  25    5.17    1.52
   9  -5  25    0.39    1.43
  -9  -5  25   -0.54    1.52
   9   5  25   -0.07    1.45
 -11   5  25   -1.20    1.85
 -11  -5  25   -0.50    1.59
   1  -7  25    7.13    1.66
   1  -7  25    6.39    1.07
  -1  -7  25    5.84    1.12
   3  -7  25    0.37    1.16
  -3  -7  25    0.55    0.78
   5  -7  25    8.95    2.03
  -5  -7  25    9.49    1.54
   7  -7  25    2.20    1.55
  -7  -7  25    6.09    1.47
   9  -7  25    1.70    1.56
  -9  -7  25    3.37    1.55
   9   7  25    3.91    1.64
 -11  -7  25    3.24    1.77
   1  -9  25    4.03    0.89
   1  -9  25    5.22    1.56
  -1  -9  25    4.88    1.49
  -1  -9  25    4.87    1.03
   3  -9  25    0.54    1.15
  -3  -9  25    0.23    0.75
   5  -9  25   15.94    2.55
  -5  -9  25   23.04    2.23
   7  -9  25    5.72    1.94
  -7  -9  25    7.99    1.61
   9  -9  25    4.04    1.94
  -9  -9  25    7.99    1.80
 -11  -9  25    6.46    1.90
   1 -11  25   10.00    1.39
   1 -11  25   12.53    2.17
  -1 -11  25   10.16    1.43
  -1 -11  25   12.27    2.19
   3 -11  25    3.75    1.52
  -3 -11  25    2.93    1.04
   5 -11  25   10.06    2.18
  -5 -11  25   10.88    1.60
   7 -11  25    1.74    1.51
  -7 -11  25    1.34    1.26
  -9 -11  25    5.93    1.75
 -11 -11  25    6.11    1.81
   1 -13  25    4.42    1.79
   1 -13  25    5.42    1.05
  -1 -13  25    5.87    1.68
  -1 -13  25    3.13    0.97
   3 -13  25   15.12    2.56
  -3 -13  25   14.63    2.21
  -3 -13  25   12.67    1.71
   5 -13  25    0.51    1.52
  -5 -13  25    1.30    1.04
   7 -13  25    0.68    1.43
  -7 -13  25    1.06    1.31
  -9 -13  25    5.21    1.64
   1 -15  25    3.12    1.72
   1 -15  25    3.02    0.92
  -1 -15  25    0.39    1.69
  -1 -15  25    2.47    0.88
   3 -15  25    2.30    1.66
  -3 -15  25    2.53    1.62
  -3 -15  25    3.05    1.06
   5 -15  25    0.33    1.38
  -5 -15  25   -0.40    0.97
  -7 -15  25    5.59    1.48
  -9 -15  25   -2.96    1.50
   1 -17  25   36.89    3.78
   1 -17  25   33.31    2.68
  -1 -17  25   32.36    3.62
  -1 -17  25   33.01    2.68
   3 -17  25    5.33    1.80
  -3 -17  25    0.06    1.56
  -3 -17  25    2.36    1.04
  -5 -17  25    7.40    1.48
  -7 -17  25    8.67    1.67
   1 -19  25   32.71    2.75
   1 -19  25   33.34    4.55
  -1 -19  25   31.91    2.73
  -1 -19  25   37.40    4.25
  -3 -19  25    0.17    0.96
  -5 -19  25   39.88    3.19
  -7 -19  25    1.61    1.26
   1 -21  25   16.63    2.02
  -1 -21  25   19.13    2.17
  -3 -21  25    4.82    1.33
  -5 -21  25   13.11    1.86
   1 -23  25   -0.73    1.04
  -1 -23  25    2.69    1.14
   0   0  26  112.85    6.25
  -2   0  26   15.41    1.76
  -4   0  26    8.00    1.41
   4   0  26    6.65    1.59
   6   0  26   -1.16    1.17
  -6   0  26   -0.56    1.04
   8   0  26    1.08    1.39
  -8   0  26    0.87    1.41
 -10   0  26   44.87    3.78
   0  -2  26   45.34    2.97
   0   2  26   42.24    2.97
  -2   2  26    9.49    1.43
  -2  -2  26   12.09    1.49
   4  -2  26    0.25    1.04
  -4  -2  26    0.55    0.85
  -6   2  26   12.83    1.82
   6  -2  26    9.96    2.02
   6   2  26   10.85    1.98
  -6  -2  26   11.62    1.73
   8  -2  26    8.42    2.19
  -8   2  26    5.76    1.74
   8   2  26    6.47    1.76
  -8  -2  26    6.88    1.75
 -10   2  26   12.01    2.26
 -10  -2  26   13.85    2.35
   0  -4  26    2.79    0.89
   2  -4  26    8.05    1.71
  -2  -4  26    6.49    1.27
   4  -4  26   -0.04    1.11
  -4  -4  26    0.59    0.88
   6  -4  26   -1.44    1.21
  -6  -4  26   -1.13    0.96
   8  -4  26    4.13    1.74
  -8  -4  26    5.23    1.65
   8   4  26    7.18    1.77
 -10   4  26    2.57    1.84
 -10  -4  26    0.35    1.69
   0  -6  26    0.35    0.59
   2  -6  26    1.52    1.17
  -2  -6  26    2.43    0.91
   4  -6  26    0.70    1.24
  -4  -6  26    1.46    0.98
   6  -6  26    8.38    2.05
  -6  -6  26   10.37    1.73
   8  -6  26    2.66    1.73
  -8  -6  26    4.70    1.59
   8   6  26    4.21    2.23
 -10   6  26   -3.48    1.66
 -10  -6  26   -2.14    1.44
   0  -8  26    2.09    0.78
   0  -8  26    2.77    1.35
   2  -8  26    2.36    1.33
  -2  -8  26    1.42    0.77
   4  -8  26    4.81    1.66
  -4  -8  26    3.05    1.05
   6  -8  26   43.09    4.11
  -6  -8  26   41.68    3.26
   8  -8  26    0.06    1.47
  -8  -8  26    2.78    1.38
 -10  -8  26    6.24    1.72
   0 -10  26   16.62    1.74
   0 -10  26   20.30    2.59
   2 -10  26    0.20    1.24
  -2 -10  26    0.74    0.73
   4 -10  26   18.57    2.79
  -4 -10  26   21.07    2.12
   6 -10  26   18.27    2.88
  -6 -10  26   22.35    2.38
  -8 -10  26    1.25    1.40
 -10 -10  26    9.52    1.98
   0 -12  26   31.52    2.44
   0 -12  26   29.36    3.44
   2 -12  26   -0.17    1.34
  -2 -12  26   -1.04    1.45
  -2 -12  26    3.40    1.00
   4 -12  26   37.24    3.79
  -4 -12  26   35.12    2.85
   6 -12  26    7.18    2.03
  -6 -12  26    8.86    1.56
  -8 -12  26   -0.29    1.20
 -10 -12  26    5.19    1.71
   0 -14  26   -0.70    1.48
   0 -14  26    0.31    0.68
   2 -14  26    6.91    2.06
  -2 -14  26    2.53    1.62
  -2 -14  26    3.50    1.02
   4 -14  26   16.76    2.72
  -4 -14  26   11.87    1.76
  -6 -14  26    5.24    1.46
  -8 -14  26    2.04    1.45
   0 -16  26   33.58    3.71
   0 -16  26   40.09    2.90
   2 -16  26    9.15    2.40
  -2 -16  26    8.72    1.47
  -2 -16  26    8.14    2.04
   4 -16  26    0.14    2.19
  -4 -16  26   -0.43    0.98
  -6 -16  26    5.72    1.53
  -8 -16  26    3.27    1.43
   0 -18  26   85.75    5.18
  -2 -18  26   15.90    1.91
  -4 -18  26   14.59    1.96
  -6 -18  26    4.35    1.46
   0 -20  26   69.08    4.44
  -2 -20  26    7.93    1.42
  -4 -20  26    8.58    1.55
   0 -22  26   26.17    2.52
  -1   1  27   78.39    4.71
  -1  -1  27   78.87    4.69
  -3   1  27    5.30    1.19
  -3  -1  27    2.84    1.02
  -5   1  27    1.17    1.13
   5  -1  27    0.33    1.18
  -5  -1  27    1.21    1.00
   7  -1  27    5.05    1.82
  -7   1  27    8.19    1.80
   7   1  27    7.21    1.83
  -7  -1  27    7.28    1.57
  -9   1  27   26.49    2.96
  -9  -1  27   21.78    2.72
 -11   1  27   30.82    3.23
 -11  -1  27   20.98    2.74
  -1   3  27   28.42    2.36
  -1  -3  27   26.96    2.31
   3  -3  27   25.08    2.95
  -3  -3  27   22.76    2.20
   5  -3  27   10.47    2.10
  -5  -3  27   11.21    1.62
   7  -3  27    5.27    1.84
  -7   3  27    6.28    1.67
   7   3  27    4.59    1.63
  -7  -3  27    8.25    1.67
  -9   3  27    4.93    1.88
  -9  -3  27    6.12    1.88
 -11   3  27    8.43    1.94
 -11  -3  27    4.72    1.88
  -1  -5  27   24.31    2.15
   3  -5  27    0.19    1.07
  -3  -5  27    1.02    0.85
   5  -5  27    5.87    1.84
  -5  -5  27    6.60    1.40
   7  -5  27    4.59    1.81
  -7  -5  27    7.45    1.71
  -9   5  27    8.01    2.03
  -9  -5  27    5.95    1.78
   1  -7  27    5.26    1.06
   1  -7  27    7.11    1.77
  -1  -7  27    5.76    1.16
   3  -7  27   -0.48    1.17
  -3  -7  27   -0.10    0.72
   5  -7  27   20.50    2.86
  -5  -7  27   21.40    2.25
   7  -7  27   15.14    2.71
  -7  -7  27   25.11    2.53
  -9  -7  27    1.06    1.42
   1  -9  27    2.50    0.86
   1  -9  27    3.41    1.54
  -1  -9  27    2.11    0.91
   3  -9  27   10.78    2.10
  -3  -9  27    9.08    1.46
   5  -9  27   35.79    3.73
  -5  -9  27   34.77    2.90
   7  -9  27   19.66    2.89
  -7  -9  27   21.39    2.51
  -9  -9  27    2.29    1.53
   1 -11  27   22.71    2.98
   1 -11  27   19.06    1.88
  -1 -11  27   24.45    2.95
  -1 -11  27   18.45    1.99
   3 -11  27   45.49    4.27
  -3 -11  27   52.15    3.46
   5 -11  27   33.46    3.79
  -5 -11  27   30.67    2.72
  -7 -11  27   12.58    1.90
  -9 -11  27    1.17    1.49
   1 -13  27    1.38    1.45
   1 -13  27    0.98    0.75
  -1 -13  27   -1.85    1.53
  -1 -13  27    1.40    0.86
   3 -13  27   19.09    2.87
  -3 -13  27   17.94    2.07
   5 -13  27   55.30    4.81
  -5 -13  27   57.78    3.99
  -7 -13  27    2.65    1.35
   1 -15  27   11.96    1.61
   1 -15  27   13.76    2.57
  -1 -15  27   12.65    1.70
  -1 -15  27   10.11    2.28
   3 -15  27   11.83    2.55
  -3 -15  27    7.21    1.46
  -5 -15  27    1.04    1.21
  -7 -15  27   -1.93    1.20
   1 -17  27   53.31    3.67
  -1 -17  27   56.12    3.71
  -3 -17  27    2.74    1.22
  -5 -17  27   11.02    1.73
   1 -19  27   63.43    4.25
  -1 -19  27   67.63    4.24
  -3 -19  27   -0.12    0.88
   0   0  28  145.26    7.89
  -2   0  28   32.58    2.60
  -4   0  28   25.48    2.43
   6   0  28   29.99    3.49
  -6   0  28   38.05    3.11
  -8   0  28    4.05    1.56
 -10   0  28   50.03    4.06
   0   2  28   68.92    4.24
   0  -2  28   69.35    4.28
  -2   2  28   58.65    3.80
  -2  -2  28   54.33    3.70
  -4   2  28   -1.34    0.86
  -4  -2  28    0.84    0.94
   6  -2  28    1.90    1.47
  -6   2  28   -0.88    1.22
  -6  -2  28   -0.73    1.06
  -8   2  28   -0.42    1.44
  -8  -2  28    1.68    1.45
 -10   2  28   28.80    3.19
 -10  -2  28   29.24    3.33
   0   4  28   47.04    3.76
   0  -4  28   54.33    3.41
  -2   4  28   23.09    2.28
  -2  -4  28   22.90    2.23
   4  -4  28    0.20    1.19
  -4  -4  28    1.03    0.95
   6  -4  28    1.85    1.60
  -6   4  28    5.55    1.67
  -6  -4  28    4.84    1.36
  -8   4  28    9.77    2.10
  -8  -4  28   13.03    2.10
 -10   4  28    3.84    1.75
 -10  -4  28    3.61    1.73
   0  -6  28   43.08    2.99
   2  -6  28    1.36    1.61
  -2  -6  28    1.24    0.82
   4  -6  28    4.13    1.55
  -4  -6  28    6.01    1.31
   6  -6  28   19.85    2.87
  -6  -6  28   23.90    2.52
  -8  -6  28   13.17    2.01
 -10   6  28   -1.92    1.64
 -10  -6  28   -2.31    1.42
   0  -8  28    7.36    1.27
   2  -8  28    4.45    1.54
  -2  -8  28    3.19    1.03
   4  -8  28   26.85    3.28
  -4  -8  28   26.59    2.44
   6  -8  28   24.43    3.31
  -6  -8  28   31.39    2.77
  -8  -8  28    5.33    1.55
   0 -10  28   42.91    3.05
   2 -10  28    5.66    1.75
  -2 -10  28    4.14    1.11
   4 -10  28   42.15    4.11
  -4 -10  28   45.22    3.30
  -6 -10  28   49.07    3.68
  -8 -10  28    0.32    1.21
   0 -12  28   18.92    2.02
   0 -12  28   20.36    2.75
   2 -12  28    0.21    1.53
  -2 -12  28    1.75    0.90
   4 -12  28   52.38    4.51
  -4 -12  28   54.64    3.78
  -6 -12  28   42.21    3.34
  -8 -12  28    1.66    1.32
   0 -14  28    5.98    1.25
   0 -14  28    6.30    1.74
   2 -14  28    1.87    1.99
  -2 -14  28   -0.18    0.94
  -4 -14  28   21.16    2.29
  -6 -14  28   10.80    1.73
   0 -16  28   29.00    2.51
  -2 -16  28   26.98    2.47
  -4 -16  28   -0.38    0.94
  -6 -16  28    0.68    1.16
   0 -18  28   81.84    4.98
  -2 -18  28   23.42    2.32
  -4 -18  28    1.02    1.03
  -1   1  29   91.23    5.40
  -1  -1  29   92.86    5.45
  -3   1  29   28.43    2.47
  -3  -1  29   27.23    2.45
  -5   1  29   21.46    2.36
  -5  -1  29   16.58    2.06
  -7   1  29    0.22    1.23
  -7  -1  29    2.76    1.39
  -9   1  29   27.06    2.94
  -9  -1  29   24.46    2.94
  -1   3  29   79.90    4.93
  -1  -3  29   83.23    4.95
  -3   3  29    1.31    1.00
  -3  -3  29   -0.23    0.83
  -5   3  29    1.49    1.30
   5  -3  29    0.68    1.36
  -5  -3  29    2.61    1.21
  -7   3  29    0.52    1.38
  -7  -3  29   -0.14    1.25
  -9   3  29   14.16    2.13
  -9  -3  29    9.41    2.10
  -1   5  29   16.48    2.00
  -1  -5  29   21.07    2.02
  -3   5  29    3.79    1.29
  -3  -5  29    6.79    1.34
  -5   5  29    4.01    1.44
   5  -5  29    3.06    1.64
  -5  -5  29    4.11    1.29
  -7   5  29   13.76    2.26
  -7  -5  29   15.18    2.10
  -9   5  29    0.24    1.52
  -9  -5  29    0.29    1.39
  -1  -7  29    0.72    0.67
   3  -7  29   11.96    2.32
  -3  -7  29   10.02    1.51
   5  -7  29   17.89    2.65
  -5  -7  29   21.62    2.35
  -7  -7  29   21.00    2.43
  -9   7  29   -0.21    1.43
  -9  -7  29   -1.24    1.25
  -1  -9  29   13.71    1.74
   3  -9  29   33.33    3.54
  -3  -9  29   33.84    2.77
  -5  -9  29   42.63    3.27
  -7  -9  29   10.92    1.79
   1 -11  29    7.59    2.04
  -1 -11  29    7.00    1.31
   3 -11  29   10.41    2.36
  -3 -11  29    7.65    1.50
  -5 -11  29   76.65    4.84
  -7 -11  29   14.51    2.01
  -1 -13  29    0.95    0.89
  -3 -13  29   14.93    1.87
  -5 -13  29   20.68    2.35
  -1 -15  29   16.54    2.00
  -3 -15  29    3.44    1.21
  -5 -15  29    1.10    1.12
  -1 -17  29   45.05    3.21
  -3 -17  29    2.12    1.10
  -2   0  30  109.57    6.30
  -4   0  30   41.49    3.25
  -6   0  30   11.11    1.76
  -8   0  30   13.92    2.12
  -2   2  30    7.57    1.34
  -2  -2  30    7.96    1.44
  -4   2  30    0.16    0.98
  -4  -2  30   -0.43    0.94
  -6   2  30    8.71    1.65
  -6  -2  30    9.95    1.76
  -8   2  30    4.51    1.51
  -8  -2  30    4.91    1.62
  -2   4  30    2.32    1.10
  -2  -4  30    4.08    1.09
  -4   4  30    5.00    1.41
  -4  -4  30    1.94    1.14
  -6   4  30    0.97    1.37
  -6  -4  30    0.84    1.22
  -8   4  30    0.45    1.34
  -8  -4  30    1.01    1.29
   0  -6  30   10.84    1.61
  -2   6  30    6.75    1.47
  -2  -6  30   10.36    1.54
  -4   6  30   15.02    2.12
  -4  -6  30   15.99    1.97
  -6   6  30   10.64    2.08
  -6  -6  30   11.61    1.78
  -8   6  30    0.76    1.52
  -8  -6  30   -0.01    1.20
   0  -8  30   28.06    2.40
  -2  -8  30    1.37    0.97
  -4  -8  30   31.52    2.68
  -6  -8  30   24.59    2.43
   0 -10  30    7.19    1.29
  -2 -10  30    2.88    1.06
  -4 -10  30   34.53    2.86
  -6 -10  30   35.62    2.98
   0 -12  30    4.72    1.15
  -2 -12  30    0.95    0.86
  -4 -12  30   14.28    1.83
  -6 -12  30   36.84    2.99
   0 -14  30   -0.30    0.83
  -2 -14  30   10.87    1.62
  -4 -14  30   -0.26    1.06
   0 -16  30   33.70    2.79
  -2 -16  30    3.91    1.19
  -1   1  31   90.47    5.46
  -1  -1  31   92.48    5.47
  -3   1  31    8.76    1.55
  -3  -1  31    9.94    1.58
  -5   1  31   40.53    3.35
  -5  -1  31   44.05    3.40
  -7   1  31    0.10    1.15
  -7  -1  31    3.29    1.34
  -1   3  31   20.73    2.25
  -1  -3  31   18.98    2.04
  -3   3  31    1.40    0.99
  -3  -3  31   -0.57    0.83
  -5   3  31    3.31    1.30
  -5  -3  31    0.82    1.13
  -7   3  31    2.82    1.40
  -7  -3  31    0.42    1.09
  -1  -5  31    1.17    0.85
  -3   5  31    5.63    1.47
  -3  -5  31    7.95    1.38
  -5   5  31    9.26    1.74
  -5  -5  31   10.35    1.64
  -7   5  31   -0.39    1.31
  -7  -5  31    1.05    1.17
  -1  -7  31   18.76    1.99
  -3   7  31   24.09    2.56
  -3  -7  31   22.64    2.23
  -5   7  31   15.64    2.29
  -5  -7  31   19.80    2.20
  -7   7  31    0.75    1.45
  -7  -7  31    1.85    1.10
  -1  -9  31   10.16    1.58
  -3  -9  31    1.42    1.04
  -5  -9  31   32.43    2.80
  -1 -11  31    8.03    1.38
  -3 -11  31    1.29    0.95
  -5 -11  31   22.22    2.38
  -1 -13  31    0.58    0.84
  -3 -13  31    0.38    1.04
  -2   0  32    6.54    1.46
  -4   0  32   32.96    2.91
  -6   0  32   22.81    2.62
  -2   2  32   12.41    1.72
  -2  -2  32   11.09    1.60
  -4   2  32   33.08    2.91
  -4  -2  32   32.62    2.86
  -6   2  32    8.72    1.72
  -6  -2  32    6.53    1.57
  -2   4  32   -0.12    0.93
  -2  -4  32    1.09    0.86
  -4   4  32    0.26    1.05
  -4  -4  32    0.74    0.95
  -6   4  32    4.00    1.34
  -6  -4  32    2.59    1.22
  -2   6  32    3.79    1.22
  -2  -6  32    2.42    0.95
  -4   6  32   15.36    2.09
  -4  -6  32   14.02    1.84
  -2   8  32    2.85    1.32
  -2  -8  32    4.18    1.16
  -4   8  32   13.93    2.03
  -4  -8  32   14.83    1.88
  -2 -10  32    2.14    0.96
  -4  10  32    3.84    1.49
  -4 -10  32    4.09    1.35
  -2 -12  32    0.93    0.95
  -3   1  33   28.04    2.65
  -3  -1  33   26.24    2.51
  -5   1  33   28.53    2.79
  -5  -1  33   27.44    2.75
  -3   3  33    2.17    1.12
  -3  -3  33    1.55    0.94
  -5   3  33   20.91    2.50
  -5  -3  33   24.47    2.44
  -3   5  33   -0.53    1.04
  -3  -5  33    1.38    0.91
  -3   7  33    1.00    1.13
  -3  -7  33   -0.03    0.96
  -2   0  34    0.81    1.34
  -2  -2  34   10.03    1.61
  -2  -4  34    1.35    1.00
   0   0   0    0.00    0.00
;
_shelx_hkl_checksum              79861
_shelx_fab_file
;
    2    0    0    246.60      0.00
    4    0    0    261.04      0.00
    6    0    0    177.68      0.00
    8    0    0    129.19      0.00
   10    0    0     61.16      0.00
   12    0    0     29.15      0.00
   14    0    0    -29.37      0.00
   16    0    0     24.76      0.00
   18    0    0    -17.87      0.00
    2    2    0   -407.29      0.00
    4    2    0    105.99      0.00
    6    2    0     -0.47      0.00
    8    2    0    -38.17      0.00
   10    2    0    -36.92      0.00
   12    2    0      5.60      0.00
   14    2    0    -21.61      0.00
   16    2    0     -8.57      0.00
   18    2    0    -14.87      0.00
    2    4    0   -457.10      0.00
    4    4    0    168.74      0.00
    6    4    0    -42.06      0.00
    8    4    0    -14.02      0.00
   10    4    0    -44.08      0.00
   12    4    0     14.90      0.00
   14    4    0    -13.15      0.00
   16    4    0     14.83      0.00
    2    6    0    197.40      0.00
    4    6    0    283.77      0.00
    6    6    0    -16.08      0.00
    8    6    0     57.47      0.00
   10    6    0     33.34      0.00
   12    6    0     17.42      0.00
   14    6    0     11.15      0.00
   16    6    0     -2.86      0.00
    2    8    0   -211.76      0.00
    4    8    0    142.64      0.00
    6    8    0   -124.59      0.00
    8    8    0     11.00      0.00
   10    8    0     -1.09      0.00
   12    8    0     17.98      0.00
   14    8    0     28.35      0.00
   16    8    0     -0.87      0.00
    0   10    0     68.88      0.00
    2   10    0    -29.76      0.00
    4   10    0     62.39      0.00
    6   10    0    -86.15      0.00
    8   10    0     56.75      0.00
   10   10    0      7.64      0.00
   12   10    0    -18.31      0.00
   14   10    0     -1.69      0.00
   16   10    0      0.26      0.00
    0   12    0     46.14      0.00
    2   12    0    -21.23      0.00
    4   12    0     49.96      0.00
    6   12    0    -20.94      0.00
    8   12    0     39.10      0.00
   10   12    0      1.92      0.00
   12   12    0     -3.80      0.00
   14   12    0    -10.71      0.00
   16   12    0      0.00      0.00
    0   14    0    -12.60      0.00
    2   14    0    -75.85      0.00
    4   14    0     -3.72      0.00
    6   14    0     -6.60      0.00
    8   14    0      7.79      0.00
   10   14    0     -5.02      0.00
   12   14    0      0.69      0.00
   14   14    0      9.57      0.00
   16   14    0     16.58      0.00
    0   16    0     56.24      0.00
    2   16    0     28.99      0.00
    4   16    0      6.17      0.00
    6   16    0     37.38      0.00
    8   16    0     21.68      0.00
   10   16    0     -0.88      0.00
   12   16    0    -25.45      0.00
   14   16    0     10.29      0.00
    0   18    0     15.72      0.00
    2   18    0    -16.39      0.00
    4   18    0      8.46      0.00
    6   18    0      8.73      0.00
    8   18    0     -3.98      0.00
   10   18    0     10.67      0.00
   12   18    0    -10.96      0.00
   14   18    0     33.63      0.00
    0   20    0    -13.44      0.00
    2   20    0    -14.75      0.00
    4   20    0     -0.57      0.00
    6   20    0      0.89      0.00
    8   20    0     -6.53      0.00
   10   20    0      8.10      0.00
   12   20    0     -3.50      0.00
   14   20    0     -8.53      0.00
    0   22    0     26.47      0.00
    2   22    0     10.47      0.00
    4   22    0      4.46      0.00
    6   22    0      1.29      0.00
    8   22    0    -11.26      0.00
   10   22    0     -6.23      0.00
   12   22    0    -15.40      0.00
    0   24    0      6.53      0.00
    2   24    0      2.43      0.00
    4   24    0      5.04      0.00
    6   24    0      7.22      0.00
    8   24    0      5.29      0.00
   10   24    0     18.50      0.00
   12   24    0     -2.70      0.00
    0   26    0     -2.08      0.00
    2   26    0      2.66      0.00
    4   26    0     13.93      0.00
    6   26    0      5.48      0.00
    8   26    0     -9.86      0.00
   10   26    0     17.22      0.00
    0   28    0     -3.06      0.00
    2   28    0    -15.40      0.00
    4   28    0    -14.38      0.00
    6   28    0     -8.91      0.00
    8   28    0     -9.48      0.00
    0   30    0     15.98      0.00
    2   30    0     -0.24      0.00
    4   30    0     15.47      0.00
    6   30    0     -5.87      0.00
    8   30    0    -11.88      0.00
    0   32    0    -13.54      0.00
    2   32    0     -2.62      0.00
    4   32    0      6.61      0.00
    1    1    1    640.86      0.00
    3    1    1   -420.96      0.00
    5    1    1     51.19      0.00
    7    1    1    -13.44      0.00
    9    1    1    -18.63      0.00
   11    1    1    -11.98      0.00
   13    1    1     -0.17      0.00
   15    1    1     -6.20      0.00
   17    1    1      3.23      0.00
    1    3    1     47.37      0.00
    3    3    1    132.42      0.00
    5    3    1    194.50      0.00
    7    3    1     45.22      0.00
    9    3    1      4.69      0.00
   11    3    1     15.05      0.00
   13    3    1     21.07      0.00
   15    3    1    -15.65      0.00
   17    3    1     -4.18      0.00
    1    5    1   -215.17      0.00
    3    5    1     -6.03      0.00
    5    5    1      9.22      0.00
    7    5    1     29.19      0.00
    9    5    1      3.56      0.00
   11    5    1      3.01      0.00
   13    5    1     -4.88      0.00
   15    5    1      2.23      0.00
   17    5    1     17.80      0.00
    1    7    1   -117.93      0.00
    3    7    1     99.10      0.00
    5    7    1    -86.80      0.00
    7    7    1    -42.59      0.00
    9    7    1     -8.63      0.00
   11    7    1     -6.90      0.00
   13    7    1     52.16      0.00
   15    7    1      8.60      0.00
   17    7    1     -3.22      0.00
    1    9    1     21.10      0.00
    3    9    1     45.68      0.00
    5    9    1      2.08      0.00
    7    9    1      8.38      0.00
    9    9    1     26.30      0.00
   11    9    1     -4.07      0.00
   13    9    1     -5.78      0.00
   15    9    1     -7.04      0.00
   17    9    1      7.48      0.00
    1   11    1    -28.04      0.00
    3   11    1     37.77      0.00
    5   11    1     -2.86      0.00
    7   11    1    -11.43      0.00
    9   11    1     35.86      0.00
   11   11    1     -2.88      0.00
   13   11    1     11.22      0.00
   15   11    1     -5.51      0.00
   17   11    1    -13.38      0.00
    1   13    1     -9.96      0.00
    3   13    1     13.44      0.00
    5   13    1     -6.60      0.00
    7   13    1     15.35      0.00
    9   13    1     -5.00      0.00
   11   13    1      0.50      0.00
   13   13    1     -3.95      0.00
   15   13    1      4.66      0.00
    1   15    1      8.09      0.00
    3   15    1    -27.69      0.00
    5   15    1    -35.92      0.00
    7   15    1     14.55      0.00
    9   15    1    -15.35      0.00
   11   15    1     18.11      0.00
   13   15    1     -8.76      0.00
   15   15    1     19.62      0.00
    1   17    1    -35.05      0.00
    3   17    1      7.94      0.00
    5   17    1      5.91      0.00
    7   17    1     27.48      0.00
    9   17    1    -16.34      0.00
   11   17    1    -10.69      0.00
   13   17    1     -9.49      0.00
   15   17    1     10.94      0.00
    1   19    1     22.50      0.00
    3   19    1      8.12      0.00
    5   19    1    -12.77      0.00
    7   19    1      5.77      0.00
    9   19    1     -4.34      0.00
   11   19    1     14.82      0.00
   13   19    1     -5.22      0.00
    1   21    1     -3.71      0.00
    3   21    1      0.08      0.00
    5   21    1     -9.52      0.00
    7   21    1      2.69      0.00
    9   21    1    -16.05      0.00
   11   21    1      7.49      0.00
   13   21    1     -4.84      0.00
    1   23    1    -13.96      0.00
    3   23    1     -0.64      0.00
    5   23    1     17.22      0.00
    7   23    1      5.85      0.00
    9   23    1      5.03      0.00
   11   23    1      4.11      0.00
   13   23    1    -11.50      0.00
    1   25    1      6.41      0.00
    3   25    1     -1.01      0.00
    5   25    1    -13.01      0.00
    7   25    1     -2.19      0.00
    9   25    1      3.47      0.00
   11   25    1     -1.15      0.00
    1   27    1     -6.66      0.00
    3   27    1      5.07      0.00
    5   27    1      5.41      0.00
    7   27    1     -9.57      0.00
    9   27    1     -5.32      0.00
    1   29    1     -3.29      0.00
    3   29    1     -1.48      0.00
    5   29    1     -2.31      0.00
    7   29    1      7.77      0.00
    9   29    1     -1.54      0.00
    1   31    1    -14.39      0.00
    3   31    1     -8.92      0.00
    5   31    1     -3.51      0.00
    7   31    1    -18.27      0.00
    1   33    1     10.45      0.00
    3   33    1     13.74      0.00
    0    0    2    374.77      0.00
    2    0    2   -445.21      0.00
    4    0    2    -69.62      0.00
    6    0    2     38.14      0.00
    8    0    2    -34.77      0.00
   10    0    2    -18.68      0.00
   12    0    2      2.57      0.00
   14    0    2     28.49      0.00
   16    0    2     12.15      0.00
   18    0    2    -14.75      0.00
    0    2    2   -497.99      0.00
    2    2    2    147.34      0.00
    4    2    2    -72.47      0.00
    6    2    2     34.47      0.00
    8    2    2      9.12      0.00
   10    2    2      8.73      0.00
   12    2    2     -0.45      0.00
   14    2    2     11.28      0.00
   16    2    2      6.28      0.00
   18    2    2     -5.68      0.00
    0    4    2    -58.13      0.00
    4    4    2   -105.23      0.00
    6    4    2      4.00      0.00
    8    4    2     -8.92      0.00
   10    4    2    -21.59      0.00
   12    4    2     -5.92      0.00
   14    4    2     -3.53      0.00
   16    4    2      2.19      0.00
    0    6    2   -160.36      0.00
    2    6    2     11.51      0.00
    4    6    2    -29.07      0.00
    6    6    2     -8.72      0.00
    8    6    2      7.45      0.00
   10    6    2     13.12      0.00
   12    6    2      1.49      0.00
   14    6    2     17.19      0.00
   16    6    2     -1.12      0.00
    0    8    2     73.62      0.00
    2    8    2     30.52      0.00
    4    8    2     43.51      0.00
    6    8    2      9.39      0.00
    8    8    2     63.28      0.00
   10    8    2     -8.27      0.00
   12    8    2     -3.17      0.00
   14    8    2     12.70      0.00
   16    8    2      8.77      0.00
    0   10    2    -47.16      0.00
    2   10    2    -13.77      0.00
    4   10    2      6.42      0.00
    6   10    2    -25.46      0.00
    8   10    2     -7.34      0.00
   10   10    2      2.15      0.00
   12   10    2     28.24      0.00
   14   10    2     12.94      0.00
   16   10    2     -7.87      0.00
    0   12    2      6.14      0.00
    2   12    2      2.69      0.00
    4   12    2    -44.37      0.00
    6   12    2     -9.77      0.00
    8   12    2    -32.79      0.00
   10   12    2      4.13      0.00
   12   12    2    -11.67      0.00
   14   12    2     -3.08      0.00
   16   12    2     -5.35      0.00
    0   14    2      1.09      0.00
    2   14    2     13.16      0.00
    4   14    2     30.51      0.00
    6   14    2     19.34      0.00
    8   14    2    -19.67      0.00
   10   14    2      9.37      0.00
   12   14    2      0.07      0.00
   14   14    2      0.95      0.00
   16   14    2     -1.24      0.00
    0   16    2      4.86      0.00
    2   16    2     14.95      0.00
    4   16    2    -20.35      0.00
    6   16    2     -5.69      0.00
    8   16    2     -7.50      0.00
   10   16    2      2.39      0.00
   12   16    2     -4.44      0.00
   14   16    2      2.25      0.00
    0   18    2     -2.29      0.00
    2   18    2    -12.31      0.00
    4   18    2    -16.67      0.00
    6   18    2     -6.57      0.00
    8   18    2     -3.74      0.00
   10   18    2     11.68      0.00
   12   18    2      3.87      0.00
   14   18    2     -9.25      0.00
    0   20    2    -27.19      0.00
    2   20    2     -4.06      0.00
    4   20    2      3.24      0.00
    6   20    2      8.10      0.00
    8   20    2     -5.68      0.00
   10   20    2      7.55      0.00
   12   20    2     -0.55      0.00
   14   20    2    -15.20      0.00
    0   22    2      4.94      0.00
    2   22    2     18.45      0.00
    4   22    2    -11.92      0.00
    6   22    2      3.80      0.00
    8   22    2     -6.19      0.00
   10   22    2      5.49      0.00
   12   22    2      7.02      0.00
    0   24    2    -11.79      0.00
    2   24    2      3.74      0.00
    4   24    2      5.26      0.00
    6   24    2      1.54      0.00
    8   24    2    -10.40      0.00
   10   24    2      2.55      0.00
   12   24    2    -21.43      0.00
    0   26    2    -14.12      0.00
    2   26    2     -9.82      0.00
    4   26    2     -5.94      0.00
    6   26    2     -1.28      0.00
    8   26    2     -5.40      0.00
   10   26    2     11.07      0.00
    0   28    2      0.43      0.00
    2   28    2     -8.56      0.00
    4   28    2     -8.51      0.00
    6   28    2      0.86      0.00
    8   28    2      6.33      0.00
    0   30    2     -1.27      0.00
    2   30    2     -1.06      0.00
    4   30    2     16.89      0.00
    6   30    2      8.80      0.00
    8   30    2     14.70      0.00
    0   32    2     -4.29      0.00
    2   32    2      7.79      0.00
    4   32    2    -12.47      0.00
    1    1    3   -252.16      0.00
    3    1    3     98.20      0.00
    5    1    3    142.27      0.00
    7    1    3     27.75      0.00
    9    1    3    -12.98      0.00
   11    1    3    -16.80      0.00
   13    1    3      9.02      0.00
   15    1    3     11.52      0.00
   17    1    3     -1.78      0.00
    1    3    3    134.42      0.00
    3    3    3    -58.09      0.00
    5    3    3   -175.83      0.00
    7    3    3    -42.48      0.00
    9    3    3      9.24      0.00
   11    3    3      5.55      0.00
   13    3    3     -9.89      0.00
   15    3    3      7.59      0.00
   17    3    3     -3.34      0.00
    1    5    3     46.87      0.00
    3    5    3     75.92      0.00
    5    5    3     41.55      0.00
    7    5    3     39.79      0.00
    9    5    3     13.74      0.00
   11    5    3      4.97      0.00
   13    5    3     -1.30      0.00
   15    5    3      1.64      0.00
   17    5    3    -27.96      0.00
    1    7    3     38.67      0.00
    3    7    3    -49.05      0.00
    5    7    3    -45.02      0.00
    7    7    3     19.27      0.00
    9    7    3     20.50      0.00
   11    7    3    -28.39      0.00
   13    7    3      6.07      0.00
   15    7    3      5.79      0.00
   17    7    3     -1.67      0.00
    1    9    3     81.86      0.00
    3    9    3      7.99      0.00
    5    9    3    -24.50      0.00
    7    9    3     17.69      0.00
    9    9    3     -3.75      0.00
   11    9    3     -0.70      0.00
   13    9    3     10.83      0.00
   15    9    3     -2.17      0.00
   17    9    3     -7.35      0.00
    1   11    3     -7.32      0.00
    3   11    3     27.06      0.00
    5   11    3     91.36      0.00
    7   11    3    -22.50      0.00
    9   11    3      5.32      0.00
   11   11    3      1.74      0.00
   13   11    3     14.90      0.00
   15   11    3     -3.43      0.00
   17   11    3     -7.05      0.00
    1   13    3     12.98      0.00
    3   13    3    -27.12      0.00
    5   13    3    -31.11      0.00
    7   13    3    -31.90      0.00
    9   13    3     -6.72      0.00
   11   13    3    -16.83      0.00
   13   13    3      2.05      0.00
   15   13    3      5.32      0.00
    1   15    3     21.52      0.00
    3   15    3      7.10      0.00
    5   15    3     42.62      0.00
    7   15    3    -13.95      0.00
    9   15    3     19.94      0.00
   11   15    3      5.36      0.00
   13   15    3     20.53      0.00
   15   15    3      0.93      0.00
    1   17    3      7.39      0.00
    3   17    3     10.06      0.00
    5   17    3      9.03      0.00
    7   17    3      3.43      0.00
    9   17    3     18.70      0.00
   11   17    3     -4.53      0.00
   13   17    3     -8.53      0.00
   15   17    3     -8.75      0.00
    1   19    3     11.92      0.00
    3   19    3     -1.99      0.00
    5   19    3     -1.75      0.00
    7   19    3    -15.10      0.00
    9   19    3      8.74      0.00
   11   19    3      2.55      0.00
   13   19    3     -7.99      0.00
    1   21    3      4.70      0.00
    3   21    3      0.73      0.00
    5   21    3      3.08      0.00
    7   21    3     -2.66      0.00
    9   21    3      2.23      0.00
   11   21    3      8.10      0.00
   13   21    3    -12.60      0.00
    1   23    3      2.33      0.00
    3   23    3     10.69      0.00
    5   23    3     12.31      0.00
    7   23    3     -8.64      0.00
    9   23    3     11.64      0.00
   11   23    3     -0.19      0.00
   13   23    3     -3.00      0.00
    1   25    3      8.17      0.00
    3   25    3     -7.10      0.00
    5   25    3      0.17      0.00
    7   25    3    -12.60      0.00
    9   25    3      4.40      0.00
   11   25    3     -7.23      0.00
    1   27    3      4.97      0.00
    3   27    3     -3.23      0.00
    5   27    3     -1.21      0.00
    7   27    3     10.15      0.00
    9   27    3      2.96      0.00
    1   29    3    -10.41      0.00
    3   29    3     -4.49      0.00
    5   29    3      5.58      0.00
    7   29    3      7.84      0.00
    9   29    3     10.58      0.00
    1   31    3      9.73      0.00
    3   31    3     -4.24      0.00
    5   31    3     -1.83      0.00
    1   33    3     14.84      0.00
    3   33    3     -0.37      0.00
    0    0    4     11.07      0.00
    2    0    4      5.87      0.00
    4    0    4    155.34      0.00
    6    0    4     74.88      0.00
    8    0    4    -55.80      0.00
   10    0    4    -16.38      0.00
   12    0    4    -17.41      0.00
   14    0    4     -5.66      0.00
   16    0    4     -3.58      0.00
   18    0    4     -4.49      0.00
    0    2    4     81.23      0.00
    2    2    4    148.07      0.00
    4    2    4     26.94      0.00
    6    2    4     55.21      0.00
    8    2    4     -4.09      0.00
   10    2    4     10.04      0.00
   12    2    4     -2.60      0.00
   14    2    4     -7.04      0.00
   16    2    4     -3.90      0.00
   18    2    4     13.34      0.00
    0    4    4    -41.29      0.00
    2    4    4    270.06      0.00
    4    4    4    -71.82      0.00
    6    4    4      7.44      0.00
    8    4    4     18.25      0.00
   10    4    4     13.97      0.00
   12    4    4      9.96      0.00
   14    4    4      6.31      0.00
   16    4    4     -9.93      0.00
    0    6    4     84.28      0.00
    2    6    4    -34.41      0.00
    4    6    4    -66.95      0.00
    6    6    4    -15.99      0.00
    8    6    4     -6.52      0.00
   10    6    4     -6.53      0.00
   12    6    4     -5.93      0.00
   14    6    4    -12.04      0.00
   16    6    4    -28.25      0.00
    0    8    4    -36.32      0.00
    2    8    4     72.05      0.00
    4    8    4      3.87      0.00
    6    8    4      1.14      0.00
    8    8    4     25.47      0.00
   10    8    4    -14.67      0.00
   12    8    4     -0.04      0.00
   14    8    4     13.90      0.00
   16    8    4     -3.92      0.00
    0   10    4    -48.14      0.00
    2   10    4      3.54      0.00
    4   10    4     -9.10      0.00
    6   10    4    -10.70      0.00
    8   10    4     -5.88      0.00
   10   10    4     -2.04      0.00
   12   10    4      7.19      0.00
   14   10    4      1.43      0.00
   16   10    4     -5.57      0.00
    0   12    4      8.25      0.00
    2   12    4     58.77      0.00
    4   12    4    -11.51      0.00
    6   12    4     38.46      0.00
    8   12    4    -19.57      0.00
   10   12    4      4.13      0.00
   12   12    4     -6.32      0.00
   14   12    4     13.48      0.00
   16   12    4      2.76      0.00
    0   14    4    -60.13      0.00
    2   14    4      5.48      0.00
    4   14    4      9.16      0.00
    6   14    4     35.45      0.00
    8   14    4     -0.83      0.00
   10   14    4     10.75      0.00
   12   14    4     17.81      0.00
   14   14    4      8.81      0.00
   16   14    4     10.32      0.00
    0   16    4    -13.77      0.00
    2   16    4      1.24      0.00
    4   16    4    -33.19      0.00
    6   16    4     -6.25      0.00
    8   16    4     -0.99      0.00
   10   16    4      1.20      0.00
   12   16    4      0.97      0.00
   14   16    4      9.20      0.00
    0   18    4      8.29      0.00
    2   18    4     25.85      0.00
    4   18    4      6.69      0.00
    6   18    4     10.76      0.00
    8   18    4     12.42      0.00
   10   18    4     -5.75      0.00
   12   18    4      0.34      0.00
   14   18    4    -25.11      0.00
    0   20    4    -10.30      0.00
    2   20    4      4.60      0.00
    4   20    4     11.06      0.00
    6   20    4      3.08      0.00
    8   20    4      3.63      0.00
   10   20    4     -1.14      0.00
   12   20    4      3.56      0.00
   14   20    4     -9.70      0.00
    0   22    4     -6.06      0.00
    2   22    4     15.67      0.00
    4   22    4    -11.33      0.00
    6   22    4     -7.92      0.00
    8   22    4      2.95      0.00
   10   22    4     -6.52      0.00
   12   22    4      9.99      0.00
    0   24    4     -3.17      0.00
    2   24    4      4.60      0.00
    4   24    4     -3.80      0.00
    6   24    4     -4.56      0.00
    8   24    4      8.65      0.00
   10   24    4      4.31      0.00
   12   24    4     -1.37      0.00
    0   26    4     -3.17      0.00
    2   26    4      0.37      0.00
    4   26    4     -3.02      0.00
    6   26    4      5.13      0.00
    8   26    4      0.70      0.00
   10   26    4      3.05      0.00
    0   28    4      6.65      0.00
    2   28    4      4.45      0.00
    4   28    4     -9.85      0.00
    6   28    4      5.53      0.00
    8   28    4      1.51      0.00
    0   30    4     -6.45      0.00
    2   30    4      7.91      0.00
    4   30    4      4.84      0.00
    6   30    4      1.75      0.00
    8   30    4      6.42      0.00
    0   32    4     -3.99      0.00
    2   32    4     11.23      0.00
    4   32    4    -17.40      0.00
    1    1    5    150.25      0.00
    3    1    5     54.73      0.00
    5    1    5     44.55      0.00
    7    1    5     26.03      0.00
    9    1    5    -13.23      0.00
   11    1    5     21.26      0.00
   13    1    5     -7.85      0.00
   15    1    5      1.19      0.00
   17    1    5      7.21      0.00
    1    3    5   -146.35      0.00
    3    3    5    -58.73      0.00
    5    3    5    -53.89      0.00
    7    3    5     -0.74      0.00
    9    3    5     -9.26      0.00
   11    3    5      3.53      0.00
   13    3    5     -6.02      0.00
   15    3    5     -0.61      0.00
   17    3    5     -2.08      0.00
    1    5    5     46.93      0.00
    3    5    5    122.71      0.00
    5    5    5    -39.26      0.00
    7    5    5      3.06      0.00
    9    5    5     -7.61      0.00
   11    5    5    -12.96      0.00
   13    5    5     -1.88      0.00
   15    5    5     -7.04      0.00
   17    5    5      0.67      0.00
    1    7    5    -98.26      0.00
    3    7    5      6.60      0.00
    5    7    5     12.58      0.00
    7    7    5      3.72      0.00
    9    7    5      3.92      0.00
   11    7    5      6.93      0.00
   13    7    5      5.59      0.00
   15    7    5     -4.57      0.00
   17    7    5     -6.50      0.00
    1    9    5    -11.07      0.00
    3    9    5    -27.52      0.00
    5    9    5    -60.90      0.00
    7    9    5    -20.87      0.00
    9    9    5      9.20      0.00
   11    9    5      2.38      0.00
   13    9    5      3.55      0.00
   15    9    5      8.61      0.00
   17    9    5    -11.23      0.00
    1   11    5    -37.91      0.00
    3   11    5     10.93      0.00
    5   11    5     63.20      0.00
    7   11    5    -18.31      0.00
    9   11    5      9.08      0.00
   11   11    5     -7.13      0.00
   13   11    5      5.88      0.00
   15   11    5     13.64      0.00
    1   13    5    -19.67      0.00
    3   13    5    -11.09      0.00
    5   13    5    -35.83      0.00
    7   13    5      1.63      0.00
    9   13    5     -0.96      0.00
   11   13    5      4.13      0.00
   13   13    5      5.56      0.00
   15   13    5      2.33      0.00
    1   15    5     19.71      0.00
    3   15    5    -21.93      0.00
    5   15    5      4.56      0.00
    7   15    5      6.87      0.00
    9   15    5     -2.05      0.00
   11   15    5     18.81      0.00
   13   15    5     10.70      0.00
   15   15    5      9.81      0.00
    1   17    5    -16.66      0.00
    3   17    5     17.95      0.00
    5   17    5     21.40      0.00
    7   17    5      1.30      0.00
    9   17    5     -1.47      0.00
   11   17    5      4.72      0.00
   13   17    5    -10.80      0.00
   15   17    5      5.33      0.00
    1   19    5    -17.77      0.00
    3   19    5    -37.03      0.00
    5   19    5    -27.49      0.00
    7   19    5     -5.89      0.00
    9   19    5     -0.56      0.00
   11   19    5    -14.40      0.00
   13   19    5      5.36      0.00
    1   21    5     -1.70      0.00
    3   21    5     -0.85      0.00
    5   21    5     11.23      0.00
    7   21    5     -6.57      0.00
    9   21    5     -5.13      0.00
   11   21    5      5.33      0.00
   13   21    5      0.86      0.00
    1   23    5     -4.77      0.00
    3   23    5      3.12      0.00
    5   23    5      3.76      0.00
    7   23    5      0.36      0.00
    9   23    5     12.59      0.00
   11   23    5      3.68      0.00
    1   25    5      5.59      0.00
    3   25    5    -16.92      0.00
    5   25    5     -6.50      0.00
    7   25    5     -0.33      0.00
    9   25    5     15.68      0.00
   11   25    5    -17.01      0.00
    1   27    5     -8.55      0.00
    3   27    5      6.25      0.00
    5   27    5     10.95      0.00
    7   27    5      5.72      0.00
    9   27    5     -7.98      0.00
    1   29    5      3.75      0.00
    3   29    5      0.62      0.00
    5   29    5     -7.09      0.00
    7   29    5    -10.90      0.00
    1   31    5      6.02      0.00
    3   31    5      8.51      0.00
    5   31    5     -7.24      0.00
    1   33    5    -14.20      0.00
    0    0    6   -288.11      0.00
    2    0    6   -131.59      0.00
    4    0    6   -212.62      0.00
    6    0    6    -63.15      0.00
    8    0    6    -37.82      0.00
   10    0    6     21.15      0.00
   12    0    6     -5.51      0.00
   14    0    6    -20.10      0.00
   16    0    6      9.67      0.00
    0    2    6    125.95      0.00
    2    2    6    -27.44      0.00
    4    2    6     10.21      0.00
    6    2    6     53.05      0.00
    8    2    6     21.96      0.00
   10    2    6    -16.39      0.00
   12    2    6     -2.71      0.00
   14    2    6     -2.97      0.00
   16    2    6      3.66      0.00
    0    4    6   -304.47      0.00
    2    4    6    240.99      0.00
    4    4    6     17.51      0.00
    6    4    6     54.82      0.00
    8    4    6     28.43      0.00
   10    4    6      7.32      0.00
   12    4    6     16.08      0.00
   14    4    6     12.07      0.00
   16    4    6      6.94      0.00
    0    6    6     -7.87      0.00
    2    6    6    -98.09      0.00
    4    6    6    -61.81      0.00
    6    6    6    -40.98      0.00
    8    6    6    -17.74      0.00
   10    6    6      2.76      0.00
   12    6    6     -4.45      0.00
   14    6    6      1.35      0.00
   16    6    6     14.93      0.00
    0    8    6   -155.44      0.00
    2    8    6    -15.84      0.00
    4    8    6     38.71      0.00
    6    8    6      0.87      0.00
    8    8    6    -31.66      0.00
   10    8    6    -11.29      0.00
   12    8    6    -15.44      0.00
   14    8    6     -2.55      0.00
   16    8    6     -7.14      0.00
    0   10    6     58.11      0.00
    2   10    6     25.51      0.00
    4   10    6    -19.43      0.00
    6   10    6    -18.50      0.00
    8   10    6     27.80      0.00
   10   10    6     19.71      0.00
   12   10    6    -14.59      0.00
   14   10    6      9.95      0.00
   16   10    6    -12.96      0.00
    0   12    6      9.48      0.00
    2   12    6     32.40      0.00
    4   12    6     24.94      0.00
    6   12    6      4.21      0.00
    8   12    6      3.76      0.00
   10   12    6     -2.24      0.00
   12   12    6      6.29      0.00
   14   12    6     24.42      0.00
   16   12    6     -9.13      0.00
    0   14    6     -6.84      0.00
    2   14    6     -1.60      0.00
    4   14    6    -11.08      0.00
    6   14    6     -7.41      0.00
    8   14    6     -3.85      0.00
   10   14    6     14.20      0.00
   12   14    6     10.48      0.00
   14   14    6     -7.60      0.00
   16   14    6    -16.33      0.00
    0   16    6     21.58      0.00
    2   16    6     -9.52      0.00
    4   16    6    -17.10      0.00
    6   16    6    -16.96      0.00
    8   16    6     -3.01      0.00
   10   16    6     11.72      0.00
   12   16    6      9.60      0.00
   14   16    6     12.91      0.00
    0   18    6      0.84      0.00
    2   18    6    -14.59      0.00
    4   18    6     16.31      0.00
    6   18    6      2.94      0.00
    8   18    6      4.61      0.00
   10   18    6     -5.71      0.00
   12   18    6    -10.22      0.00
   14   18    6    -10.85      0.00
    0   20    6     25.53      0.00
    2   20    6    -13.62      0.00
    4   20    6      1.69      0.00
    6   20    6     -7.54      0.00
    8   20    6     -0.16      0.00
   10   20    6     -5.41      0.00
   12   20    6      9.88      0.00
   14   20    6      2.05      0.00
    0   22    6     -1.22      0.00
    2   22    6    -13.48      0.00
    4   22    6      4.50      0.00
    6   22    6     -3.56      0.00
    8   22    6      5.16      0.00
   10   22    6     -4.55      0.00
   12   22    6     24.89      0.00
    0   24    6      5.67      0.00
    2   24    6     -2.44      0.00
    4   24    6     -6.00      0.00
    6   24    6      6.60      0.00
    8   24    6     17.90      0.00
   10   24    6      1.01      0.00
   12   24    6    -11.04      0.00
    0   26    6     -7.67      0.00
    2   26    6     -2.20      0.00
    4   26    6     12.59      0.00
    6   26    6      1.06      0.00
    8   26    6      4.61      0.00
   10   26    6      7.84      0.00
    0   28    6     19.41      0.00
    2   28    6      6.26      0.00
    4   28    6      5.09      0.00
    6   28    6     -1.73      0.00
    8   28    6     -1.32      0.00
    0   30    6     -2.44      0.00
    2   30    6    -12.48      0.00
    4   30    6     -5.36      0.00
    6   30    6    -25.51      0.00
    0   32    6     -4.19      0.00
    2   32    6      7.33      0.00
    4   32    6     -0.73      0.00
    1    1    7    -18.49      0.00
    3    1    7     26.38      0.00
    5    1    7      4.37      0.00
    7    1    7     23.19      0.00
    9    1    7     15.54      0.00
   11    1    7      8.22      0.00
   13    1    7     -1.13      0.00
   15    1    7      3.65      0.00
   17    1    7     15.56      0.00
    1    3    7    129.96      0.00
    3    3    7     20.71      0.00
    5    3    7     14.41      0.00
    7    3    7     31.28      0.00
    9    3    7     -5.91      0.00
   11    3    7      0.52      0.00
   13    3    7     -6.85      0.00
   15    3    7      1.92      0.00
   17    3    7     -6.69      0.00
    1    5    7    -96.31      0.00
    3    5    7    -47.16      0.00
    5    5    7    -30.19      0.00
    7    5    7    -43.76      0.00
    9    5    7     -3.68      0.00
   11    5    7     -4.06      0.00
   13    5    7     -3.60      0.00
   15    5    7      0.25      0.00
   17    5    7      7.26      0.00
    1    7    7     81.47      0.00
    3    7    7     69.70      0.00
    5    7    7     35.55      0.00
    7    7    7     16.62      0.00
    9    7    7     13.12      0.00
   11    7    7      4.53      0.00
   13    7    7    -18.78      0.00
   15    7    7     14.11      0.00
   17    7    7      3.59      0.00
    1    9    7     56.31      0.00
    3    9    7     -3.51      0.00
    5    9    7     41.69      0.00
    7    9    7      8.00      0.00
    9    9    7      4.44      0.00
   11    9    7      7.71      0.00
   13    9    7     -6.58      0.00
   15    9    7     -1.70      0.00
   17    9    7     -0.13      0.00
    1   11    7    -71.63      0.00
    3   11    7     -4.82      0.00
    5   11    7    -25.31      0.00
    7   11    7    -25.10      0.00
    9   11    7     -8.12      0.00
   11   11    7    -16.40      0.00
   13   11    7     -1.51      0.00
   15   11    7      5.66      0.00
    1   13    7     30.31      0.00
    3   13    7     18.21      0.00
    5   13    7    -14.44      0.00
    7   13    7     -1.19      0.00
    9   13    7      8.63      0.00
   11   13    7     -1.94      0.00
   13   13    7      1.33      0.00
   15   13    7     -8.27      0.00
    1   15    7     32.32      0.00
    3   15    7     37.71      0.00
    5   15    7      6.66      0.00
    7   15    7     18.58      0.00
    9   15    7      5.43      0.00
   11   15    7     29.55      0.00
   13   15    7      9.08      0.00
   15   15    7     -3.36      0.00
    1   17    7    -22.99      0.00
    3   17    7     -2.48      0.00
    5   17    7      0.24      0.00
    7   17    7     -0.39      0.00
    9   17    7     -2.38      0.00
   11   17    7      2.24      0.00
   13   17    7     -6.03      0.00
   15   17    7     -4.14      0.00
    1   19    7     12.03      0.00
    3   19    7      3.97      0.00
    5   19    7     -7.77      0.00
    7   19    7     15.58      0.00
    9   19    7     -2.16      0.00
   11   19    7      6.59      0.00
   13   19    7      0.47      0.00
    1   21    7      0.86      0.00
    3   21    7      3.92      0.00
    5   21    7     -4.83      0.00
    7   21    7      6.00      0.00
    9   21    7      0.11      0.00
   11   21    7     -2.82      0.00
   13   21    7      9.32      0.00
    1   23    7      3.78      0.00
    3   23    7      5.69      0.00
    5   23    7      4.77      0.00
    7   23    7     10.05      0.00
    9   23    7     -5.68      0.00
   11   23    7     -1.65      0.00
    1   25    7      1.88      0.00
    3   25    7      5.44      0.00
    5   25    7     -7.77      0.00
    7   25    7      6.52      0.00
    9   25    7      6.96      0.00
   11   25    7     -5.97      0.00
    1   27    7    -13.01      0.00
    3   27    7      0.54      0.00
    5   27    7     -3.02      0.00
    7   27    7      2.85      0.00
    9   27    7     -0.92      0.00
    1   29    7      3.52      0.00
    3   29    7      2.27      0.00
    5   29    7     -9.85      0.00
    7   29    7     -7.95      0.00
    1   31    7     10.83      0.00
    3   31    7     -0.74      0.00
    5   31    7     -8.26      0.00
    0    0    8   -129.01      0.00
    2    0    8    212.53      0.00
    4    0    8     71.99      0.00
    6    0    8     64.97      0.00
    8    0    8    -22.49      0.00
   10    0    8     23.50      0.00
   12    0    8      6.43      0.00
   14    0    8     -1.78      0.00
   16    0    8    -20.54      0.00
    0    2    8     97.21      0.00
    2    2    8    -20.42      0.00
    4    2    8    -70.80      0.00
    6    2    8    -16.90      0.00
    8    2    8    -10.46      0.00
   10    2    8     -7.20      0.00
   12    2    8     -7.74      0.00
   14    2    8      4.83      0.00
   16    2    8      5.43      0.00
    0    4    8     -6.54      0.00
    2    4    8    143.87      0.00
    4    4    8    -13.17      0.00
    6    4    8     37.79      0.00
    8    4    8     -4.19      0.00
   10    4    8     18.19      0.00
   12    4    8     14.69      0.00
   14    4    8     -5.86      0.00
   16    4    8    -22.23      0.00
    0    6    8     77.02      0.00
    2    6    8    -39.09      0.00
    4    6    8      1.49      0.00
    6    6    8     -2.70      0.00
    8    6    8     13.16      0.00
   10    6    8     11.40      0.00
   12    6    8     -4.71      0.00
   14    6    8     -9.89      0.00
   16    6    8    -13.01      0.00
    0    8    8      2.41      0.00
    2    8    8    -55.79      0.00
    4    8    8      3.87      0.00
    6    8    8    -23.33      0.00
    8    8    8    -20.01      0.00
   10    8    8    -11.66      0.00
   12    8    8     -7.11      0.00
   14    8    8      0.88      0.00
   16    8    8      6.86      0.00
    0   10    8    -49.32      0.00
    2   10    8     44.17      0.00
    4   10    8     19.68      0.00
    6   10    8     17.56      0.00
    8   10    8    -12.55      0.00
   10   10    8     -3.89      0.00
   12   10    8     -3.29      0.00
   14   10    8     -0.82      0.00
   16   10    8    -14.61      0.00
    0   12    8    -13.59      0.00
    2   12    8    -14.51      0.00
    4   12    8     -4.82      0.00
    6   12    8     -5.58      0.00
    8   12    8     18.89      0.00
   10   12    8     -3.81      0.00
   12   12    8      4.62      0.00
   14   12    8     15.44      0.00
   16   12    8      8.95      0.00
    0   14    8    -83.20      0.00
    2   14    8    -21.00      0.00
    4   14    8     18.24      0.00
    6   14    8    -13.76      0.00
    8   14    8    -13.91      0.00
   10   14    8      2.91      0.00
   12   14    8     -3.54      0.00
   14   14    8     -1.31      0.00
    0   16    8     16.90      0.00
    2   16    8      7.19      0.00
    4   16    8      8.01      0.00
    6   16    8    -14.42      0.00
    8   16    8     18.75      0.00
   10   16    8    -10.21      0.00
   12   16    8     19.85      0.00
   14   16    8     -0.80      0.00
    0   18    8      7.52      0.00
    2   18    8    -12.12      0.00
    4   18    8     11.73      0.00
    6   18    8      3.97      0.00
    8   18    8     20.65      0.00
   10   18    8     -3.80      0.00
   12   18    8     -1.65      0.00
   14   18    8     -8.12      0.00
    0   20    8    -13.53      0.00
    2   20    8     -4.66      0.00
    4   20    8     16.91      0.00
    6   20    8     -8.85      0.00
    8   20    8    -13.85      0.00
   10   20    8      1.63      0.00
   12   20    8     14.41      0.00
    0   22    8     25.62      0.00
    2   22    8     -5.05      0.00
    4   22    8    -13.33      0.00
    6   22    8     -7.60      0.00
    8   22    8     20.42      0.00
   10   22    8     -3.46      0.00
   12   22    8    -11.30      0.00
    0   24    8    -15.67      0.00
    2   24    8    -19.62      0.00
    4   24    8      4.89      0.00
    6   24    8     16.03      0.00
    8   24    8    -11.42      0.00
   10   24    8     -4.12      0.00
    0   26    8     24.15      0.00
    2   26    8      4.39      0.00
    4   26    8      9.10      0.00
    6   26    8    -11.83      0.00
    8   26    8    -12.05      0.00
   10   26    8     -0.27      0.00
    0   28    8      6.48      0.00
    2   28    8    -14.02      0.00
    4   28    8     -1.13      0.00
    6   28    8      5.79      0.00
    8   28    8      8.61      0.00
    0   30    8     -4.65      0.00
    2   30    8    -19.72      0.00
    4   30    8      0.21      0.00
    6   30    8     -9.67      0.00
    0   32    8     10.24      0.00
    2   32    8     11.95      0.00
    1    1    9      1.77      0.00
    3    1    9     56.04      0.00
    5    1    9    -20.51      0.00
    7    1    9     10.28      0.00
    9    1    9     -6.13      0.00
   11    1    9      4.07      0.00
   13    1    9     12.08      0.00
   15    1    9     -5.34      0.00
   17    1    9      1.31      0.00
    1    3    9    -62.16      0.00
    3    3    9    -56.89      0.00
    5    3    9    -31.21      0.00
    7    3    9      7.54      0.00
    9    3    9     -3.73      0.00
   11    3    9     17.62      0.00
   13    3    9    -13.35      0.00
   15    3    9     -9.62      0.00
   17    3    9    -10.47      0.00
    1    5    9    -46.00      0.00
    3    5    9    -35.92      0.00
    5    5    9     -5.77      0.00
    7    5    9    -16.57      0.00
    9    5    9      7.10      0.00
   11    5    9    -11.80      0.00
   13    5    9      4.38      0.00
   15    5    9    -15.96      0.00
   17    5    9      0.20      0.00
    1    7    9     33.90      0.00
    3    7    9     52.91      0.00
    5    7    9     -4.71      0.00
    7    7    9     -0.46      0.00
    9    7    9      8.70      0.00
   11    7    9     -0.65      0.00
   13    7    9      1.19      0.00
   15    7    9     -9.08      0.00
   17    7    9    -18.48      0.00
    1    9    9    -33.44      0.00
    3    9    9    -36.01      0.00
    5    9    9     40.23      0.00
    7    9    9     -9.34      0.00
    9    9    9      1.55      0.00
   11    9    9     -2.14      0.00
   13    9    9      2.12      0.00
   15    9    9     -7.02      0.00
    1   11    9    -50.66      0.00
    3   11    9     14.23      0.00
    5   11    9    -17.52      0.00
    7   11    9    -14.25      0.00
    9   11    9     -4.15      0.00
   11   11    9      3.11      0.00
   13   11    9     12.74      0.00
   15   11    9      0.51      0.00
    1   13    9     16.80      0.00
    3   13    9     11.69      0.00
    5   13    9      6.84      0.00
    7   13    9     -2.54      0.00
    9   13    9     15.61      0.00
   11   13    9    -10.57      0.00
   13   13    9      0.22      0.00
   15   13    9     11.26      0.00
    1   15    9    -32.25      0.00
    3   15    9     19.97      0.00
    5   15    9     -4.86      0.00
    7   15    9     -2.52      0.00
    9   15    9     -2.16      0.00
   11   15    9     -1.84      0.00
   13   15    9     -5.45      0.00
   15   15    9     -6.71      0.00
    1   17    9     -5.20      0.00
    3   17    9    -14.42      0.00
    5   17    9     -7.53      0.00
    7   17    9     -2.03      0.00
    9   17    9      6.47      0.00
   11   17    9      3.87      0.00
   13   17    9     12.50      0.00
    1   19    9     -0.02      0.00
    3   19    9      5.49      0.00
    5   19    9     -2.44      0.00
    7   19    9     -2.73      0.00
    9   19    9     -2.78      0.00
   11   19    9     23.18      0.00
   13   19    9     15.78      0.00
    1   21    9     -8.82      0.00
    3   21    9     -3.95      0.00
    5   21    9     -1.38      0.00
    7   21    9      7.02      0.00
    9   21    9      8.11      0.00
   11   21    9    -14.79      0.00
   13   21    9     13.45      0.00
    1   23    9      7.82      0.00
    3   23    9      2.37      0.00
    5   23    9      8.04      0.00
    7   23    9     -4.06      0.00
    9   23    9     -6.57      0.00
   11   23    9      8.63      0.00
    1   25    9      0.12      0.00
    3   25    9     -6.66      0.00
    5   25    9     -2.96      0.00
    7   25    9     -5.51      0.00
    9   25    9    -12.27      0.00
   11   25    9     -2.00      0.00
    1   27    9      0.28      0.00
    3   27    9     -6.07      0.00
    5   27    9     21.32      0.00
    7   27    9     17.01      0.00
    9   27    9      5.74      0.00
    1   29    9      5.55      0.00
    3   29    9      7.56      0.00
    5   29    9      2.67      0.00
    7   29    9     -2.76      0.00
    1   31    9     -1.66      0.00
    3   31    9    -10.62      0.00
    5   31    9      1.43      0.00
    0    0   10     24.99      0.00
    2    0   10     26.32      0.00
    4    0   10   -106.12      0.00
    6    0   10    -10.50      0.00
    8    0   10     -2.05      0.00
   10    0   10      1.21      0.00
   12    0   10      3.85      0.00
   14    0   10     21.10      0.00
   16    0   10     -0.90      0.00
    0    2   10   -156.08      0.00
    2    2   10    -32.32      0.00
    4    2   10     18.25      0.00
    6    2   10     46.33      0.00
    8    2   10     18.51      0.00
   10    2   10     -1.60      0.00
   12    2   10     -4.94      0.00
   14    2   10     -6.73      0.00
   16    2   10     -9.63      0.00
    0    4   10    -37.79      0.00
    2    4   10     31.06      0.00
    4    4   10    -31.73      0.00
    6    4   10      2.34      0.00
    8    4   10      3.17      0.00
   10    4   10    -15.60      0.00
   12    4   10      0.59      0.00
   14    4   10     -1.24      0.00
   16    4   10      4.53      0.00
    0    6   10    -51.53      0.00
    2    6   10     -6.83      0.00
    4    6   10    -18.64      0.00
    6    6   10     11.57      0.00
    8    6   10      9.46      0.00
   10    6   10      6.12      0.00
   12    6   10     11.96      0.00
   14    6   10     -4.65      0.00
   16    6   10     -3.97      0.00
    0    8   10     31.38      0.00
    2    8   10    -25.70      0.00
    4    8   10     49.22      0.00
    6    8   10     -4.75      0.00
    8    8   10     -1.59      0.00
   10    8   10      3.29      0.00
   12    8   10     -9.25      0.00
   14    8   10     -0.13      0.00
   16    8   10     -2.42      0.00
    0   10   10     45.26      0.00
    2   10   10     83.19      0.00
    4   10   10     -8.62      0.00
    6   10   10      1.99      0.00
    8   10   10    -15.16      0.00
   10   10   10    -11.36      0.00
   12   10   10     -1.86      0.00
   14   10   10     -1.66      0.00
   16   10   10    -19.89      0.00
    0   12   10     17.53      0.00
    2   12   10    -15.89      0.00
    4   12   10      8.91      0.00
    6   12   10      3.35      0.00
    8   12   10     33.15      0.00
   10   12   10     10.71      0.00
   12   12   10     -0.82      0.00
   14   12   10    -15.55      0.00
   16   12   10     -8.24      0.00
    0   14   10     11.63      0.00
    2   14   10     22.58      0.00
    4   14   10      6.84      0.00
    6   14   10    -10.76      0.00
    8   14   10      6.84      0.00
   10   14   10     15.22      0.00
   12   14   10      4.66      0.00
   14   14   10     14.92      0.00
    0   16   10     33.14      0.00
    2   16   10     17.03      0.00
    4   16   10     10.63      0.00
    6   16   10     -2.64      0.00
    8   16   10      5.41      0.00
   10   16   10      1.57      0.00
   12   16   10     -1.87      0.00
   14   16   10     -8.65      0.00
    0   18   10     -1.69      0.00
    2   18   10    -10.50      0.00
    4   18   10     -1.54      0.00
    6   18   10     -8.74      0.00
    8   18   10     11.62      0.00
   10   18   10      4.17      0.00
   12   18   10     10.55      0.00
   14   18   10      6.39      0.00
    0   20   10      5.58      0.00
    2   20   10     -2.32      0.00
    4   20   10     10.89      0.00
    6   20   10      1.91      0.00
    8   20   10      5.83      0.00
   10   20   10     -6.28      0.00
   12   20   10     14.02      0.00
    0   22   10     -0.66      0.00
    2   22   10     10.49      0.00
    4   22   10      5.57      0.00
    6   22   10    -10.98      0.00
    8   22   10     13.44      0.00
   10   22   10     -6.91      0.00
   12   22   10     29.83      0.00
    0   24   10    -14.25      0.00
    2   24   10      2.36      0.00
    4   24   10      7.86      0.00
    6   24   10      8.54      0.00
    8   24   10      2.74      0.00
   10   24   10      5.12      0.00
    0   26   10     12.63      0.00
    2   26   10     26.09      0.00
    4   26   10     10.01      0.00
    6   26   10      7.60      0.00
    8   26   10     -0.81      0.00
   10   26   10      5.11      0.00
    0   28   10    -16.80      0.00
    2   28   10     -7.94      0.00
    4   28   10    -10.60      0.00
    6   28   10      3.92      0.00
    8   28   10      8.35      0.00
    0   30   10     -3.82      0.00
    2   30   10     -2.09      0.00
    4   30   10     10.64      0.00
    6   30   10     -1.09      0.00
    0   32   10      7.95      0.00
    2   32   10     18.29      0.00
    1    1   11     23.98      0.00
    3    1   11    -15.35      0.00
    5    1   11    -14.07      0.00
    7    1   11     23.48      0.00
    9    1   11     -2.00      0.00
   11    1   11    -24.31      0.00
   13    1   11      2.54      0.00
   15    1   11     15.12      0.00
   17    1   11     -2.84      0.00
    1    3   11      3.18      0.00
    3    3   11     51.55      0.00
    5    3   11     40.09      0.00
    7    3   11     19.24      0.00
    9    3   11    -13.81      0.00
   11    3   11     34.69      0.00
   13    3   11     13.31      0.00
   15    3   11      2.11      0.00
   17    3   11      3.57      0.00
    1    5   11     36.96      0.00
    3    5   11    -11.34      0.00
    5    5   11    -10.41      0.00
    7    5   11     32.72      0.00
    9    5   11      7.73      0.00
   11    5   11     -5.44      0.00
   13    5   11      0.17      0.00
   15    5   11      6.61      0.00
    1    7   11     13.97      0.00
    3    7   11     30.00      0.00
    5    7   11     -7.29      0.00
    7    7   11    -28.17      0.00
    9    7   11    -27.18      0.00
   11    7   11     -7.60      0.00
   13    7   11     -5.39      0.00
   15    7   11      1.37      0.00
    1    9   11      8.93      0.00
    3    9   11    -43.63      0.00
    5    9   11      6.37      0.00
    7    9   11     -5.33      0.00
    9    9   11     -1.63      0.00
   11    9   11      0.59      0.00
   13    9   11     -1.85      0.00
   15    9   11    -10.27      0.00
    1   11   11     41.83      0.00
    3   11   11     14.35      0.00
    5   11   11     -7.07      0.00
    7   11   11      7.61      0.00
    9   11   11      5.55      0.00
   11   11   11      3.13      0.00
   13   11   11      4.22      0.00
   15   11   11     -9.08      0.00
    1   13   11      6.65      0.00
    3   13   11      5.76      0.00
    5   13   11     -3.43      0.00
    7   13   11     12.00      0.00
    9   13   11      6.72      0.00
   11   13   11     14.65      0.00
   13   13   11     -9.17      0.00
   15   13   11    -13.55      0.00
    1   15   11      8.45      0.00
    3   15   11    -16.58      0.00
    5   15   11     -4.23      0.00
    7   15   11      9.96      0.00
    9   15   11      0.69      0.00
   11   15   11      0.50      0.00
   13   15   11     -1.52      0.00
   15   15   11      5.53      0.00
    1   17   11     -0.05      0.00
    3   17   11      8.66      0.00
    5   17   11     23.39      0.00
    7   17   11    -16.46      0.00
    9   17   11     -3.35      0.00
   11   17   11      5.85      0.00
   13   17   11     -4.21      0.00
    1   19   11     14.29      0.00
    3   19   11     -9.70      0.00
    5   19   11     -3.97      0.00
    7   19   11      5.34      0.00
    9   19   11     17.32      0.00
   11   19   11     -4.30      0.00
   13   19   11      4.28      0.00
    1   21   11     -5.90      0.00
    3   21   11     -3.59      0.00
    5   21   11     20.36      0.00
    7   21   11      5.77      0.00
    9   21   11      3.34      0.00
   11   21   11     -4.01      0.00
    1   23   11      5.25      0.00
    3   23   11     21.38      0.00
    5   23   11     12.82      0.00
    7   23   11     -8.59      0.00
    9   23   11     -1.67      0.00
   11   23   11     18.09      0.00
    1   25   11     -4.76      0.00
    3   25   11    -21.04      0.00
    5   25   11    -13.92      0.00
    7   25   11     -7.13      0.00
    9   25   11     -7.27      0.00
    1   27   11    -16.21      0.00
    3   27   11    -10.86      0.00
    5   27   11      6.31      0.00
    7   27   11      0.95      0.00
    9   27   11     -3.04      0.00
    1   29   11     17.96      0.00
    3   29   11     11.07      0.00
    5   29   11      0.12      0.00
    7   29   11      0.32      0.00
    1   31   11     -6.81      0.00
    3   31   11      0.47      0.00
    0    0   12    130.30      0.00
    2    0   12     -2.53      0.00
    4    0   12     16.89      0.00
    6    0   12     11.54      0.00
    8    0   12     41.87      0.00
   10    0   12     14.59      0.00
   12    0   12     -4.14      0.00
   14    0   12     18.35      0.00
   16    0   12     11.21      0.00
    0    2   12     -2.46      0.00
    2    2   12     19.32      0.00
    4    2   12     41.21      0.00
    6    2   12    -26.54      0.00
    8    2   12    -17.40      0.00
   10    2   12      3.41      0.00
   12    2   12      8.99      0.00
   14    2   12     18.38      0.00
   16    2   12     15.85      0.00
    0    4   12     69.60      0.00
    2    4   12    -10.52      0.00
    4    4   12    -13.43      0.00
    6    4   12    -35.19      0.00
    8    4   12    -21.74      0.00
   10    4   12     -3.76      0.00
   12    4   12      2.84      0.00
   14    4   12     -6.02      0.00
   16    4   12      0.76      0.00
    0    6   12      9.29      0.00
    2    6   12     -5.22      0.00
    4    6   12      1.44      0.00
    6    6   12      8.26      0.00
    8    6   12     -4.45      0.00
   10    6   12      3.60      0.00
   12    6   12      1.61      0.00
   14    6   12      7.20      0.00
   16    6   12     14.44      0.00
    0    8   12     52.07      0.00
    2    8   12    -15.66      0.00
    4    8   12     29.17      0.00
    6    8   12    -15.05      0.00
    8    8   12     -6.01      0.00
   10    8   12      1.16      0.00
   12    8   12    -20.50      0.00
   14    8   12     -1.84      0.00
   16    8   12      9.86      0.00
    0   10   12    -55.59      0.00
    2   10   12    -34.61      0.00
    4   10   12    -40.52      0.00
    6   10   12    -17.77      0.00
    8   10   12    -26.03      0.00
   10   10   12     -8.14      0.00
   12   10   12     19.44      0.00
   14   10   12      2.05      0.00
   16   10   12      6.75      0.00
    0   12   12    -40.88      0.00
    2   12   12    -46.57      0.00
    4   12   12     -7.48      0.00
    6   12   12     -6.34      0.00
    8   12   12      9.52      0.00
   10   12   12      3.21      0.00
   12   12   12     -0.61      0.00
   14   12   12     -7.00      0.00
    0   14   12      3.12      0.00
    2   14   12     -4.07      0.00
    4   14   12     12.67      0.00
    6   14   12      5.60      0.00
    8   14   12     -4.96      0.00
   10   14   12    -14.34      0.00
   12   14   12     10.10      0.00
   14   14   12     -7.29      0.00
    0   16   12    -19.82      0.00
    2   16   12     -8.67      0.00
    4   16   12     -8.58      0.00
    6   16   12      4.84      0.00
    8   16   12     -7.06      0.00
   10   16   12     -2.08      0.00
   12   16   12      4.21      0.00
   14   16   12     -0.17      0.00
    0   18   12    -12.17      0.00
    2   18   12     -1.75      0.00
    4   18   12     -1.00      0.00
    6   18   12     -5.38      0.00
    8   18   12      3.15      0.00
   10   18   12     -2.02      0.00
   12   18   12     -2.14      0.00
    0   20   12      3.87      0.00
    2   20   12      2.55      0.00
    4   20   12      0.55      0.00
    6   20   12     -0.78      0.00
    8   20   12     12.41      0.00
   10   20   12     14.53      0.00
   12   20   12     -3.41      0.00
    0   22   12    -20.03      0.00
    2   22   12      0.30      0.00
    4   22   12     -3.33      0.00
    6   22   12      4.64      0.00
    8   22   12     -8.10      0.00
   10   22   12     -4.55      0.00
   12   22   12      1.85      0.00
    0   24   12     11.43      0.00
    2   24   12     -5.02      0.00
    4   24   12    -18.91      0.00
    6   24   12      5.52      0.00
    8   24   12    -15.88      0.00
   10   24   12     20.54      0.00
    0   26   12    -14.04      0.00
    2   26   12     -0.60      0.00
    4   26   12    -10.62      0.00
    6   26   12      9.75      0.00
    8   26   12    -22.65      0.00
    0   28   12      1.83      0.00
    2   28   12     -5.46      0.00
    4   28   12     -7.76      0.00
    6   28   12     -0.72      0.00
    0   30   12      5.76      0.00
    2   30   12    -18.78      0.00
    4   30   12      7.31      0.00
    1    1   13    -38.56      0.00
    3    1   13     -8.79      0.00
    5    1   13    -35.01      0.00
    7    1   13     -4.02      0.00
    9    1   13    -12.62      0.00
   11    1   13      4.18      0.00
   13    1   13      2.25      0.00
   15    1   13      2.59      0.00
    1    3   13     33.52      0.00
    3    3   13     19.15      0.00
    5    3   13    -20.71      0.00
    7    3   13      2.86      0.00
    9    3   13      1.24      0.00
   11    3   13     23.08      0.00
   13    3   13     -4.45      0.00
   15    3   13     13.08      0.00
    1    5   13     -0.73      0.00
    3    5   13      7.27      0.00
    5    5   13     15.38      0.00
    7    5   13      5.26      0.00
    9    5   13      1.53      0.00
   11    5   13     20.20      0.00
   13    5   13     10.14      0.00
   15    5   13      0.87      0.00
    1    7   13    -34.01      0.00
    3    7   13    -32.10      0.00
    5    7   13    -42.44      0.00
    7    7   13    -14.80      0.00
    9    7   13    -15.04      0.00
   11    7   13    -37.19      0.00
   13    7   13     -9.61      0.00
   15    7   13      9.46      0.00
    1    9   13      1.16      0.00
    3    9   13     20.19      0.00
    5    9   13     21.01      0.00
    7    9   13     -4.05      0.00
    9    9   13      6.12      0.00
   11    9   13      7.06      0.00
   13    9   13    -12.52      0.00
   15    9   13     12.54      0.00
    1   11   13    -30.55      0.00
    3   11   13      5.06      0.00
    5   11   13     14.67      0.00
    7   11   13     -5.37      0.00
    9   11   13    -10.94      0.00
   11   11   13     -5.54      0.00
   13   11   13     -1.62      0.00
   15   11   13      6.75      0.00
    1   13   13    -13.13      0.00
    3   13   13      9.89      0.00
    5   13   13    -16.28      0.00
    7   13   13      2.70      0.00
    9   13   13     -1.03      0.00
   11   13   13      0.20      0.00
   13   13   13      2.60      0.00
   15   13   13     13.12      0.00
    1   15   13    -12.82      0.00
    3   15   13      3.78      0.00
    5   15   13      2.54      0.00
    7   15   13     12.21      0.00
    9   15   13     -2.75      0.00
   11   15   13     -0.26      0.00
   13   15   13     10.25      0.00
    1   17   13      1.01      0.00
    3   17   13     -2.56      0.00
    5   17   13     -4.37      0.00
    7   17   13     11.78      0.00
    9   17   13     -0.88      0.00
   11   17   13     -3.00      0.00
   13   17   13      5.95      0.00
    1   19   13     -5.91      0.00
    3   19   13      7.80      0.00
    5   19   13    -39.71      0.00
    7   19   13    -15.67      0.00
    9   19   13     18.47      0.00
   11   19   13     -0.03      0.00
   13   19   13      0.74      0.00
    1   21   13     12.20      0.00
    3   21   13     21.24      0.00
    5   21   13      6.50      0.00
    7   21   13     11.45      0.00
    9   21   13      9.42      0.00
   11   21   13     10.24      0.00
    1   23   13     -9.07      0.00
    3   23   13     -6.24      0.00
    5   23   13    -17.73      0.00
    7   23   13     14.51      0.00
    9   23   13      8.11      0.00
   11   23   13      1.06      0.00
    1   25   13      5.35      0.00
    3   25   13    -10.24      0.00
    5   25   13     -0.45      0.00
    7   25   13      3.55      0.00
    9   25   13     -7.80      0.00
    1   27   13      8.78      0.00
    3   27   13     16.85      0.00
    5   27   13      4.33      0.00
    7   27   13      4.69      0.00
    1   29   13    -10.05      0.00
    3   29   13     -3.37      0.00
    5   29   13     -6.45      0.00
    1   31   13     -4.86      0.00
    0    0   14     30.77      0.00
    2    0   14    -22.12      0.00
    4    0   14      6.12      0.00
    6    0   14      3.62      0.00
    8    0   14     -5.86      0.00
   10    0   14     -4.55      0.00
   12    0   14     21.62      0.00
   14    0   14    -26.61      0.00
   16    0   14      0.56      0.00
    0    2   14    -20.31      0.00
    2    2   14      7.83      0.00
    4    2   14     -8.97      0.00
    6    2   14     -6.26      0.00
    8    2   14     19.94      0.00
   10    2   14     -6.16      0.00
   12    2   14      3.08      0.00
   14    2   14     -7.76      0.00
   16    2   14     11.35      0.00
    0    4   14    -23.96      0.00
    2    4   14    -53.17      0.00
    4    4   14     -2.07      0.00
    6    4   14     -4.81      0.00
    8    4   14      7.33      0.00
   10    4   14      1.00      0.00
   12    4   14      4.34      0.00
   14    4   14     -3.64      0.00
   16    4   14     13.56      0.00
    0    6   14     43.78      0.00
    2    6   14     -9.56      0.00
    4    6   14     18.40      0.00
    6    6   14     -1.68      0.00
    8    6   14      6.34      0.00
   10    6   14      3.07      0.00
   12    6   14      2.22      0.00
   14    6   14      0.75      0.00
   16    6   14     -4.04      0.00
    0    8   14     51.24      0.00
    2    8   14     17.28      0.00
    4    8   14     34.37      0.00
    6    8   14      0.23      0.00
    8    8   14     22.01      0.00
   10    8   14      5.85      0.00
   12    8   14    -18.70      0.00
   14    8   14      7.38      0.00
    0   10   14    -23.05      0.00
    2   10   14    -10.00      0.00
    4   10   14     30.21      0.00
    6   10   14     -8.80      0.00
    8   10   14    -17.45      0.00
   10   10   14     -2.03      0.00
   12   10   14    -12.99      0.00
   14   10   14     -3.13      0.00
    0   12   14     38.48      0.00
    2   12   14     27.59      0.00
    4   12   14      8.34      0.00
    6   12   14      5.49      0.00
    8   12   14      9.48      0.00
   10   12   14      9.35      0.00
   12   12   14    -11.60      0.00
   14   12   14     11.14      0.00
    0   14   14     21.03      0.00
    2   14   14      0.50      0.00
    4   14   14     18.80      0.00
    6   14   14     -3.98      0.00
    8   14   14     -1.76      0.00
   10   14   14     -3.31      0.00
   12   14   14     -3.12      0.00
   14   14   14    -12.27      0.00
    0   16   14      4.02      0.00
    2   16   14     11.56      0.00
    4   16   14    -27.36      0.00
    6   16   14     13.69      0.00
    8   16   14      9.37      0.00
   10   16   14     11.51      0.00
   12   16   14      5.58      0.00
   14   16   14      3.11      0.00
    0   18   14     19.59      0.00
    2   18   14      6.62      0.00
    4   18   14     -7.04      0.00
    6   18   14      8.60      0.00
    8   18   14      3.16      0.00
   10   18   14     21.64      0.00
   12   18   14     -1.61      0.00
    0   20   14    -20.17      0.00
    2   20   14      5.98      0.00
    4   20   14      5.58      0.00
    6   20   14    -19.98      0.00
    8   20   14    -15.88      0.00
   10   20   14     10.88      0.00
   12   20   14     -0.95      0.00
    0   22   14     31.74      0.00
    2   22   14      0.38      0.00
    4   22   14    -12.78      0.00
    6   22   14      4.87      0.00
    8   22   14     17.19      0.00
   10   22   14     -1.38      0.00
    0   24   14      1.48      0.00
    2   24   14    -17.11      0.00
    4   24   14     10.62      0.00
    6   24   14      5.59      0.00
    8   24   14      5.78      0.00
   10   24   14     15.57      0.00
    0   26   14      5.88      0.00
    2   26   14     -1.91      0.00
    4   26   14     -2.40      0.00
    6   26   14      4.10      0.00
    8   26   14      2.27      0.00
    0   28   14      7.64      0.00
    2   28   14      6.34      0.00
    4   28   14      8.90      0.00
    6   28   14      4.64      0.00
    0   30   14      3.24      0.00
    2   30   14     -3.28      0.00
    1    1   15      1.63      0.00
    3    1   15      4.46      0.00
    5    1   15    -10.09      0.00
    7    1   15     -7.74      0.00
    9    1   15     -5.55      0.00
   11    1   15     -6.22      0.00
   13    1   15     -8.31      0.00
   15    1   15    -10.63      0.00
    1    3   15      0.02      0.00
    3    3   15     21.04      0.00
    5    3   15      6.60      0.00
    7    3   15     30.27      0.00
    9    3   15      1.46      0.00
   11    3   15    -16.57      0.00
   13    3   15      4.79      0.00
   15    3   15      9.21      0.00
    1    5   15     26.96      0.00
    3    5   15     16.15      0.00
    5    5   15     16.64      0.00
    7    5   15     -7.03      0.00
    9    5   15     11.36      0.00
   11    5   15      5.95      0.00
   13    5   15      2.03      0.00
   15    5   15    -10.16      0.00
    1    7   15    -12.46      0.00
    3    7   15    -22.29      0.00
    5    7   15     -6.30      0.00
    7    7   15      7.45      0.00
    9    7   15     21.83      0.00
   11    7   15     -8.39      0.00
   13    7   15      9.63      0.00
   15    7   15      4.76      0.00
    1    9   15     -4.86      0.00
    3    9   15     -3.94      0.00
    5    9   15     -3.77      0.00
    7    9   15    -31.35      0.00
    9    9   15      4.98      0.00
   11    9   15    -12.07      0.00
   13    9   15      5.01      0.00
   15    9   15      5.84      0.00
    1   11   15     22.70      0.00
    3   11   15      1.00      0.00
    5   11   15     16.67      0.00
    7   11   15     -0.12      0.00
    9   11   15     11.25      0.00
   11   11   15     -5.62      0.00
   13   11   15     -2.22      0.00
   15   11   15    -13.03      0.00
    1   13   15     -5.63      0.00
    3   13   15     -3.09      0.00
    5   13   15    -18.79      0.00
    7   13   15     -9.12      0.00
    9   13   15     -2.60      0.00
   11   13   15      2.67      0.00
   13   13   15      8.45      0.00
    1   15   15      7.06      0.00
    3   15   15     -3.49      0.00
    5   15   15     -1.26      0.00
    7   15   15     16.83      0.00
    9   15   15     -1.44      0.00
   11   15   15     10.48      0.00
   13   15   15     -9.38      0.00
    1   17   15     -0.13      0.00
    3   17   15    -18.97      0.00
    5   17   15     -1.14      0.00
    7   17   15     -6.92      0.00
    9   17   15    -24.52      0.00
   11   17   15      3.99      0.00
   13   17   15      1.26      0.00
    1   19   15     -1.17      0.00
    3   19   15     18.76      0.00
    5   19   15     -6.06      0.00
    7   19   15     -3.63      0.00
    9   19   15      0.30      0.00
   11   19   15     13.92      0.00
    1   21   15     -3.67      0.00
    3   21   15    -15.00      0.00
    5   21   15     -4.35      0.00
    7   21   15     10.40      0.00
    9   21   15    -19.30      0.00
   11   21   15      6.23      0.00
    1   23   15    -23.46      0.00
    3   23   15    -13.04      0.00
    5   23   15    -10.50      0.00
    7   23   15      7.36      0.00
    9   23   15     -5.47      0.00
    1   25   15      6.60      0.00
    3   25   15     -0.22      0.00
    5   25   15      2.49      0.00
    7   25   15     -4.23      0.00
    9   25   15      0.42      0.00
    1   27   15     -3.61      0.00
    3   27   15    -11.69      0.00
    5   27   15     -1.66      0.00
    7   27   15     -2.44      0.00
    1   29   15    -13.26      0.00
    3   29   15     -8.92      0.00
    0    0   16     30.21      0.00
    2    0   16     15.93      0.00
    4    0   16     33.09      0.00
    6    0   16      7.74      0.00
    8    0   16      6.87      0.00
   10    0   16     15.23      0.00
   12    0   16    -13.15      0.00
   14    0   16     16.76      0.00
    0    2   16      7.91      0.00
    2    2   16     17.40      0.00
    4    2   16     -2.73      0.00
    6    2   16     -0.91      0.00
    8    2   16    -13.99      0.00
   10    2   16    -14.12      0.00
   12    2   16    -20.13      0.00
   14    2   16    -13.73      0.00
    0    4   16    -29.38      0.00
    2    4   16     -6.46      0.00
    4    4   16      3.17      0.00
    6    4   16     -2.99      0.00
    8    4   16    -12.23      0.00
   10    4   16    -13.46      0.00
   12    4   16     -2.43      0.00
   14    4   16     -3.95      0.00
    0    6   16     37.70      0.00
    2    6   16    -10.41      0.00
    4    6   16    -12.34      0.00
    6    6   16     -4.02      0.00
    8    6   16     -7.03      0.00
   10    6   16     -5.86      0.00
   12    6   16    -19.30      0.00
   14    6   16      6.45      0.00
    0    8   16     -1.85      0.00
    2    8   16      1.59      0.00
    4    8   16     -5.44      0.00
    6    8   16     17.31      0.00
    8    8   16     14.30      0.00
   10    8   16     -4.73      0.00
   12    8   16      2.64      0.00
   14    8   16    -12.03      0.00
    0   10   16    -14.42      0.00
    2   10   16    -29.62      0.00
    4   10   16    -26.01      0.00
    6   10   16     -7.40      0.00
    8   10   16     -1.86      0.00
   10   10   16      8.05      0.00
   12   10   16     13.73      0.00
   14   10   16     10.36      0.00
    0   12   16    -34.92      0.00
    2   12   16     -3.94      0.00
    4   12   16    -24.09      0.00
    6   12   16      8.70      0.00
    8   12   16    -10.77      0.00
   10   12   16      1.52      0.00
   12   12   16     10.64      0.00
   14   12   16    -23.08      0.00
    0   14   16    -10.40      0.00
    2   14   16     -3.69      0.00
    4   14   16     -5.16      0.00
    6   14   16      0.80      0.00
    8   14   16    -29.73      0.00
   10   14   16    -20.03      0.00
   12   14   16     -4.29      0.00
   14   14   16    -22.95      0.00
    0   16   16    -18.45      0.00
    2   16   16     18.66      0.00
    4   16   16    -13.06      0.00
    6   16   16     11.29      0.00
    8   16   16    -22.01      0.00
   10   16   16     -3.27      0.00
   12   16   16     27.11      0.00
    0   18   16    -26.32      0.00
    2   18   16      1.21      0.00
    4   18   16     -1.75      0.00
    6   18   16      4.55      0.00
    8   18   16     -9.93      0.00
   10   18   16     10.87      0.00
   12   18   16      8.58      0.00
    0   20   16    -12.74      0.00
    2   20   16      2.97      0.00
    4   20   16    -14.95      0.00
    6   20   16      1.60      0.00
    8   20   16     -0.72      0.00
   10   20   16    -25.19      0.00
    0   22   16     -1.07      0.00
    2   22   16    -19.24      0.00
    4   22   16    -10.73      0.00
    6   22   16     12.23      0.00
    8   22   16      0.46      0.00
   10   22   16    -30.26      0.00
    0   24   16     -0.83      0.00
    2   24   16      2.18      0.00
    4   24   16      1.89      0.00
    6   24   16     -6.19      0.00
    8   24   16     -3.26      0.00
    0   26   16    -15.07      0.00
    2   26   16     -6.98      0.00
    4   26   16    -16.98      0.00
    6   26   16      4.78      0.00
    0   28   16     -5.75      0.00
    2   28   16     -9.47      0.00
    4   28   16     -2.45      0.00
    1    1   17      0.93      0.00
    3    1   17     -2.04      0.00
    5    1   17     11.61      0.00
    7    1   17     -2.27      0.00
    9    1   17      7.30      0.00
   11    1   17    -11.57      0.00
   13    1   17    -24.27      0.00
   15    1   17     -4.79      0.00
    1    3   17    -15.58      0.00
    3    3   17      4.01      0.00
    5    3   17     -3.30      0.00
    7    3   17    -26.31      0.00
    9    3   17    -12.36      0.00
   11    3   17     -2.90      0.00
   13    3   17     -2.56      0.00
   15    3   17      2.08      0.00
    1    5   17      7.27      0.00
    3    5   17     -0.91      0.00
    5    5   17      3.88      0.00
    7    5   17     -6.50      0.00
    9    5   17     -8.40      0.00
   11    5   17    -19.53      0.00
   13    5   17     -2.14      0.00
   15    5   17     -9.92      0.00
    1    7   17      3.86      0.00
    3    7   17      0.18      0.00
    5    7   17     12.93      0.00
    7    7   17     13.52      0.00
    9    7   17      6.18      0.00
   11    7   17    -29.59      0.00
   13    7   17    -22.46      0.00
   15    7   17      3.39      0.00
    1    9   17     12.06      0.00
    3    9   17     -3.82      0.00
    5    9   17    -10.45      0.00
    7    9   17     12.81      0.00
    9    9   17      5.82      0.00
   11    9   17     -4.60      0.00
   13    9   17     -3.36      0.00
    1   11   17     -2.29      0.00
    3   11   17    -10.88      0.00
    5   11   17     15.33      0.00
    7   11   17     -8.20      0.00
    9   11   17     -4.22      0.00
   11   11   17      4.93      0.00
   13   11   17     -1.14      0.00
    1   13   17     -3.30      0.00
    3   13   17     29.69      0.00
    5   13   17     10.15      0.00
    7   13   17      1.47      0.00
    9   13   17     -8.38      0.00
   11   13   17      1.24      0.00
   13   13   17     -9.91      0.00
    1   15   17      2.64      0.00
    3   15   17     -1.12      0.00
    5   15   17     -4.09      0.00
    7   15   17    -14.84      0.00
    9   15   17    -16.03      0.00
   11   15   17     14.48      0.00
   13   15   17     -4.46      0.00
    1   17   17    -11.46      0.00
    3   17   17      1.68      0.00
    5   17   17     13.85      0.00
    7   17   17    -12.89      0.00
    9   17   17      1.10      0.00
   11   17   17      8.18      0.00
    1   19   17     17.71      0.00
    3   19   17      1.50      0.00
    5   19   17     -0.68      0.00
    7   19   17     -2.25      0.00
    9   19   17     17.49      0.00
   11   19   17     -4.20      0.00
    1   21   17     -4.24      0.00
    3   21   17    -34.70      0.00
    5   21   17      2.88      0.00
    7   21   17      8.67      0.00
    9   21   17      5.26      0.00
    1   23   17     -1.33      0.00
    3   23   17     -7.24      0.00
    5   23   17     18.46      0.00
    7   23   17      2.28      0.00
    9   23   17      0.21      0.00
    1   25   17     22.85      0.00
    3   25   17      7.15      0.00
    5   25   17     13.07      0.00
    7   25   17      7.98      0.00
    1   27   17     -3.77      0.00
    3   27   17     -0.45      0.00
    5   27   17      3.88      0.00
    1   29   17    -11.13      0.00
    0    0   18    -43.02      0.00
    2    0   18     -7.58      0.00
    4    0   18    -31.34      0.00
    6    0   18    -32.57      0.00
    8    0   18     -5.15      0.00
   10    0   18     -7.05      0.00
   12    0   18     -9.47      0.00
    0    2   18     -8.51      0.00
    2    2   18     -2.03      0.00
    4    2   18     -5.71      0.00
    6    2   18     13.62      0.00
    8    2   18     -5.50      0.00
   10    2   18      6.11      0.00
   12    2   18      0.78      0.00
    0    4   18    -11.89      0.00
    2    4   18     51.04      0.00
    4    4   18     27.42      0.00
    6    4   18      9.72      0.00
    8    4   18     -0.94      0.00
   10    4   18     14.57      0.00
   12    4   18      8.25      0.00
    0    6   18    -16.82      0.00
    2    6   18    -16.98      0.00
    4    6   18    -24.32      0.00
    6    6   18     -3.34      0.00
    8    6   18    -14.64      0.00
   10    6   18     -7.89      0.00
   12    6   18    -36.81      0.00
    0    8   18    -14.23      0.00
    2    8   18     34.31      0.00
    4    8   18     -7.90      0.00
    6    8   18      8.80      0.00
    8    8   18      8.69      0.00
   10    8   18    -11.56      0.00
   12    8   18     -5.33      0.00
    0   10   18     26.09      0.00
    2   10   18     30.77      0.00
    4   10   18     16.55      0.00
    6   10   18     20.39      0.00
    8   10   18     -0.53      0.00
   10   10   18     14.16      0.00
   12   10   18    -11.94      0.00
    0   12   18    -10.30      0.00
    2   12   18     13.78      0.00
    4   12   18     -7.17      0.00
    6   12   18     -1.99      0.00
    8   12   18    -11.31      0.00
   10   12   18     -3.95      0.00
   12   12   18     -4.66      0.00
    0   14   18     -5.95      0.00
    2   14   18      8.29      0.00
    4   14   18      4.41      0.00
    6   14   18     -0.65      0.00
    8   14   18    -12.32      0.00
   10   14   18      9.45      0.00
    0   16   18     15.95      0.00
    2   16   18     12.42      0.00
    4   16   18     12.21      0.00
    6   16   18      0.32      0.00
    8   16   18     -6.82      0.00
   10   16   18      2.41      0.00
    0   18   18    -13.68      0.00
    2   18   18    -12.94      0.00
    4   18   18    -18.49      0.00
    6   18   18    -13.54      0.00
    8   18   18     20.25      0.00
   10   18   18     21.61      0.00
    0   20   18     12.50      0.00
    2   20   18     -8.26      0.00
    4   20   18     -2.69      0.00
    6   20   18     -0.26      0.00
    8   20   18      9.90      0.00
   10   20   18      2.98      0.00
    0   22   18     18.56      0.00
    2   22   18     -6.14      0.00
    4   22   18      4.76      0.00
    6   22   18     10.33      0.00
    8   22   18     18.13      0.00
    0   24   18    -11.62      0.00
    2   24   18     -7.93      0.00
    4   24   18      4.93      0.00
    6   24   18     -2.69      0.00
    8   24   18      1.61      0.00
    0   26   18      1.86      0.00
    2   26   18     13.83      0.00
    4   26   18      3.34      0.00
    6   26   18     10.05      0.00
    0   28   18      7.60      0.00
    2   28   18      0.94      0.00
    1    1   19     18.34      0.00
    3    1   19     19.81      0.00
    5    1   19      3.50      0.00
    7    1   19     18.49      0.00
    9    1   19     -2.36      0.00
   11    1   19     24.08      0.00
   13    1   19      3.00      0.00
    1    3   19     -1.29      0.00
    3    3   19     -8.71      0.00
    5    3   19    -11.68      0.00
    7    3   19    -16.12      0.00
    9    3   19    -15.55      0.00
   11    3   19     -4.60      0.00
   13    3   19     -1.21      0.00
    1    5   19    -19.58      0.00
    3    5   19     -8.17      0.00
    5    5   19      0.11      0.00
    7    5   19      4.53      0.00
    9    5   19    -12.38      0.00
   11    5   19      4.99      0.00
   13    5   19      8.78      0.00
    1    7   19     25.15      0.00
    3    7   19     17.00      0.00
    5    7   19     14.15      0.00
    7    7   19      4.34      0.00
    9    7   19     13.54      0.00
   11    7   19      7.81      0.00
    1    9   19     -9.92      0.00
    3    9   19     -8.56      0.00
    5    9   19    -18.43      0.00
    7    9   19     10.11      0.00
    9    9   19    -18.91      0.00
   11    9   19     -1.81      0.00
    1   11   19     -8.18      0.00
    3   11   19    -20.64      0.00
    5   11   19      8.53      0.00
    7   11   19    -15.93      0.00
    9   11   19     -3.77      0.00
   11   11   19      1.47      0.00
    1   13   19      8.23      0.00
    3   13   19     -1.79      0.00
    5   13   19     -7.46      0.00
    7   13   19      8.54      0.00
    9   13   19     -5.47      0.00
   11   13   19     -3.15      0.00
    1   15   19     -6.28      0.00
    3   15   19     -6.61      0.00
    5   15   19     -3.96      0.00
    7   15   19    -21.48      0.00
    9   15   19     -8.73      0.00
    1   17   19      0.80      0.00
    3   17   19    -11.18      0.00
    5   17   19      4.19      0.00
    7   17   19     -0.16      0.00
    9   17   19      8.28      0.00
    1   19   19     -2.22      0.00
    3   19   19     -0.24      0.00
    5   19   19      6.17      0.00
    7   19   19      1.19      0.00
    9   19   19     20.36      0.00
    1   21   19     -8.09      0.00
    3   21   19     -6.44      0.00
    5   21   19    -13.60      0.00
    7   21   19     -7.43      0.00
    9   21   19     -9.56      0.00
    1   23   19    -22.13      0.00
    3   23   19      1.24      0.00
    5   23   19     -7.46      0.00
    7   23   19      8.03      0.00
    1   25   19      7.99      0.00
    3   25   19     21.72      0.00
    5   25   19     -2.85      0.00
    1   27   19     -0.77      0.00
    3   27   19     -3.77      0.00
    0    0   20     19.42      0.00
    2    0   20     39.36      0.00
    4    0   20     17.58      0.00
    6    0   20    -20.51      0.00
    8    0   20      8.66      0.00
   10    0   20    -13.50      0.00
   12    0   20     14.76      0.00
    0    2   20      8.27      0.00
    2    2   20    -11.29      0.00
    4    2   20      5.54      0.00
    6    2   20      0.48      0.00
    8    2   20     11.34      0.00
   10    2   20    -14.24      0.00
   12    2   20     16.41      0.00
    0    4   20      5.86      0.00
    2    4   20     13.29      0.00
    4    4   20      9.73      0.00
    6    4   20     10.21      0.00
    8    4   20     10.66      0.00
   10    4   20     -6.88      0.00
   12    4   20     20.26      0.00
    0    6   20     18.07      0.00
    2    6   20     -5.02      0.00
    4    6   20      3.93      0.00
    6    6   20     -0.92      0.00
    8    6   20      5.40      0.00
   10    6   20      7.80      0.00
   12    6   20     -1.95      0.00
    0    8   20    -26.09      0.00
    2    8   20    -19.66      0.00
    4    8   20    -18.48      0.00
    6    8   20    -14.34      0.00
    8    8   20     -3.47      0.00
   10    8   20    -29.36      0.00
   12    8   20      6.60      0.00
    0   10   20      1.42      0.00
    2   10   20    -11.61      0.00
    4   10   20      5.49      0.00
    6   10   20     10.00      0.00
    8   10   20     10.54      0.00
   10   10   20      8.44      0.00
    0   12   20     13.66      0.00
    2   12   20      0.78      0.00
    4   12   20     -4.87      0.00
    6   12   20     -4.20      0.00
    8   12   20     11.08      0.00
   10   12   20     11.42      0.00
    0   14   20    -16.42      0.00
    2   14   20    -14.59      0.00
    4   14   20     -5.73      0.00
    6   14   20      4.67      0.00
    8   14   20    -14.31      0.00
   10   14   20     -6.58      0.00
    0   16   20     11.68      0.00
    2   16   20    -11.01      0.00
    4   16   20      7.91      0.00
    6   16   20    -10.09      0.00
    8   16   20    -20.99      0.00
   10   16   20     -3.62      0.00
    0   18   20      2.86      0.00
    2   18   20      8.46      0.00
    4   18   20      5.10      0.00
    6   18   20     -5.30      0.00
    8   18   20      8.51      0.00
   10   18   20    -12.64      0.00
    0   20   20     -6.50      0.00
    2   20   20     -3.85      0.00
    4   20   20      0.57      0.00
    6   20   20      7.63      0.00
    8   20   20     -7.76      0.00
   10   20   20      0.64      0.00
    0   22   20    -19.35      0.00
    2   22   20      7.49      0.00
    4   22   20      2.22      0.00
    6   22   20      5.14      0.00
    8   22   20      0.93      0.00
    0   24   20     -0.96      0.00
    2   24   20     36.09      0.00
    4   24   20      0.20      0.00
    6   24   20    -18.37      0.00
    0   26   20    -30.51      0.00
    2   26   20      5.01      0.00
    4   26   20    -15.17      0.00
    1    1   21     -0.91      0.00
    3    1   21     15.83      0.00
    5    1   21     -3.06      0.00
    7    1   21      4.36      0.00
    9    1   21     10.63      0.00
   11    1   21      8.20      0.00
    1    3   21     -1.93      0.00
    3    3   21     -4.89      0.00
    5    3   21      1.37      0.00
    7    3   21     -0.83      0.00
    9    3   21      1.80      0.00
   11    3   21    -12.08      0.00
    1    5   21     -8.69      0.00
    3    5   21     -9.38      0.00
    5    5   21    -10.23      0.00
    7    5   21      5.36      0.00
    9    5   21      5.90      0.00
   11    5   21     -3.35      0.00
    1    7   21     18.97      0.00
    3    7   21      9.41      0.00
    5    7   21     18.54      0.00
    7    7   21    -10.51      0.00
    9    7   21      6.60      0.00
   11    7   21    -13.08      0.00
    1    9   21     15.12      0.00
    3    9   21      3.40      0.00
    5    9   21      7.06      0.00
    7    9   21     23.64      0.00
    9    9   21     19.47      0.00
   11    9   21    -13.61      0.00
    1   11   21    -13.18      0.00
    3   11   21    -12.97      0.00
    5   11   21     -6.80      0.00
    7   11   21    -14.55      0.00
    9   11   21     22.54      0.00
   11   11   21      3.69      0.00
    1   13   21      7.93      0.00
    3   13   21      9.56      0.00
    5   13   21      9.19      0.00
    7   13   21     -2.55      0.00
    9   13   21      7.34      0.00
   11   13   21     12.19      0.00
    1   15   21      7.09      0.00
    3   15   21     16.55      0.00
    5   15   21      2.75      0.00
    7   15   21     -5.03      0.00
    9   15   21    -14.95      0.00
   11   15   21      8.34      0.00
    1   17   21     -2.35      0.00
    3   17   21     -2.50      0.00
    5   17   21      1.16      0.00
    7   17   21     -3.72      0.00
    9   17   21      2.34      0.00
    1   19   21     -2.44      0.00
    3   19   21     -3.58      0.00
    5   19   21     -3.68      0.00
    7   19   21     -3.56      0.00
    9   19   21     -4.88      0.00
    1   21   21     11.73      0.00
    3   21   21      9.26      0.00
    5   21   21      7.94      0.00
    7   21   21      3.66      0.00
    1   23   21      6.17      0.00
    3   23   21     12.58      0.00
    5   23   21      0.36      0.00
    7   23   21      0.91      0.00
    1   25   21      9.29      0.00
    3   25   21     16.49      0.00
    5   25   21    -13.50      0.00
    0    0   22    -12.79      0.00
    2    0   22    -25.82      0.00
    4    0   22    -21.68      0.00
    6    0   22     -5.77      0.00
    8    0   22     16.83      0.00
   10    0   22     -4.77      0.00
   12    0   22     20.85      0.00
    0    2   22    -20.75      0.00
    2    2   22     -4.54      0.00
    4    2   22      7.84      0.00
    6    2   22    -10.77      0.00
    8    2   22      9.20      0.00
   10    2   22     -2.90      0.00
   12    2   22      7.66      0.00
    0    4   22     20.60      0.00
    2    4   22     14.53      0.00
    4    4   22     -9.04      0.00
    6    4   22      1.36      0.00
    8    4   22      3.18      0.00
   10    4   22      3.51      0.00
   12    4   22     14.69      0.00
    0    6   22     -8.78      0.00
    2    6   22      4.14      0.00
    4    6   22     -4.11      0.00
    6    6   22      6.17      0.00
    8    6   22     -3.12      0.00
   10    6   22     -9.89      0.00
   12    6   22    -25.95      0.00
    0    8   22      6.14      0.00
    2    8   22     -8.65      0.00
    4    8   22      0.15      0.00
    6    8   22      4.95      0.00
    8    8   22      0.27      0.00
   10    8   22      9.01      0.00
   12    8   22      9.21      0.00
    0   10   22     19.61      0.00
    2   10   22      7.16      0.00
    4   10   22     -1.89      0.00
    6   10   22      6.60      0.00
    8   10   22     13.94      0.00
   10   10   22      2.52      0.00
    0   12   22      4.17      0.00
    2   12   22      9.05      0.00
    4   12   22      8.95      0.00
    6   12   22    -16.31      0.00
    8   12   22     -1.82      0.00
   10   12   22     18.81      0.00
    0   14   22     -8.49      0.00
    2   14   22     -6.78      0.00
    4   14   22      6.19      0.00
    6   14   22      4.02      0.00
    8   14   22    -12.77      0.00
   10   14   22      3.21      0.00
    0   16   22      0.68      0.00
    2   16   22    -11.71      0.00
    4   16   22      3.61      0.00
    6   16   22     -7.66      0.00
    8   16   22     -4.85      0.00
   10   16   22     14.57      0.00
    0   18   22      3.92      0.00
    2   18   22     -3.67      0.00
    4   18   22      5.33      0.00
    6   18   22    -18.52      0.00
    8   18   22     17.05      0.00
   10   18   22    -15.91      0.00
    0   20   22      6.15      0.00
    2   20   22     -4.54      0.00
    4   20   22     -3.09      0.00
    6   20   22      7.26      0.00
    8   20   22     -4.48      0.00
    0   22   22     -5.58      0.00
    2   22   22    -12.48      0.00
    4   22   22     -3.78      0.00
    6   22   22    -10.89      0.00
    0   24   22     11.55      0.00
    2   24   22     14.36      0.00
    4   24   22      4.36      0.00
    1    1   23      2.43      0.00
    3    1   23      0.59      0.00
    5    1   23      8.27      0.00
    7    1   23     17.60      0.00
    9    1   23      1.77      0.00
   11    1   23      4.55      0.00
    1    3   23     -2.77      0.00
    3    3   23     -4.72      0.00
    5    3   23    -10.21      0.00
    7    3   23      2.46      0.00
    9    3   23     11.44      0.00
   11    3   23     10.66      0.00
    1    5   23      8.83      0.00
    3    5   23     -5.43      0.00
    5    5   23    -26.37      0.00
    7    5   23    -10.11      0.00
    9    5   23    -15.72      0.00
   11    5   23    -16.49      0.00
   13    5   23    -15.65      0.00
    1    7   23     -7.31      0.00
    3    7   23     -1.46      0.00
    5    7   23     25.96      0.00
    7    7   23      9.49      0.00
    9    7   23     -6.02      0.00
   11    7   23     19.36      0.00
    1    9   23      2.86      0.00
    3    9   23     -2.02      0.00
    5    9   23    -11.11      0.00
    7    9   23     -1.00      0.00
    9    9   23      0.47      0.00
   11    9   23     18.37      0.00
    1   11   23     -1.18      0.00
    3   11   23     -2.95      0.00
    5   11   23     -4.83      0.00
    7   11   23     19.46      0.00
    9   11   23    -14.65      0.00
   11   11   23     20.43      0.00
    1   13   23     -2.02      0.00
    3   13   23      3.20      0.00
    5   13   23      8.49      0.00
    7   13   23    -10.60      0.00
    9   13   23     -0.54      0.00
   11   13   23     16.17      0.00
    1   15   23    -13.65      0.00
    3   15   23     -3.34      0.00
    5   15   23    -16.13      0.00
    7   15   23     -6.92      0.00
    9   15   23    -23.21      0.00
    1   17   23    -11.84      0.00
    3   17   23     -6.18      0.00
    5   17   23      0.96      0.00
    7   17   23      2.71      0.00
    9   17   23     25.84      0.00
    1   19   23     -8.81      0.00
    3   19   23     -3.38      0.00
    5   19   23     -8.13      0.00
    7   19   23     -1.80      0.00
    1   21   23      5.66      0.00
    3   21   23      9.66      0.00
    5   21   23      1.26      0.00
    7   21   23     -0.20      0.00
    1   23   23     -6.12      0.00
    3   23   23     -6.14      0.00
    5   23   23     -6.12      0.00
    1   25   23    -10.00      0.00
    0    0   24      5.66      0.00
    2    0   24     -2.65      0.00
    4    0   24      5.51      0.00
    6    0   24     -4.04      0.00
    8    0   24     -1.75      0.00
   10    0   24     -2.59      0.00
   12    0   24     20.98      0.00
    0    2   24      6.54      0.00
    2    2   24     13.95      0.00
    4    2   24      5.83      0.00
    6    2   24     -1.91      0.00
    8    2   24     26.62      0.00
   10    2   24     -6.32      0.00
   12    2   24    -24.57      0.00
    0    4   24      1.58      0.00
    2    4   24      4.02      0.00
    4    4   24     -9.13      0.00
    6    4   24     -5.17      0.00
    8    4   24      9.09      0.00
   10    4   24      2.22      0.00
   12    4   24      0.74      0.00
    0    6   24     -4.65      0.00
    2    6   24     15.67      0.00
    4    6   24     -8.97      0.00
    6    6   24    -13.26      0.00
    8    6   24     -3.64      0.00
   10    6   24     10.39      0.00
   12    6   24      0.00      0.00
    0    8   24     15.76      0.00
    2    8   24     -0.88      0.00
    4    8   24     17.51      0.00
    6    8   24      2.92      0.00
    8    8   24     -5.25      0.00
   10    8   24      8.99      0.00
   12    8   24     -3.07      0.00
    0   10   24    -13.58      0.00
    2   10   24     -0.76      0.00
    4   10   24     -0.34      0.00
    6   10   24      2.07      0.00
    8   10   24     -1.90      0.00
   10   10   24      5.34      0.00
    0   12   24      2.65      0.00
    2   12   24      0.89      0.00
    4   12   24      0.67      0.00
    6   12   24      9.85      0.00
    8   12   24     -2.06      0.00
   10   12   24     -3.07      0.00
    0   14   24      0.11      0.00
    2   14   24     -2.78      0.00
    4   14   24    -13.45      0.00
    6   14   24      3.68      0.00
    8   14   24     -8.77      0.00
   10   14   24     34.28      0.00
    0   16   24     -0.32      0.00
    2   16   24      6.34      0.00
    4   16   24      8.17      0.00
    6   16   24      2.42      0.00
    8   16   24     -8.52      0.00
    0   18   24     -4.02      0.00
    2   18   24    -13.74      0.00
    4   18   24     -0.37      0.00
    6   18   24     -7.62      0.00
    8   18   24     18.02      0.00
    0   20   24      7.10      0.00
    2   20   24      0.14      0.00
    4   20   24     -5.56      0.00
    6   20   24      0.68      0.00
    0   22   24      6.35      0.00
    2   22   24      3.81      0.00
    4   22   24     11.52      0.00
    0   24   24      8.03      0.00
    1    1   25     -6.02      0.00
    3    1   25      4.37      0.00
    5    1   25     -0.75      0.00
    7    1   25    -23.42      0.00
    9    1   25      0.00      0.00
   11    1   25    -19.24      0.00
    1    3   25      1.45      0.00
    3    3   25     -1.67      0.00
    5    3   25    -22.20      0.00
    7    3   25     -1.17      0.00
    9    3   25     11.83      0.00
   11    3   25      1.89      0.00
    1    5   25      8.46      0.00
    3    5   25     13.27      0.00
    5    5   25     -3.01      0.00
    7    5   25      4.46      0.00
    9    5   25     -1.00      0.00
   11    5   25      3.99      0.00
    1    7   25     11.88      0.00
    3    7   25      8.13      0.00
    5    7   25      0.59      0.00
    7    7   25      0.35      0.00
    9    7   25     -4.21      0.00
   11    7   25     13.57      0.00
    1    9   25      0.20      0.00
    3    9   25     14.52      0.00
    5    9   25     -9.52      0.00
    7    9   25    -13.17      0.00
    9    9   25     -9.29      0.00
   11    9   25     -2.22      0.00
    1   11   25     -0.82      0.00
    3   11   25     -0.33      0.00
    5   11   25     10.69      0.00
    7   11   25     13.59      0.00
    9   11   25     -9.43      0.00
   11   11   25     13.18      0.00
    1   13   25     -5.12      0.00
    3   13   25    -10.44      0.00
    5   13   25      3.83      0.00
    7   13   25     -9.32      0.00
    9   13   25     15.28      0.00
    1   15   25      9.39      0.00
    3   15   25      1.50      0.00
    5   15   25     -0.56      0.00
    7   15   25      4.34      0.00
    9   15   25     -0.14      0.00
    1   17   25      2.44      0.00
    3   17   25     -0.34      0.00
    5   17   25      0.21      0.00
    7   17   25    -11.04      0.00
    1   19   25      2.10      0.00
    3   19   25     -9.66      0.00
    5   19   25      7.05      0.00
    7   19   25     16.66      0.00
    1   21   25      6.57      0.00
    3   21   25     -4.15      0.00
    5   21   25      4.58      0.00
    1   23   25     13.75      0.00
    0    0   26     -7.07      0.00
    2    0   26      5.73      0.00
    4    0   26      6.61      0.00
    6    0   26    -44.91      0.00
    8    0   26    -21.38      0.00
   10    0   26     12.29      0.00
    0    2   26      6.50      0.00
    2    2   26     -8.63      0.00
    4    2   26      5.98      0.00
    6    2   26     -7.54      0.00
    8    2   26     -4.76      0.00
   10    2   26     -5.07      0.00
    0    4   26    -17.56      0.00
    2    4   26    -15.77      0.00
    4    4   26    -16.35      0.00
    6    4   26    -11.80      0.00
    8    4   26    -13.78      0.00
   10    4   26     -7.88      0.00
    0    6   26     14.34      0.00
    2    6   26      2.97      0.00
    4    6   26     -0.23      0.00
    6    6   26      0.40      0.00
    8    6   26      4.01      0.00
   10    6   26      8.24      0.00
    0    8   26     29.71      0.00
    2    8   26     -1.57      0.00
    4    8   26     17.67      0.00
    6    8   26      6.75      0.00
    8    8   26     -5.82      0.00
   10    8   26    -20.38      0.00
    0   10   26      1.01      0.00
    2   10   26    -16.70      0.00
    4   10   26     -1.59      0.00
    6   10   26     -4.65      0.00
    8   10   26     -1.73      0.00
   10   10   26      3.61      0.00
    0   12   26     -0.05      0.00
    2   12   26    -21.81      0.00
    4   12   26     -2.37      0.00
    6   12   26    -13.42      0.00
    8   12   26     -4.98      0.00
   10   12   26    -26.22      0.00
    0   14   26      2.49      0.00
    2   14   26     -4.57      0.00
    4   14   26      1.19      0.00
    6   14   26     10.93      0.00
    8   14   26     -5.90      0.00
    0   16   26      1.53      0.00
    2   16   26     -1.57      0.00
    4   16   26      2.85      0.00
    6   16   26     -1.53      0.00
    8   16   26     18.58      0.00
    0   18   26     -3.78      0.00
    2   18   26      0.20      0.00
    4   18   26      2.18      0.00
    6   18   26      2.43      0.00
    0   20   26      4.02      0.00
    2   20   26     -4.91      0.00
    4   20   26     -4.86      0.00
    0   22   26      0.12      0.00
    1    1   27     -7.74      0.00
    3    1   27      1.76      0.00
    5    1   27    -19.47      0.00
    7    1   27    -18.91      0.00
    9    1   27      0.52      0.00
   11    1   27    -11.41      0.00
    1    3   27      3.53      0.00
    3    3   27     21.35      0.00
    5    3   27     -0.45      0.00
    7    3   27     16.42      0.00
    9    3   27      4.11      0.00
   11    3   27      8.90      0.00
    1    5   27     -3.68      0.00
    3    5   27    -17.14      0.00
    5    5   27     -5.48      0.00
    7    5   27     13.20      0.00
    9    5   27      2.93      0.00
    1    7   27    -12.96      0.00
    3    7   27     -9.07      0.00
    5    7   27     -6.46      0.00
    7    7   27    -10.56      0.00
    9    7   27    -12.00      0.00
    1    9   27      5.10      0.00
    3    9   27     -5.42      0.00
    5    9   27     -0.93      0.00
    7    9   27     13.11      0.00
    9    9   27     -5.91      0.00
    1   11   27     11.00      0.00
    3   11   27     -4.82      0.00
    5   11   27     13.38      0.00
    7   11   27      6.24      0.00
    9   11   27     -3.79      0.00
    1   13   27     -7.10      0.00
    3   13   27    -19.32      0.00
    5   13   27     -8.07      0.00
    7   13   27    -16.72      0.00
    1   15   27     -4.72      0.00
    3   15   27     -5.84      0.00
    5   15   27     20.53      0.00
    7   15   27     19.50      0.00
    1   17   27     -1.65      0.00
    3   17   27      1.33      0.00
    5   17   27     -3.42      0.00
    1   19   27     11.34      0.00
    3   19   27      6.04      0.00
    0    0   28      8.63      0.00
    2    0   28     32.34      0.00
    4    0   28     13.27      0.00
    6    0   28      2.86      0.00
    8    0   28     12.68      0.00
   10    0   28     19.49      0.00
    0    2   28     -3.84      0.00
    2    2   28    -12.69      0.00
    4    2   28     -3.48      0.00
    6    2   28      5.01      0.00
    8    2   28     -6.40      0.00
   10    2   28     11.38      0.00
    0    4   28    -22.75      0.00
    2    4   28      0.38      0.00
    4    4   28    -19.74      0.00
    6    4   28     -2.95      0.00
    8    4   28      8.52      0.00
   10    4   28      3.32      0.00
    0    6   28     11.97      0.00
    2    6   28     17.15      0.00
    4    6   28     11.78      0.00
    6    6   28      6.13      0.00
    8    6   28      8.51      0.00
   10    6   28     12.85      0.00
    0    8   28     -7.63      0.00
    2    8   28      3.72      0.00
    4    8   28     -1.29      0.00
    6    8   28      4.88      0.00
    8    8   28     -8.39      0.00
    0   10   28     -1.05      0.00
    2   10   28     11.65      0.00
    4   10   28    -15.74      0.00
    6   10   28      2.92      0.00
    8   10   28     -0.14      0.00
    0   12   28     -0.94      0.00
    2   12   28      2.25      0.00
    4   12   28     -2.88      0.00
    6   12   28     10.06      0.00
    8   12   28     10.50      0.00
    0   14   28      2.74      0.00
    2   14   28      4.25      0.00
    4   14   28     -6.71      0.00
    6   14   28      8.94      0.00
    0   16   28     -5.57      0.00
    2   16   28     -1.49      0.00
    4   16   28     11.82      0.00
    6   16   28     -5.69      0.00
    0   18   28     -5.17      0.00
    2   18   28      3.02      0.00
    4   18   28     -3.62      0.00
    1    1   29     -3.95      0.00
    3    1   29    -14.36      0.00
    5    1   29     -0.23      0.00
    7    1   29     -2.99      0.00
    9    1   29     -3.05      0.00
    1    3   29     17.13      0.00
    3    3   29     25.84      0.00
    5    3   29      8.28      0.00
    7    3   29     18.40      0.00
    9    3   29      4.57      0.00
    1    5   29     -0.17      0.00
    3    5   29    -12.02      0.00
    5    5   29     -2.17      0.00
    7    5   29     -2.73      0.00
    9    5   29      9.96      0.00
    1    7   29     17.51      0.00
    3    7   29     17.18      0.00
    5    7   29      8.24      0.00
    7    7   29    -13.55      0.00
    9    7   29      5.27      0.00
    1    9   29     -0.10      0.00
    3    9   29     -0.74      0.00
    5    9   29      1.70      0.00
    7    9   29      5.31      0.00
    1   11   29     -1.83      0.00
    3   11   29     -9.29      0.00
    5   11   29      2.66      0.00
    7   11   29      2.16      0.00
    1   13   29      6.18      0.00
    3   13   29     -4.92      0.00
    5   13   29      2.02      0.00
    1   15   29    -12.24      0.00
    3   15   29      5.06      0.00
    5   15   29      2.40      0.00
    1   17   29     -4.25      0.00
    3   17   29      6.34      0.00
    2    0   30     -7.96      0.00
    4    0   30     12.67      0.00
    6    0   30      1.45      0.00
    8    0   30     -0.92      0.00
    2    2   30      3.44      0.00
    4    2   30     10.78      0.00
    6    2   30      3.55      0.00
    8    2   30     -8.06      0.00
    2    4   30      6.18      0.00
    4    4   30     -2.11      0.00
    6    4   30     -4.19      0.00
    8    4   30     10.41      0.00
    0    6   30     13.24      0.00
    2    6   30    -10.45      0.00
    4    6   30      2.15      0.00
    6    6   30     -1.68      0.00
    8    6   30     -2.45      0.00
    0    8   30     15.62      0.00
    2    8   30     -4.70      0.00
    4    8   30      4.36      0.00
    6    8   30      6.97      0.00
    0   10   30     14.29      0.00
    2   10   30     -4.10      0.00
    4   10   30     -6.38      0.00
    6   10   30      4.91      0.00
    0   12   30     -8.53      0.00
    2   12   30    -17.11      0.00
    4   12   30     -6.15      0.00
    6   12   30     13.52      0.00
    0   14   30      0.93      0.00
    2   14   30     -1.55      0.00
    4   14   30     -8.59      0.00
    0   16   30    -20.52      0.00
    2   16   30     -0.73      0.00
    1    1   31     26.62      0.00
    3    1   31      7.78      0.00
    5    1   31      9.64      0.00
    7    1   31    -20.88      0.00
    1    3   31     -0.41      0.00
    3    3   31     -1.36      0.00
    5    3   31     -9.46      0.00
    7    3   31      4.24      0.00
    1    5   31      2.24      0.00
    3    5   31      6.41      0.00
    5    5   31      4.57      0.00
    7    5   31     -7.33      0.00
    1    7   31     -0.78      0.00
    3    7   31     -9.55      0.00
    5    7   31    -12.10      0.00
    7    7   31      7.81      0.00
    1    9   31     -8.71      0.00
    3    9   31     -2.76      0.00
    5    9   31     -3.58      0.00
    1   11   31      0.18      0.00
    3   11   31    -10.07      0.00
    5   11   31     -6.33      0.00
    1   13   31      5.05      0.00
    3   13   31     -2.54      0.00
    2    0   32    -12.99      0.00
    4    0   32      3.30      0.00
    6    0   32    -34.15      0.00
    2    2   32      0.32      0.00
    4    2   32     15.06      0.00
    6    2   32     -3.37      0.00
    2    4   32      1.70      0.00
    4    4   32      9.72      0.00
    6    4   32     -2.63      0.00
    2    6   32     -2.45      0.00
    4    6   32     -8.77      0.00
    2    8   32      0.71      0.00
    4    8   32      6.45      0.00
    2   10   32     -5.50      0.00
    4   10   32     -2.52      0.00
    2   12   32     -0.23      0.00
    3    1   33      1.82      0.00
    5    1   33      8.75      0.00
    3    3   33     -2.34      0.00
    5    3   33      1.33      0.00
    3    5   33     14.40      0.00
    3    7   33      0.24      0.00
    2    0   34     -2.60      0.00
    2    2   34     17.96      0.00
    2    4   34     20.83      0.00
    0    2    0    -25.48      0.00
    0    4    0    166.88      0.00
   18    4    0      6.28      0.00
    0    6    0    162.51      0.00
   18    6    0     -0.56      0.00
    0    8    0    -98.60      0.00
   18    8    0     -3.23      0.00
   18   10    0     -0.44      0.00
   18   12    0     -6.18      0.00
   18   14    0     -2.06      0.00
   16   16    0      7.88      0.00
   18   16    0      0.04      0.00
   16   18    0      0.04      0.00
   18   18    0      1.07      0.00
   16   20    0     -4.25      0.00
   18   20    0      2.38      0.00
   14   22    0    -11.69      0.00
   16   22    0     -0.23      0.00
   18   22    0     -0.51      0.00
   14   24    0      1.51      0.00
   16   24    0      1.70      0.00
   18   24    0     -4.05      0.00
   12   26    0     -0.72      0.00
   14   26    0      4.96      0.00
   16   26    0     -0.28      0.00
   18   26    0     -0.32      0.00
   10   28    0      0.55      0.00
   12   28    0     -0.48      0.00
   14   28    0      4.64      0.00
   16   28    0     -0.82      0.00
   18   28    0      3.43      0.00
   10   30    0     -1.80      0.00
   12   30    0      2.10      0.00
   14   30    0     -1.33      0.00
   16   30    0     -1.53      0.00
    6   32    0    -11.94      0.00
    8   32    0     -5.07      0.00
   10   32    0      1.32      0.00
   12   32    0      0.89      0.00
   14   32    0     -2.26      0.00
   16   32    0      0.08      0.00
   17   13    1      5.96      0.00
   17   15    1     -0.67      0.00
   17   17    1     -3.18      0.00
   15   19    1     -3.39      0.00
   17   19    1      2.97      0.00
   15   21    1     -1.38      0.00
   17   21    1      2.39      0.00
   15   23    1      1.28      0.00
   17   23    1      0.73      0.00
   13   25    1     -0.26      0.00
   15   25    1     -0.96      0.00
   17   25    1      0.62      0.00
   11   27    1      6.41      0.00
   13   27    1     -3.89      0.00
   15   27    1      0.07      0.00
   17   27    1     -2.32      0.00
   11   29    1     -1.39      0.00
   13   29    1     -0.76      0.00
   15   29    1      1.09      0.00
   17   29    1     -2.60      0.00
    9   31    1     -1.05      0.00
   11   31    1     -1.22      0.00
   13   31    1      1.87      0.00
   15   31    1      0.64      0.00
   17   31    1     -0.01      0.00
    5   33    1      4.36      0.00
    7   33    1      1.57      0.00
    9   33    1      0.97      0.00
   11   33    1      1.38      0.00
   13   33    1     -0.68      0.00
   15   33    1     -0.51      0.00
    2    4    2     13.96      0.00
   18    4    2     -7.78      0.00
   18    6    2     -4.18      0.00
   18    8    2      3.27      0.00
   18   10    2     -3.97      0.00
   18   12    2     -3.08      0.00
   18   14    2     -2.39      0.00
   16   16    2     -2.15      0.00
   18   16    2     -1.11      0.00
   16   18    2      4.72      0.00
   18   18    2     -0.65      0.00
   16   20    2      3.48      0.00
   18   20    2     -0.15      0.00
   14   22    2      3.16      0.00
   16   22    2     -0.84      0.00
   18   22    2     -0.22      0.00
   14   24    2     -3.93      0.00
   16   24    2     -1.76      0.00
   18   24    2      1.65      0.00
   12   26    2     -3.69      0.00
   14   26    2      3.48      0.00
   16   26    2     -2.79      0.00
   18   26    2     -1.30      0.00
   10   28    2     -4.43      0.00
   12   28    2     -3.17      0.00
   14   28    2      1.49      0.00
   16   28    2      0.02      0.00
   18   28    2     -0.36      0.00
   10   30    2      6.76      0.00
   12   30    2      0.37      0.00
   14   30    2     -0.98      0.00
   16   30    2      1.34      0.00
    6   32    2    -10.22      0.00
    8   32    2     -1.10      0.00
   10   32    2     -2.06      0.00
   12   32    2     -0.15      0.00
   14   32    2      0.58      0.00
   16   32    2      0.24      0.00
   17   13    3     -1.21      0.00
   17   15    3     -0.47      0.00
   17   17    3      5.37      0.00
   15   19    3    -11.15      0.00
   17   19    3      1.58      0.00
   15   21    3      0.53      0.00
   17   21    3     -1.35      0.00
   15   23    3      0.32      0.00
   17   23    3     -0.72      0.00
   13   25    3      1.91      0.00
   15   25    3      0.74      0.00
   17   25    3      1.45      0.00
   11   27    3      7.04      0.00
   13   27    3     -1.70      0.00
   15   27    3      1.52      0.00
   17   27    3      0.97      0.00
   11   29    3      1.04      0.00
   13   29    3     -1.62      0.00
   15   29    3      2.15      0.00
   17   29    3     -2.64      0.00
    7   31    3      6.14      0.00
    9   31    3      3.65      0.00
   11   31    3     -3.94      0.00
   13   31    3     -0.70      0.00
   15   31    3     -0.24      0.00
   17   31    3     -0.46      0.00
    5   33    3      0.00      0.00
    7   33    3     -1.70      0.00
    9   33    3      4.20      0.00
   11   33    3      0.59      0.00
   13   33    3      2.26      0.00
   15   33    3     -2.00      0.00
   18    4    4     -1.59      0.00
   18    6    4      0.91      0.00
   18    8    4     -2.97      0.00
   18   10    4     -0.73      0.00
   18   12    4     -1.82      0.00
   18   14    4      2.18      0.00
   16   16    4      5.58      0.00
   18   16    4     -0.48      0.00
   16   18    4      4.22      0.00
   18   18    4     -1.80      0.00
   16   20    4      4.12      0.00
   18   20    4     -2.55      0.00
   14   22    4    -12.25      0.00
   16   22    4      1.98      0.00
   18   22    4      2.73      0.00
   14   24    4      5.24      0.00
   16   24    4     -1.70      0.00
   18   24    4      1.16      0.00
   12   26    4     -2.00      0.00
   14   26    4      1.93      0.00
   16   26    4     -0.49      0.00
   18   26    4      0.64      0.00
   10   28    4     -5.00      0.00
   12   28    4      1.20      0.00
   14   28    4     -2.00      0.00
   16   28    4     -0.60      0.00
   18   28    4      0.39      0.00
   10   30    4      2.54      0.00
   12   30    4      1.10      0.00
   14   30    4     -0.61      0.00
   16   30    4      1.25      0.00
    6   32    4      2.50      0.00
    8   32    4     -0.72      0.00
   10   32    4     -0.49      0.00
   12   32    4      0.26      0.00
   14   32    4      0.19      0.00
   16   32    4     -0.18      0.00
   17   11    5     -1.91      0.00
   17   13    5     -6.51      0.00
   17   15    5     -2.59      0.00
   17   17    5      0.53      0.00
   15   19    5     -0.77      0.00
   17   19    5      2.74      0.00
   15   21    5     -4.52      0.00
   17   21    5      2.68      0.00
   13   23    5     10.67      0.00
   15   23    5     -0.54      0.00
   17   23    5     -2.79      0.00
   13   25    5     -4.84      0.00
   15   25    5      0.19      0.00
   17   25    5     -2.98      0.00
   11   27    5      0.57      0.00
   13   27    5     -2.45      0.00
   15   27    5      1.40      0.00
   17   27    5     -2.64      0.00
    9   29    5      5.94      0.00
   11   29    5     -1.94      0.00
   13   29    5     -0.69      0.00
   15   29    5      1.63      0.00
   17   29    5     -0.26      0.00
    7   31    5      3.83      0.00
    9   31    5     -4.82      0.00
   11   31    5      0.78      0.00
   13   31    5      1.04      0.00
   15   31    5     -1.21      0.00
    3   33    5     -5.07      0.00
    5   33    5     -2.99      0.00
    7   33    5     -2.22      0.00
    9   33    5     -0.59      0.00
   11   33    5     -1.25      0.00
   13   33    5     -0.24      0.00
   15   33    5     -1.17      0.00
   18    0    6     -0.21      0.00
   18    2    6      2.37      0.00
   18    4    6      8.89      0.00
   18    6    6      6.72      0.00
   18    8    6     -3.01      0.00
   18   10    6      0.80      0.00
   18   12    6      5.83      0.00
   18   14    6      0.52      0.00
   16   16    6      1.06      0.00
   18   16    6     -0.64      0.00
   16   18    6      1.10      0.00
   18   18    6     -0.35      0.00
   16   20    6     -1.51      0.00
   18   20    6     -0.04      0.00
   14   22    6     -0.33      0.00
   16   22    6      2.66      0.00
   18   22    6     -0.36      0.00
   14   24    6     -4.12      0.00
   16   24    6      2.72      0.00
   18   24    6     -0.35      0.00
   12   26    6     -5.32      0.00
   14   26    6      2.90      0.00
   16   26    6     -0.75      0.00
   18   26    6     -0.83      0.00
   10   28    6     -3.15      0.00
   12   28    6      0.77      0.00
   14   28    6      0.59      0.00
   16   28    6     -2.70      0.00
   18   28    6     -0.01      0.00
    8   30    6     -0.02      0.00
   10   30    6     -0.44      0.00
   12   30    6     -0.77      0.00
   14   30    6     -1.96      0.00
   16   30    6      2.64      0.00
    6   32    6     -1.55      0.00
    8   32    6      1.69      0.00
   10   32    6      0.04      0.00
   12   32    6      0.99      0.00
   14   32    6     -0.20      0.00
   16   32    6      1.60      0.00
   17   11    7     -5.39      0.00
   17   13    7     -4.44      0.00
   17   15    7      0.98      0.00
   17   17    7      1.07      0.00
   15   19    7     -3.61      0.00
   17   19    7      4.95      0.00
   15   21    7     -3.57      0.00
   17   21    7      1.24      0.00
   13   23    7     -4.88      0.00
   15   23    7     -2.42      0.00
   17   23    7      1.22      0.00
   13   25    7      2.58      0.00
   15   25    7     -0.38      0.00
   17   25    7     -0.94      0.00
   11   27    7      2.59      0.00
   13   27    7     -0.34      0.00
   15   27    7      2.91      0.00
   17   27    7      0.06      0.00
    9   29    7      5.82      0.00
   11   29    7     -0.66      0.00
   13   29    7      0.62      0.00
   15   29    7      2.19      0.00
   17   29    7     -0.96      0.00
    7   31    7     -0.89      0.00
    9   31    7      0.89      0.00
   11   31    7      0.41      0.00
   13   31    7     -0.23      0.00
   15   31    7     -0.97      0.00
    1   33    7     -1.99      0.00
    3   33    7      2.33      0.00
    5   33    7     -3.46      0.00
    7   33    7     -0.73      0.00
    9   33    7      0.53      0.00
   11   33    7     -0.26      0.00
   13   33    7     -0.58      0.00
   15   33    7     -0.06      0.00
   18    0    8     10.43      0.00
   18    2    8     11.20      0.00
   18    4    8     -3.58      0.00
   18    6    8     -0.13      0.00
   18    8    8      3.22      0.00
   18   10    8      2.49      0.00
   18   12    8      0.68      0.00
   16   14    8     -3.82      0.00
   18   14    8      1.30      0.00
   16   16    8      3.09      0.00
   18   16    8     -0.28      0.00
   16   18    8     -1.59      0.00
   18   18    8     -1.03      0.00
   14   20    8      8.55      0.00
   16   20    8     -3.26      0.00
   18   20    8      0.83      0.00
   14   22    8      4.26      0.00
   16   22    8     -3.56      0.00
   18   22    8      3.26      0.00
   12   24    8     -6.69      0.00
   14   24    8      4.67      0.00
   16   24    8      0.63      0.00
   18   24    8      1.22      0.00
   12   26    8     -3.00      0.00
   14   26    8     -0.32      0.00
   16   26    8     -0.52      0.00
   18   26    8     -2.59      0.00
   10   28    8     -3.47      0.00
   12   28    8     -0.12      0.00
   14   28    8     -3.16      0.00
   16   28    8      0.84      0.00
   18   28    8     -3.04      0.00
    8   30    8     -2.63      0.00
   10   30    8      0.30      0.00
   12   30    8      3.24      0.00
   14   30    8     -0.83      0.00
   16   30    8      0.00      0.00
    4   32    8     -6.05      0.00
    6   32    8      1.41      0.00
    8   32    8      0.88      0.00
   10   32    8      1.01      0.00
   12   32    8     -2.13      0.00
   14   32    8      1.75      0.00
   16   32    8      1.25      0.00
   17    9    9      2.50      0.00
   17   11    9     -3.22      0.00
   17   13    9      1.39      0.00
   17   15    9     -5.16      0.00
   15   17    9      2.57      0.00
   17   17    9      1.45      0.00
   15   19    9     -1.66      0.00
   17   19    9      4.12      0.00
   15   21    9     -1.46      0.00
   17   21    9      3.35      0.00
   13   23    9      3.16      0.00
   15   23    9     -2.64      0.00
   17   23    9     -0.92      0.00
   13   25    9      2.42      0.00
   15   25    9     -1.16      0.00
   17   25    9      0.46      0.00
   11   27    9      6.33      0.00
   13   27    9     -4.77      0.00
   15   27    9      3.77      0.00
   17   27    9     -0.96      0.00
    9   29    9     -2.88      0.00
   11   29    9      1.46      0.00
   13   29    9     -1.79      0.00
   15   29    9      2.61      0.00
   17   29    9     -0.46      0.00
    7   31    9     -1.00      0.00
    9   31    9     -0.80      0.00
   11   31    9     -1.98      0.00
   13   31    9      2.78      0.00
   15   31    9     -1.99      0.00
    1   33    9     -2.58      0.00
    3   33    9      0.17      0.00
    5   33    9      1.49      0.00
    7   33    9     -1.29      0.00
    9   33    9      1.65      0.00
   11   33    9      0.38      0.00
   13   33    9      1.35      0.00
   15   33    9     -2.60      0.00
   18    0   10      2.44      0.00
   18    2   10     -4.41      0.00
   18    4   10      2.66      0.00
   18    6   10     -4.66      0.00
   18    8   10      1.10      0.00
   18   10   10     -1.72      0.00
   18   12   10     -2.02      0.00
   16   14   10      3.21      0.00
   18   14   10      1.90      0.00
   16   16   10     -2.18      0.00
   18   16   10      1.46      0.00
   16   18   10     -2.34      0.00
   18   18   10      0.23      0.00
   14   20   10     -1.03      0.00
   16   20   10     -2.25      0.00
   18   20   10      2.22      0.00
   14   22   10      7.20      0.00
   16   22   10     -0.46      0.00
   18   22   10      0.87      0.00
   12   24   10      2.72      0.00
   14   24   10     -2.60      0.00
   16   24   10     -0.34      0.00
   18   24   10      1.07      0.00
   12   26   10      3.34      0.00
   14   26   10      2.02      0.00
   16   26   10      0.03      0.00
   18   26   10      0.09      0.00
   10   28   10     -0.47      0.00
   12   28   10      0.25      0.00
   14   28   10      2.10      0.00
   16   28   10     -1.36      0.00
    8   30   10      2.48      0.00
   10   30   10      3.38      0.00
   12   30   10     -2.90      0.00
   14   30   10      0.53      0.00
   16   30   10      1.38      0.00
    4   32   10      2.11      0.00
    6   32   10      1.58      0.00
    8   32   10      1.29      0.00
   10   32   10      0.18      0.00
   12   32   10      0.77      0.00
   14   32   10      0.53      0.00
   17    5   11      8.19      0.00
   17    7   11      4.74      0.00
   17    9   11     -2.78      0.00
   17   11   11      4.09      0.00
   17   13   11     -5.49      0.00
   17   15   11     -2.59      0.00
   15   17   11     -2.20      0.00
   17   17   11      2.22      0.00
   15   19   11     -4.94      0.00
   17   19   11      4.16      0.00
   13   21   11     11.71      0.00
   15   21   11     -5.00      0.00
   17   21   11      2.07      0.00
   13   23   11      2.60      0.00
   15   23   11     -0.05      0.00
   17   23   11      0.76      0.00
   11   25   11      7.33      0.00
   13   25   11     -4.36      0.00
   15   25   11      2.70      0.00
   17   25   11     -0.99      0.00
   11   27   11      3.70      0.00
   13   27   11     -4.55      0.00
   15   27   11      1.03      0.00
   17   27   11     -1.50      0.00
    9   29   11      1.61      0.00
   11   29   11      2.17      0.00
   13   29   11     -0.52      0.00
   15   29   11      0.89      0.00
   17   29   11     -0.53      0.00
    5   31   11      7.44      0.00
    7   31   11      1.83      0.00
    9   31   11     -1.95      0.00
   11   31   11     -1.19      0.00
   13   31   11      1.13      0.00
   15   31   11     -1.53      0.00
    1   33   11      1.97      0.00
    3   33   11     -2.84      0.00
    5   33   11     -6.16      0.00
    7   33   11     -2.48      0.00
    9   33   11      0.87      0.00
   11   33   11     -0.08      0.00
   13   33   11     -0.14      0.00
   18    0   12     -5.27      0.00
   18    2   12      0.37      0.00
   18    4   12     -6.42      0.00
   18    6   12     -0.23      0.00
   18    8   12     -0.60      0.00
   18   10   12     -0.51      0.00
   16   12   12      6.68      0.00
   18   12   12     -3.73      0.00
   16   14   12     -0.73      0.00
   18   14   12      0.41      0.00
   16   16   12     -3.77      0.00
   18   16   12     -0.59      0.00
   14   18   12      2.78      0.00
   16   18   12      0.52      0.00
   18   18   12      2.05      0.00
   14   20   12      2.63      0.00
   16   20   12      0.67      0.00
   18   20   12      0.88      0.00
   14   22   12     -6.00      0.00
   16   22   12     -0.80      0.00
   18   22   12      1.27      0.00
   12   24   12     -7.02      0.00
   14   24   12      5.47      0.00
   16   24   12     -2.30      0.00
   18   24   12     -2.07      0.00
   10   26   12     -0.47      0.00
   12   26   12     -2.56      0.00
   14   26   12      1.15      0.00
   16   26   12     -0.51      0.00
   18   26   12     -0.24      0.00
    8   28   12      0.07      0.00
   10   28   12     -3.93      0.00
   12   28   12      1.79      0.00
   14   28   12     -0.88      0.00
   16   28   12      1.29      0.00
    6   30   12     -5.96      0.00
    8   30   12     -2.83      0.00
   10   30   12      0.41      0.00
   12   30   12      0.94      0.00
   14   30   12     -2.92      0.00
   16   30   12      1.84      0.00
    0   32   12     -0.62      0.00
    2   32   12      2.28      0.00
    4   32   12      4.81      0.00
    6   32   12     -0.98      0.00
    8   32   12      1.18      0.00
   10   32   12     -1.51      0.00
   12   32   12      0.76      0.00
   14   32   12      0.14      0.00
   17    1   13      1.94      0.00
   17    3   13      6.60      0.00
   17    5   13     -1.48      0.00
   17    7   13      2.19      0.00
   17    9   13      1.41      0.00
   17   11   13     -3.54      0.00
   17   13   13      0.77      0.00
   15   15   13     -6.48      0.00
   17   15   13      3.76      0.00
   15   17   13     -6.54      0.00
   17   17   13      2.70      0.00
   15   19   13     -4.04      0.00
   17   19   13      2.45      0.00
   13   21   13     -0.10      0.00
   15   21   13     -0.83      0.00
   17   21   13      1.17      0.00
   13   23   13      0.53      0.00
   15   23   13      1.12      0.00
   17   23   13     -0.30      0.00
   11   25   13      6.10      0.00
   13   25   13     -2.10      0.00
   15   25   13      1.01      0.00
   17   25   13     -0.83      0.00
    9   27   13     -1.05      0.00
   11   27   13     -0.24      0.00
   13   27   13     -0.07      0.00
   15   27   13     -0.60      0.00
   17   27   13      0.60      0.00
    7   29   13      1.44      0.00
    9   29   13     -1.55      0.00
   11   29   13     -2.97      0.00
   13   29   13      1.85      0.00
   15   29   13     -0.26      0.00
    3   31   13     -0.24      0.00
    5   31   13     -1.05      0.00
    7   31   13      1.93      0.00
    9   31   13      0.36      0.00
   11   31   13      0.95      0.00
   13   31   13      0.06      0.00
   15   31   13     -0.08      0.00
    1   33   13     -2.20      0.00
    3   33   13      2.27      0.00
    5   33   13      1.63      0.00
    7   33   13     -1.44      0.00
    9   33   13      1.79      0.00
   11   33   13     -0.16      0.00
   13   33   13      0.06      0.00
   18    0   14      2.67      0.00
   18    2   14     -5.30      0.00
   18    4   14     -1.23      0.00
   18    6   14     -0.24      0.00
   16    8   14      6.90      0.00
   18    8   14     -4.20      0.00
   16   10   14      6.27      0.00
   18   10   14     -3.43      0.00
   16   12   14      6.58      0.00
   18   12   14     -2.82      0.00
   16   14   14     -2.38      0.00
   18   14   14     -3.87      0.00
   16   16   14      0.37      0.00
   18   16   14      2.12      0.00
   14   18   14      2.97      0.00
   16   18   14      1.42      0.00
   18   18   14     -0.36      0.00
   14   20   14     -5.06      0.00
   16   20   14     -0.62      0.00
   18   20   14      1.01      0.00
   12   22   14      8.19      0.00
   14   22   14      0.16      0.00
   16   22   14     -0.82      0.00
   18   22   14      0.30      0.00
   12   24   14     -4.94      0.00
   14   24   14      1.24      0.00
   16   24   14     -1.20      0.00
   18   24   14      1.60      0.00
   10   26   14      0.06      0.00
   12   26   14      0.48      0.00
   14   26   14      1.78      0.00
   16   26   14      0.02      0.00
    8   28   14      4.95      0.00
   10   28   14     -0.49      0.00
   12   28   14      2.32      0.00
   14   28   14     -3.09      0.00
   16   28   14      2.65      0.00
    4   30   14      0.53      0.00
    6   30   14     -0.70      0.00
    8   30   14     -0.08      0.00
   10   30   14      1.08      0.00
   12   30   14     -0.30      0.00
   14   30   14     -2.46      0.00
   16   30   14      1.36      0.00
    0   32   14     -6.54      0.00
    2   32   14      0.35      0.00
    4   32   14     -4.98      0.00
    6   32   14      2.81      0.00
    8   32   14     -0.41      0.00
   10   32   14     -0.67      0.00
   12   32   14     -1.07      0.00
   14   32   14     -0.11      0.00
   17    1   15      4.31      0.00
   17    3   15      0.61      0.00
   17    5   15      3.89      0.00
   17    7   15     -1.38      0.00
   17    9   15      1.06      0.00
   17   11   15      2.19      0.00
   15   13   15     -9.08      0.00
   17   13   15      2.85      0.00
   15   15   15     -8.52      0.00
   17   15   15      2.02      0.00
   15   17   15      0.48      0.00
   17   17   15     -1.10      0.00
   13   19   15      0.39      0.00
   15   19   15      0.40      0.00
   17   19   15      0.04      0.00
   13   21   15      5.07      0.00
   15   21   15     -0.49      0.00
   17   21   15     -0.37      0.00
   11   23   15     -9.37      0.00
   13   23   15      4.80      0.00
   15   23   15     -1.59      0.00
   17   23   15      0.24      0.00
   11   25   15      3.30      0.00
   13   25   15     -4.41      0.00
   15   25   15      1.46      0.00
   17   25   15     -0.15      0.00
    9   27   15      1.88      0.00
   11   27   15      0.99      0.00
   13   27   15     -2.89      0.00
   15   27   15      2.66      0.00
   17   27   15     -3.30      0.00
    5   29   15     -0.45      0.00
    7   29   15     -0.09      0.00
    9   29   15     -0.08      0.00
   11   29   15     -0.54      0.00
   13   29   15      0.38      0.00
   15   29   15     -0.12      0.00
    1   31   15      5.45      0.00
    3   31   15      0.58      0.00
    5   31   15      1.45      0.00
    7   31   15     -0.20      0.00
    9   31   15     -1.17      0.00
   11   31   15     -1.37      0.00
   13   31   15      1.88      0.00
   15   31   15     -0.20      0.00
    1   33   15      4.15      0.00
    3   33   15      0.71      0.00
    5   33   15     -0.32      0.00
    7   33   15     -1.89      0.00
    9   33   15      1.91      0.00
   11   33   15     -0.36      0.00
   13   33   15     -1.42      0.00
   16    0   16      9.20      0.00
   18    0   16     -3.39      0.00
   16    2   16     -6.26      0.00
   18    2   16      1.35      0.00
   16    4   16     -8.87      0.00
   18    4   16     -0.34      0.00
   16    6   16      7.48      0.00
   18    6   16     -2.77      0.00
   16    8   16      1.67      0.00
   18    8   16     -0.38      0.00
   16   10   16      2.98      0.00
   18   10   16     -1.88      0.00
   16   12   16     -5.79      0.00
   18   12   16      0.15      0.00
   16   14   16      4.59      0.00
   18   14   16     -1.15      0.00
   14   16   16      0.47      0.00
   16   16   16      3.53      0.00
   18   16   16     -3.12      0.00
   14   18   16     -1.45      0.00
   16   18   16     -1.01      0.00
   18   18   16      3.22      0.00
   12   20   16      9.69      0.00
   14   20   16     -0.51      0.00
   16   20   16     -0.77      0.00
   18   20   16      2.38      0.00
   12   22   16      0.90      0.00
   14   22   16     -3.50      0.00
   16   22   16      0.16      0.00
   18   22   16      1.29      0.00
   10   24   16      2.19      0.00
   12   24   16      2.15      0.00
   14   24   16      0.34      0.00
   16   24   16      1.01      0.00
   18   24   16     -2.09      0.00
    8   26   16      2.61      0.00
   10   26   16     -5.22      0.00
   12   26   16      0.44      0.00
   14   26   16      0.63      0.00
   16   26   16      0.01      0.00
    6   28   16      0.07      0.00
    8   28   16     -5.29      0.00
   10   28   16     -3.16      0.00
   12   28   16      2.28      0.00
   14   28   16     -1.82      0.00
   16   28   16      2.14      0.00
    0   30   16     -1.88      0.00
    2   30   16     -1.36      0.00
    4   30   16      0.47      0.00
    6   30   16     -2.69      0.00
    8   30   16      2.03      0.00
   10   30   16      0.58      0.00
   12   30   16      0.63      0.00
   14   30   16     -1.85      0.00
    0   32   16     -0.15      0.00
    2   32   16     -4.43      0.00
    4   32   16      1.74      0.00
    6   32   16      0.79      0.00
    8   32   16      0.17      0.00
   10   32   16      0.89      0.00
   12   32   16      1.14      0.00
   14   32   16      2.56      0.00
   17    1   17     -3.34      0.00
   17    3   17      5.76      0.00
   17    5   17     -0.38      0.00
   17    7   17      1.65      0.00
   15    9   17     -3.83      0.00
   17    9   17     -3.37      0.00
   15   11   17     -2.34      0.00
   17   11   17      0.07      0.00
   15   13   17     -3.96      0.00
   17   13   17      2.32      0.00
   15   15   17      2.27      0.00
   17   15   17     -0.30      0.00
   13   17   17      7.66      0.00
   15   17   17     -1.82      0.00
   17   17   17      1.30      0.00
   13   19   17      0.40      0.00
   15   19   17     -2.62      0.00
   17   19   17      0.31      0.00
   11   21   17     -7.16      0.00
   13   21   17      3.23      0.00
   15   21   17     -0.35      0.00
   17   21   17     -0.94      0.00
   11   23   17    -13.68      0.00
   13   23   17      3.66      0.00
   15   23   17     -0.07      0.00
   17   23   17     -0.01      0.00
    9   25   17      3.76      0.00
   11   25   17      0.76      0.00
   13   25   17      0.90      0.00
   15   25   17     -1.10      0.00
   17   25   17      1.35      0.00
    7   27   17     -0.53      0.00
    9   27   17     -0.10      0.00
   11   27   17      4.97      0.00
   13   27   17     -3.52      0.00
   15   27   17      2.62      0.00
    3   29   17     -5.46      0.00
    5   29   17     -1.45      0.00
    7   29   17      4.86      0.00
    9   29   17     -2.00      0.00
   11   29   17      0.54      0.00
   13   29   17      0.52      0.00
   15   29   17      1.73      0.00
    1   31   17     -0.81      0.00
    3   31   17      1.99      0.00
    5   31   17     -0.81      0.00
    7   31   17     -1.54      0.00
    9   31   17     -0.47      0.00
   11   31   17     -0.02      0.00
   13   31   17     -0.57      0.00
    1   33   17      1.58      0.00
    3   33   17      1.41      0.00
    5   33   17     -1.02      0.00
    7   33   17     -0.12      0.00
    9   33   17     -0.14      0.00
   11   33   17     -0.59      0.00
   13   33   17     -0.44      0.00
   14    0   18     -9.62      0.00
   16    0   18      4.60      0.00
   18    0   18     -1.81      0.00
   14    2   18    -12.57      0.00
   16    2   18      4.81      0.00
   18    2   18     -0.61      0.00
   14    4   18      3.08      0.00
   16    4   18     -2.70      0.00
   18    4   18      0.72      0.00
   14    6   18      8.30      0.00
   16    6   18     -7.17      0.00
   18    6   18      2.29      0.00
   14    8   18     -3.53      0.00
   16    8   18      3.05      0.00
   18    8   18      1.11      0.00
   14   10   18      2.29      0.00
   16   10   18     -5.63      0.00
   18   10   18      1.71      0.00
   14   12   18      6.64      0.00
   16   12   18      1.73      0.00
   18   12   18     -1.90      0.00
   12   14   18     -2.73      0.00
   14   14   18      2.72      0.00
   16   14   18      1.13      0.00
   18   14   18     -0.68      0.00
   12   16   18      2.83      0.00
   14   16   18     -5.30      0.00
   16   16   18     -0.96      0.00
   18   16   18      0.58      0.00
   12   18   18     -2.96      0.00
   14   18   18      1.82      0.00
   16   18   18     -1.48      0.00
   18   18   18      1.45      0.00
   12   20   18      0.99      0.00
   14   20   18      2.23      0.00
   16   20   18     -0.76      0.00
   18   20   18      1.28      0.00
   10   22   18      4.28      0.00
   12   22   18     -1.04      0.00
   14   22   18      0.18      0.00
   16   22   18      0.28      0.00
   18   22   18      0.64      0.00
   10   24   18      0.87      0.00
   12   24   18     -0.60      0.00
   14   24   18      0.28      0.00
   16   24   18     -1.21      0.00
    8   26   18      2.68      0.00
   10   26   18     -2.76      0.00
   12   26   18      1.59      0.00
   14   26   18     -0.43      0.00
   16   26   18     -0.23      0.00
    4   28   18      6.60      0.00
    6   28   18     -3.03      0.00
    8   28   18      2.78      0.00
   10   28   18      1.47      0.00
   12   28   18      1.84      0.00
   14   28   18     -3.32      0.00
    0   30   18     -1.82      0.00
    2   30   18      2.32      0.00
    4   30   18      2.30      0.00
    6   30   18     -1.36      0.00
    8   30   18      2.15      0.00
   10   30   18     -0.20      0.00
   12   30   18      1.04      0.00
   14   30   18     -0.08      0.00
    0   32   18     -0.55      0.00
    2   32   18     -1.37      0.00
    4   32   18     -0.38      0.00
    6   32   18      0.16      0.00
    8   32   18      0.67      0.00
   10   32   18     -0.82      0.00
   12   32   18     -1.21      0.00
   15    1   19     -1.45      0.00
   17    1   19      1.57      0.00
   15    3   19      2.37      0.00
   17    3   19     -3.08      0.00
   15    5   19     -4.47      0.00
   17    5   19      3.46      0.00
   13    7   19      4.28      0.00
   15    7   19      1.62      0.00
   17    7   19     -1.79      0.00
   13    9   19      1.98      0.00
   15    9   19      5.45      0.00
   17    9   19     -1.65      0.00
   13   11   19     -0.13      0.00
   15   11   19      4.00      0.00
   17   11   19     -0.57      0.00
   13   13   19     -2.40      0.00
   15   13   19      0.89      0.00
   17   13   19     -3.33      0.00
   11   15   19      5.44      0.00
   13   15   19      1.33      0.00
   15   15   19     -3.22      0.00
   17   15   19      1.39      0.00
   11   17   19     -7.72      0.00
   13   17   19      5.70      0.00
   15   17   19     -1.96      0.00
   17   17   19      3.19      0.00
   11   19   19      0.11      0.00
   13   19   19     -0.13      0.00
   15   19   19     -1.41      0.00
   17   19   19      0.25      0.00
   11   21   19     -5.42      0.00
   13   21   19      1.43      0.00
   15   21   19     -0.59      0.00
   17   21   19     -0.79      0.00
    9   23   19      5.97      0.00
   11   23   19      1.63      0.00
   13   23   19      2.91      0.00
   15   23   19     -1.37      0.00
   17   23   19     -0.22      0.00
    7   25   19     -1.10      0.00
    9   25   19     -1.36      0.00
   11   25   19      1.81      0.00
   13   25   19     -0.67      0.00
   15   25   19      0.25      0.00
   17   25   19     -0.07      0.00
    5   27   19     -5.51      0.00
    7   27   19     -1.58      0.00
    9   27   19     -3.38      0.00
   11   27   19     -0.13      0.00
   13   27   19     -3.21      0.00
   15   27   19      0.80      0.00
    1   29   19     -0.88      0.00
    3   29   19     -4.55      0.00
    5   29   19      1.46      0.00
    7   29   19     -2.60      0.00
    9   29   19     -1.59      0.00
   11   29   19     -1.22      0.00
   13   29   19      0.84      0.00
   15   29   19      0.60      0.00
    1   31   19      2.53      0.00
    3   31   19     -2.66      0.00
    5   31   19      0.35      0.00
    7   31   19     -1.52      0.00
    9   31   19      1.16      0.00
   11   31   19     -0.66      0.00
   13   31   19      1.99      0.00
    1   33   19      1.08      0.00
    3   33   19      1.46      0.00
    5   33   19      1.29      0.00
    7   33   19      0.42      0.00
    9   33   19      1.74      0.00
   11   33   19      1.59      0.00
   14    0   20    -16.00      0.00
   16    0   20      4.86      0.00
   18    0   20     -3.12      0.00
   14    2   20     -3.65      0.00
   16    2   20      2.60      0.00
   18    2   20     -0.81      0.00
   14    4   20      0.01      0.00
   16    4   20      1.49      0.00
   18    4   20      0.09      0.00
   14    6   20      3.55      0.00
   16    6   20     -1.04      0.00
   18    6   20      3.64      0.00
   14    8   20      1.61      0.00
   16    8   20     -4.63      0.00
   18    8   20      1.73      0.00
   12   10   20     -4.78      0.00
   14   10   20      0.28      0.00
   16   10   20      1.41      0.00
   18   10   20     -0.77      0.00
   12   12   20      4.41      0.00
   14   12   20     -1.59      0.00
   16   12   20     -1.02      0.00
   18   12   20     -1.96      0.00
   12   14   20      1.94      0.00
   14   14   20     -2.02      0.00
   16   14   20      1.24      0.00
   18   14   20      0.05      0.00
   12   16   20     -1.46      0.00
   14   16   20     -1.88      0.00
   16   16   20      0.39      0.00
   18   16   20      0.94      0.00
   12   18   20     -0.86      0.00
   14   18   20      2.90      0.00
   16   18   20     -1.57      0.00
   18   18   20      1.90      0.00
   12   20   20     -1.07      0.00
   14   20   20      2.61      0.00
   16   20   20     -3.92      0.00
   18   20   20      2.03      0.00
   10   22   20     -7.63      0.00
   12   22   20     -0.11      0.00
   14   22   20     -0.43      0.00
   16   22   20     -1.49      0.00
    8   24   20     -3.72      0.00
   10   24   20     -0.14      0.00
   12   24   20     -4.05      0.00
   14   24   20     -0.69      0.00
   16   24   20      0.84      0.00
    6   26   20      1.20      0.00
    8   26   20     -0.29      0.00
   10   26   20      0.37      0.00
   12   26   20      0.35      0.00
   14   26   20      1.71      0.00
   16   26   20      1.59      0.00
    0   28   20      4.86      0.00
    2   28   20      2.65      0.00
    4   28   20     -2.16      0.00
    6   28   20      0.30      0.00
    8   28   20      1.92      0.00
   10   28   20     -2.48      0.00
   12   28   20      3.42      0.00
   14   28   20     -0.85      0.00
    0   30   20     -3.53      0.00
    2   30   20      1.69      0.00
    4   30   20     -0.07      0.00
    6   30   20      0.36      0.00
    8   30   20      1.89      0.00
   10   30   20     -0.70      0.00
   12   30   20      0.08      0.00
   14   30   20     -2.46      0.00
    0   32   20     -2.77      0.00
    2   32   20     -0.34      0.00
    4   32   20     -0.56      0.00
    6   32   20      1.33      0.00
    8   32   20      0.44      0.00
   10   32   20     -2.56      0.00
   12   32   20      1.60      0.00
   13    1   21      7.70      0.00
   15    1   21      1.10      0.00
   17    1   21      0.67      0.00
   13    3   21      1.10      0.00
   15    3   21     -7.65      0.00
   17    3   21      2.22      0.00
   13    5   21      5.68      0.00
   15    5   21     -0.20      0.00
   17    5   21      0.03      0.00
   13    7   21      2.12      0.00
   15    7   21      3.72      0.00
   17    7   21     -1.82      0.00
   13    9   21      0.28      0.00
   15    9   21     -0.18      0.00
   17    9   21     -4.50      0.00
   13   11   21     -3.74      0.00
   15   11   21     -1.71      0.00
   17   11   21     -0.29      0.00
   13   13   21     -4.19      0.00
   15   13   21      2.54      0.00
   17   13   21      1.20      0.00
   13   15   21      0.40      0.00
   15   15   21      2.47      0.00
   17   15   21     -1.01      0.00
   11   17   21      0.71      0.00
   13   17   21      0.22      0.00
   15   17   21     -1.76      0.00
   17   17   21     -0.25      0.00
   11   19   21     -7.24      0.00
   13   19   21      1.63      0.00
   15   19   21     -1.60      0.00
   17   19   21      2.69      0.00
    9   21   21     -3.06      0.00
   11   21   21     -3.75      0.00
   13   21   21      1.26      0.00
   15   21   21     -1.72      0.00
   17   21   21      1.26      0.00
    9   23   21      3.91      0.00
   11   23   21      0.44      0.00
   13   23   21      1.54      0.00
   15   23   21     -0.07      0.00
   17   23   21      0.10      0.00
    7   25   21     -4.56      0.00
    9   25   21      4.03      0.00
   11   25   21      0.25      0.00
   13   25   21     -1.99      0.00
   15   25   21      0.29      0.00
    1   27   21     -6.77      0.00
    3   27   21      1.64      0.00
    5   27   21     -1.78      0.00
    7   27   21      3.96      0.00
    9   27   21      0.25      0.00
   11   27   21      0.06      0.00
   13   27   21     -0.74      0.00
   15   27   21      0.50      0.00
    1   29   21     -0.35      0.00
    3   29   21      2.39      0.00
    5   29   21      1.12      0.00
    7   29   21      2.21      0.00
    9   29   21      0.86      0.00
   11   29   21      1.01      0.00
   13   29   21     -1.16      0.00
    1   31   21      0.41      0.00
    3   31   21      1.93      0.00
    5   31   21     -1.58      0.00
    7   31   21     -0.28      0.00
    9   31   21      1.12      0.00
   11   31   21     -0.48      0.00
   13   31   21      1.34      0.00
    1   33   21     -1.70      0.00
    3   33   21      0.06      0.00
    5   33   21     -0.82      0.00
    7   33   21     -1.10      0.00
    9   33   21      1.46      0.00
   11   33   21     -0.73      0.00
   14    0   22     -8.51      0.00
   16    0   22     -0.74      0.00
   18    0   22      0.60      0.00
   14    2   22     -3.12      0.00
   16    2   22      3.57      0.00
   18    2   22     -1.79      0.00
   14    4   22      0.86      0.00
   16    4   22      1.06      0.00
   18    4   22      0.97      0.00
   14    6   22     -1.70      0.00
   16    6   22     -4.12      0.00
   18    6   22      1.62      0.00
   14    8   22      5.49      0.00
   16    8   22     -3.19      0.00
   18    8   22      1.50      0.00
   12   10   22     -3.99      0.00
   14   10   22     -0.17      0.00
   16   10   22      0.83      0.00
   18   10   22      0.10      0.00
   12   12   22     10.51      0.00
   14   12   22     -0.84      0.00
   16   12   22      2.30      0.00
   18   12   22     -1.37      0.00
   12   14   22      6.25      0.00
   14   14   22     -0.36      0.00
   16   14   22     -0.63      0.00
   18   14   22     -1.32      0.00
   12   16   22      1.25      0.00
   14   16   22      0.54      0.00
   16   16   22     -1.43      0.00
   18   16   22      0.94      0.00
   12   18   22     -2.48      0.00
   14   18   22     -0.21      0.00
   16   18   22     -1.84      0.00
   18   18   22      1.94      0.00
   10   20   22      6.61      0.00
   12   20   22     -0.35      0.00
   14   20   22      3.69      0.00
   16   20   22     -2.56      0.00
    8   22   22     -1.97      0.00
   10   22   22      6.46      0.00
   12   22   22     -2.28      0.00
   14   22   22      1.51      0.00
   16   22   22      1.15      0.00
    6   24   22      4.85      0.00
    8   24   22      1.53      0.00
   10   24   22     -2.06      0.00
   12   24   22     -0.50      0.00
   14   24   22      0.40      0.00
   16   24   22      0.83      0.00
    0   26   22     -4.82      0.00
    2   26   22      5.78      0.00
    4   26   22      2.01      0.00
    6   26   22      1.10      0.00
    8   26   22      0.09      0.00
   10   26   22      0.80      0.00
   12   26   22      1.45      0.00
   14   26   22     -3.11      0.00
    0   28   22      1.85      0.00
    2   28   22     -5.48      0.00
    4   28   22     -0.14      0.00
    6   28   22     -5.58      0.00
    8   28   22     -0.84      0.00
   10   28   22     -2.25      0.00
   12   28   22      0.40      0.00
   14   28   22     -1.99      0.00
    0   30   22     -0.33      0.00
    2   30   22     -3.54      0.00
    4   30   22      0.12      0.00
    6   30   22     -0.33      0.00
    8   30   22      0.43      0.00
   10   30   22     -0.77      0.00
   12   30   22      0.82      0.00
    0   32   22      0.62      0.00
    2   32   22      2.28      0.00
    4   32   22      0.31      0.00
    6   32   22      2.29      0.00
    8   32   22     -0.07      0.00
   10   32   22      0.50      0.00
   13    1   23      3.61      0.00
   15    1   23     -1.53      0.00
   17    1   23      4.53      0.00
   13    3   23      1.86      0.00
   15    3   23     -0.87      0.00
   17    3   23      1.22      0.00
   15    5   23     -0.87      0.00
   17    5   23     -1.29      0.00
   13    7   23     -5.62      0.00
   15    7   23      4.75      0.00
   17    7   23     -1.08      0.00
   13    9   23     -0.05      0.00
   15    9   23      5.79      0.00
   17    9   23     -0.28      0.00
   13   11   23     -0.45      0.00
   15   11   23      1.90      0.00
   17   11   23     -0.71      0.00
   13   13   23     -6.23      0.00
   15   13   23     -0.76      0.00
   17   13   23     -1.30      0.00
   11   15   23      7.13      0.00
   13   15   23     -4.48      0.00
   15   15   23      0.17      0.00
   17   15   23      0.09      0.00
   11   17   23      3.57      0.00
   13   17   23      2.72      0.00
   15   17   23      0.27      0.00
   17   17   23      1.52      0.00
    9   19   23     -1.21      0.00
   11   19   23     -7.63      0.00
   13   19   23      5.28      0.00
   15   19   23     -1.63      0.00
   17   19   23      2.82      0.00
    9   21   23      3.56      0.00
   11   21   23     -5.24      0.00
   13   21   23      0.06      0.00
   15   21   23     -1.03      0.00
   17   21   23     -1.12      0.00
    7   23   23     -2.67      0.00
    9   23   23     -0.73      0.00
   11   23   23      0.87      0.00
   13   23   23     -0.04      0.00
   15   23   23     -0.58      0.00
    3   25   23     -2.27      0.00
    5   25   23     -5.16      0.00
    7   25   23      1.31      0.00
    9   25   23     -5.71      0.00
   11   25   23      0.12      0.00
   13   25   23      0.58      0.00
   15   25   23     -0.15      0.00
    1   27   23      2.74      0.00
    3   27   23      1.07      0.00
    5   27   23      1.44      0.00
    7   27   23      1.93      0.00
    9   27   23      0.45      0.00
   11   27   23     -0.96      0.00
   13   27   23      0.19      0.00
    1   29   23      2.97      0.00
    3   29   23      3.25      0.00
    5   29   23      1.18      0.00
    7   29   23      0.87      0.00
    9   29   23     -1.38      0.00
   11   29   23      0.09      0.00
   13   29   23      1.93      0.00
    1   31   23     -0.58      0.00
    3   31   23     -2.12      0.00
    5   31   23      0.03      0.00
    7   31   23     -0.57      0.00
    9   31   23      0.31      0.00
   11   31   23     -0.35      0.00
    1   33   23     -1.77      0.00
    3   33   23     -1.11      0.00
    5   33   23     -0.66      0.00
    7   33   23     -0.08      0.00
    9   33   23     -0.05      0.00
   14    0   24      4.05      0.00
   16    0   24      0.11      0.00
   18    0   24     -1.47      0.00
   14    2   24     -4.48      0.00
   16    2   24     -1.33      0.00
   18    2   24     -0.39      0.00
   14    4   24      4.19      0.00
   16    4   24      0.39      0.00
   18    4   24      1.21      0.00
   14    6   24      6.85      0.00
   16    6   24     -0.76      0.00
   18    6   24      2.73      0.00
   14    8   24     -4.59      0.00
   16    8   24     -2.46      0.00
   18    8   24      0.20      0.00
   12   10   24      6.33      0.00
   14   10   24     -2.15      0.00
   16   10   24     -2.45      0.00
   18   10   24     -3.14      0.00
   12   12   24      5.08      0.00
   14   12   24      0.80      0.00
   16   12   24      2.71      0.00
   18   12   24      0.12      0.00
   12   14   24      4.06      0.00
   14   14   24      1.79      0.00
   16   14   24      1.40      0.00
   18   14   24      1.29      0.00
   10   16   24      3.95      0.00
   12   16   24     -8.88      0.00
   14   16   24      1.42      0.00
   16   16   24      0.26      0.00
   18   16   24      0.46      0.00
   10   18   24     -1.41      0.00
   12   18   24     -1.47      0.00
   14   18   24      0.94      0.00
   16   18   24     -2.63      0.00
    8   20   24     -2.41      0.00
   10   20   24      1.07      0.00
   12   20   24      0.40      0.00
   14   20   24      0.50      0.00
   16   20   24      0.01      0.00
    6   22   24      0.42      0.00
    8   22   24      3.37      0.00
   10   22   24      0.72      0.00
   12   22   24     -1.99      0.00
   14   22   24      2.31      0.00
   16   22   24     -0.35      0.00
    2   24   24      3.49      0.00
    4   24   24     -1.18      0.00
    6   24   24      2.83      0.00
    8   24   24      2.35      0.00
   10   24   24      1.71      0.00
   12   24   24     -1.35      0.00
   14   24   24      0.34      0.00
    0   26   24     -1.99      0.00
    2   26   24     -1.59      0.00
    4   26   24      0.29      0.00
    6   26   24     -1.39      0.00
    8   26   24     -1.37      0.00
   10   26   24      0.75      0.00
   12   26   24      0.18      0.00
   14   26   24      1.39      0.00
    0   28   24     -0.75      0.00
    2   28   24     -2.96      0.00
    4   28   24     -0.50      0.00
    6   28   24     -1.98      0.00
    8   28   24      1.23      0.00
   10   28   24      0.27      0.00
   12   28   24     -0.24      0.00
    0   30   24     -0.69      0.00
    2   30   24      0.18      0.00
    4   30   24      0.27      0.00
    6   30   24     -0.88      0.00
    8   30   24      2.76      0.00
   10   30   24     -1.42      0.00
   12   30   24      0.03      0.00
    0   32   24     -1.32      0.00
    2   32   24      2.81      0.00
    4   32   24      0.64      0.00
    6   32   24      0.53      0.00
    8   32   24     -0.16      0.00
   10   32   24      0.40      0.00
   13    1   25      0.26      0.00
   15    1   25     -2.30      0.00
   17    1   25      4.90      0.00
   13    3   25      1.82      0.00
   15    3   25     -2.66      0.00
   17    3   25      2.48      0.00
   13    5   25     -2.73      0.00
   15    5   25      0.43      0.00
   17    5   25     -2.93      0.00
   13    7   25     -3.60      0.00
   15    7   25      2.60      0.00
   17    7   25     -2.81      0.00
   13    9   25     -3.88      0.00
   15    9   25      4.10      0.00
   17    9   25     -0.84      0.00
   13   11   25      0.05      0.00
   15   11   25      0.32      0.00
   17   11   25     -1.55      0.00
   11   13   25      2.06      0.00
   13   13   25     -1.37      0.00
   15   13   25     -1.05      0.00
   17   13   25      0.75      0.00
   11   15   25      6.44      0.00
   13   15   25     -0.44      0.00
   15   15   25      1.58      0.00
   17   15   25      0.44      0.00
    9   17   25      7.49      0.00
   11   17   25     -2.94      0.00
   13   17   25      2.28      0.00
   15   17   25     -0.06      0.00
   17   17   25     -0.59      0.00
    9   19   25      8.43      0.00
   11   19   25      1.29      0.00
   13   19   25     -1.17      0.00
   15   19   25     -0.46      0.00
   17   19   25     -0.65      0.00
    7   21   25      1.21      0.00
    9   21   25     -0.79      0.00
   11   21   25      0.20      0.00
   13   21   25      1.23      0.00
   15   21   25      0.92      0.00
    3   23   25      0.56      0.00
    5   23   25      3.65      0.00
    7   23   25     -2.81      0.00
    9   23   25     -2.48      0.00
   11   23   25      1.26      0.00
   13   23   25     -0.99      0.00
   15   23   25      1.49      0.00
    1   25   25      1.29      0.00
    3   25   25     -0.18      0.00
    5   25   25      0.69      0.00
    7   25   25     -1.13      0.00
    9   25   25      2.89      0.00
   11   25   25      0.69      0.00
   13   25   25     -1.82      0.00
    1   27   25      1.49      0.00
    3   27   25     -2.34      0.00
    5   27   25      2.36      0.00
    7   27   25      0.78      0.00
    9   27   25      0.80      0.00
   11   27   25     -0.91      0.00
   13   27   25      1.02      0.00
    1   29   25     -0.46      0.00
    3   29   25      2.11      0.00
    5   29   25     -1.06      0.00
    7   29   25      0.77      0.00
    9   29   25     -0.01      0.00
   11   29   25      0.01      0.00
    1   31   25      0.54      0.00
    3   31   25     -0.73      0.00
    5   31   25     -1.57      0.00
    7   31   25     -1.10      0.00
    9   31   25     -0.42      0.00
    1   33   25      0.71      0.00
    3   33   25     -0.38      0.00
    5   33   25      0.23      0.00
    7   33   25      0.30      0.00
    9   33   25      0.09      0.00
   12    0   26     -1.98      0.00
   14    0   26      2.71      0.00
   16    0   26     -0.89      0.00
   18    0   26     -0.25      0.00
   12    2   26    -13.71      0.00
   14    2   26      5.24      0.00
   16    2   26     -0.97      0.00
   18    2   26      0.75      0.00
   12    4   26      4.02      0.00
   14    4   26     -3.84      0.00
   16    4   26      0.71      0.00
   18    4   26     -0.44      0.00
   12    6   26      6.29      0.00
   14    6   26     -1.44      0.00
   16    6   26     -0.45      0.00
   18    6   26     -0.28      0.00
   12    8   26     -0.83      0.00
   14    8   26      3.09      0.00
   16    8   26     -0.82      0.00
   18    8   26     -0.37      0.00
   12   10   26      8.51      0.00
   14   10   26     -2.54      0.00
   16   10   26      3.45      0.00
   18   10   26     -0.07      0.00
   12   12   26      1.76      0.00
   14   12   26     -1.33      0.00
   16   12   26      2.28      0.00
   18   12   26     -1.42      0.00
   10   14   26      7.16      0.00
   12   14   26     -1.80      0.00
   14   14   26     -2.00      0.00
   16   14   26     -1.77      0.00
   18   14   26     -0.26      0.00
   10   16   26     -1.94      0.00
   12   16   26      4.46      0.00
   14   16   26      0.15      0.00
   16   16   26     -1.65      0.00
    8   18   26      2.24      0.00
   10   18   26     -5.58      0.00
   12   18   26      0.95      0.00
   14   18   26      1.81      0.00
   16   18   26     -0.76      0.00
    6   20   26      2.37      0.00
    8   20   26      0.92      0.00
   10   20   26      0.48      0.00
   12   20   26     -0.59      0.00
   14   20   26      0.87      0.00
   16   20   26     -1.66      0.00
    2   22   26      0.02      0.00
    4   22   26     -1.73      0.00
    6   22   26      3.08      0.00
    8   22   26     -3.00      0.00
   10   22   26      2.08      0.00
   12   22   26     -4.23      0.00
   14   22   26      1.02      0.00
    0   24   26      0.62      0.00
    2   24   26      0.29      0.00
    4   24   26     -0.39      0.00
    6   24   26      1.29      0.00
    8   24   26     -0.67      0.00
   10   24   26      0.80      0.00
   12   24   26      0.26      0.00
   14   24   26      1.72      0.00
    0   26   26     -0.47      0.00
    2   26   26      1.05      0.00
    4   26   26      0.97      0.00
    6   26   26     -1.26      0.00
    8   26   26      0.76      0.00
   10   26   26     -1.80      0.00
   12   26   26      1.06      0.00
    0   28   26     -0.15      0.00
    2   28   26      0.24      0.00
    4   28   26      0.04      0.00
    6   28   26     -2.51      0.00
    8   28   26     -0.84      0.00
   10   28   26     -1.25      0.00
   12   28   26      0.84      0.00
    0   30   26      0.99      0.00
    2   30   26     -0.45      0.00
    4   30   26      1.46      0.00
    6   30   26      0.22      0.00
    8   30   26      0.94      0.00
   10   30   26     -1.64      0.00
    0   32   26     -0.30      0.00
    2   32   26      0.10      0.00
    4   32   26     -0.47      0.00
    6   32   26      0.54      0.00
    8   32   26      0.20      0.00
   13    1   27     -0.62      0.00
   15    1   27     -2.80      0.00
   17    1   27      1.04      0.00
   13    3   27      4.96      0.00
   15    3   27     -2.17      0.00
   17    3   27     -0.18      0.00
   11    5   27     -2.32      0.00
   13    5   27      1.67      0.00
   15    5   27      0.80      0.00
   17    5   27      0.40      0.00
   11    7   27     -9.23      0.00
   13    7   27      1.41      0.00
   15    7   27     -0.08      0.00
   17    7   27     -1.03      0.00
   11    9   27     -1.99      0.00
   13    9   27      1.89      0.00
   15    9   27     -0.91      0.00
   17    9   27     -3.36      0.00
   11   11   27      0.54      0.00
   13   11   27     -2.47      0.00
   15   11   27      1.52      0.00
   17   11   27     -1.42      0.00
    9   13   27     -5.56      0.00
   11   13   27     -7.17      0.00
   13   13   27      3.21      0.00
   15   13   27      2.35      0.00
   17   13   27      0.10      0.00
    9   15   27      1.41      0.00
   11   15   27     -3.26      0.00
   13   15   27      1.13      0.00
   15   15   27     -1.29      0.00
   17   15   27      1.32      0.00
    7   17   27     -8.12      0.00
    9   17   27      2.14      0.00
   11   17   27      1.53      0.00
   13   17   27     -2.72      0.00
   15   17   27     -0.70      0.00
    5   19   27      3.44      0.00
    7   19   27      0.24      0.00
    9   19   27     -2.16      0.00
   11   19   27     -1.86      0.00
   13   19   27     -2.66      0.00
   15   19   27      2.88      0.00
    1   21   27     -6.29      0.00
    3   21   27     -5.36      0.00
    5   21   27      4.86      0.00
    7   21   27     -1.04      0.00
    9   21   27      2.56      0.00
   11   21   27      0.99      0.00
   13   21   27     -0.88      0.00
   15   21   27      0.83      0.00
    1   23   27     -0.44      0.00
    3   23   27     -0.73      0.00
    5   23   27     -1.77      0.00
    7   23   27     -2.50      0.00
    9   23   27      1.69      0.00
   11   23   27      0.08      0.00
   13   23   27      0.10      0.00
    1   25   27     -0.11      0.00
    3   25   27      0.06      0.00
    5   25   27      0.63      0.00
    7   25   27     -0.19      0.00
    9   25   27     -0.47      0.00
   11   25   27     -0.88      0.00
   13   25   27      0.05      0.00
    1   27   27      0.29      0.00
    3   27   27      1.96      0.00
    5   27   27      0.31      0.00
    7   27   27      1.05      0.00
    9   27   27      0.13      0.00
   11   27   27     -0.95      0.00
    1   29   27      0.40      0.00
    3   29   27     -1.80      0.00
    5   29   27     -0.50      0.00
    7   29   27      0.29      0.00
    9   29   27      1.80      0.00
   11   29   27      0.23      0.00
    1   31   27     -0.21      0.00
    3   31   27      1.32      0.00
    5   31   27     -0.35      0.00
    7   31   27     -0.91      0.00
    9   31   27      0.18      0.00
    1   33   27     -0.87      0.00
    3   33   27      0.09      0.00
    5   33   27      1.31      0.00
    7   33   27      0.34      0.00
   12    0   28     -8.32      0.00
   14    0   28      2.02      0.00
   16    0   28     -0.03      0.00
   18    0   28      1.42      0.00
   12    2   28     -1.11      0.00
   14    2   28      0.96      0.00
   16    2   28     -1.50      0.00
   18    2   28      0.81      0.00
   12    4   28     -6.01      0.00
   14    4   28      1.76      0.00
   16    4   28     -0.94      0.00
   18    4   28      0.81      0.00
   12    6   28     -2.66      0.00
   14    6   28      0.11      0.00
   16    6   28     -0.74      0.00
   18    6   28     -1.06      0.00
   10    8   28     -0.59      0.00
   12    8   28     -1.02      0.00
   14    8   28      1.01      0.00
   16    8   28      0.89      0.00
   18    8   28     -1.32      0.00
   10   10   28      4.16      0.00
   12   10   28     -1.40      0.00
   14   10   28     -1.90      0.00
   16   10   28      2.18      0.00
   18   10   28     -1.50      0.00
   10   12   28     -1.62      0.00
   12   12   28      3.49      0.00
   14   12   28     -0.88      0.00
   16   12   28     -0.11      0.00
    8   14   28     -8.73      0.00
   10   14   28      4.22      0.00
   12   14   28     -0.10      0.00
   14   14   28     -0.85      0.00
   16   14   28      1.22      0.00
    8   16   28      4.26      0.00
   10   16   28     -4.87      0.00
   12   16   28     -0.58      0.00
   14   16   28      0.60      0.00
   16   16   28      0.32      0.00
    6   18   28      1.14      0.00
    8   18   28      0.32      0.00
   10   18   28      5.73      0.00
   12   18   28      0.89      0.00
   14   18   28     -0.20      0.00
   16   18   28     -1.75      0.00
    0   20   28     11.43      0.00
    2   20   28      4.54      0.00
    4   20   28      2.34      0.00
    6   20   28     -3.89      0.00
    8   20   28     -2.30      0.00
   10   20   28      0.36      0.00
   12   20   28     -1.01      0.00
   14   20   28      2.05      0.00
    0   22   28     -3.14      0.00
    2   22   28      4.98      0.00
    4   22   28     -1.34      0.00
    6   22   28      1.98      0.00
    8   22   28     -2.53      0.00
   10   22   28      1.19      0.00
   12   22   28     -2.14      0.00
   14   22   28      1.01      0.00
    0   24   28     -0.59      0.00
    2   24   28     -0.05      0.00
    4   24   28     -0.44      0.00
    6   24   28      2.11      0.00
    8   24   28      1.12      0.00
   10   24   28     -0.04      0.00
   12   24   28     -0.87      0.00
    0   26   28      2.97      0.00
    2   26   28     -2.05      0.00
    4   26   28     -1.65      0.00
    6   26   28     -1.75      0.00
    8   26   28      1.58      0.00
   10   26   28      1.29      0.00
   12   26   28      2.65      0.00
    0   28   28      0.71      0.00
    2   28   28      0.15      0.00
    4   28   28      2.19      0.00
    6   28   28     -0.14      0.00
    8   28   28      0.43      0.00
   10   28   28     -1.57      0.00
    0   30   28      0.70      0.00
    2   30   28     -0.57      0.00
    4   30   28      0.53      0.00
    6   30   28      0.49      0.00
    8   30   28      1.51      0.00
    0   32   28      0.55      0.00
    2   32   28      1.67      0.00
    4   32   28     -1.50      0.00
    6   32   28     -1.27      0.00
   11    1   29      6.18      0.00
   13    1   29     -1.17      0.00
   15    1   29      0.71      0.00
   17    1   29      1.95      0.00
   11    3   29      7.09      0.00
   13    3   29     -3.96      0.00
   15    3   29      1.42      0.00
   17    3   29     -0.09      0.00
   11    5   29     -2.63      0.00
   13    5   29      3.25      0.00
   15    5   29      0.28      0.00
   17    5   29     -0.22      0.00
   11    7   29      0.15      0.00
   13    7   29      1.25      0.00
   15    7   29     -1.20      0.00
   17    7   29      2.28      0.00
    9    9   29      0.54      0.00
   11    9   29      2.04      0.00
   13    9   29     -0.81      0.00
   15    9   29      1.12      0.00
   17    9   29     -0.46      0.00
    9   11   29     -1.97      0.00
   11   11   29      1.07      0.00
   13   11   29     -1.32      0.00
   15   11   29      1.98      0.00
   17   11   29      0.46      0.00
    7   13   29      5.08      0.00
    9   13   29      3.15      0.00
   11   13   29      2.52      0.00
   13   13   29     -0.54      0.00
   15   13   29     -0.58      0.00
   17   13   29      0.33      0.00
    7   15   29     -2.06      0.00
    9   15   29      3.61      0.00
   11   15   29      0.92      0.00
   13   15   29      4.02      0.00
   15   15   29     -1.80      0.00
    5   17   29     -3.09      0.00
    7   17   29     -4.81      0.00
    9   17   29     -3.15      0.00
   11   17   29     -1.21      0.00
   13   17   29     -0.64      0.00
   15   17   29      0.93      0.00
    1   19   29     -4.11      0.00
    3   19   29     -0.28      0.00
    5   19   29     -4.11      0.00
    7   19   29      1.97      0.00
    9   19   29      0.35      0.00
   11   19   29     -0.14      0.00
   13   19   29     -1.41      0.00
   15   19   29      1.79      0.00
    1   21   29      0.12      0.00
    3   21   29     -1.71      0.00
    5   21   29     -0.39      0.00
    7   21   29      1.49      0.00
    9   21   29     -0.90      0.00
   11   21   29      1.15      0.00
   13   21   29     -0.67      0.00
    1   23   29      1.39      0.00
    3   23   29      0.45      0.00
    5   23   29     -0.20      0.00
    7   23   29     -0.38      0.00
    9   23   29      0.94      0.00
   11   23   29      1.21      0.00
   13   23   29      0.55      0.00
    1   25   29      0.14      0.00
    3   25   29      0.89      0.00
    5   25   29      3.69      0.00
    7   25   29     -2.46      0.00
    9   25   29     -0.43      0.00
   11   25   29     -1.37      0.00
    1   27   29     -1.25      0.00
    3   27   29     -1.05      0.00
    5   27   29     -0.40      0.00
    7   27   29      0.86      0.00
    9   27   29      1.71      0.00
   11   27   29     -1.40      0.00
    1   29   29     -0.51      0.00
    3   29   29     -0.29      0.00
    5   29   29     -1.16      0.00
    7   29   29     -1.96      0.00
    9   29   29     -0.82      0.00
    1   31   29     -1.92      0.00
    3   31   29      0.40      0.00
    5   31   29     -0.85      0.00
    7   31   29      0.90      0.00
    1   33   29      1.11      0.00
    3   33   29      1.23      0.00
    0    0   30     23.47      0.00
   10    0   30     -4.58      0.00
   12    0   30      2.94      0.00
   14    0   30      1.84      0.00
   16    0   30     -1.25      0.00
    0    2   30     41.08      0.00
   10    2   30     -4.43      0.00
   12    2   30      2.22      0.00
   14    2   30     -0.82      0.00
   16    2   30     -0.17      0.00
    0    4   30     12.33      0.00
   10    4   30     -3.24      0.00
   12    4   30      0.15      0.00
   14    4   30      1.25      0.00
   16    4   30     -2.60      0.00
   10    6   30     -2.98      0.00
   12    6   30      1.15      0.00
   14    6   30      0.21      0.00
   16    6   30     -0.75      0.00
    8    8   30     -3.55      0.00
   10    8   30      1.60      0.00
   12    8   30     -2.45      0.00
   14    8   30      0.90      0.00
   16    8   30      2.10      0.00
    8   10   30      0.10      0.00
   10   10   30     -0.21      0.00
   12   10   30      0.90      0.00
   14   10   30      1.96      0.00
   16   10   30     -0.83      0.00
    8   12   30     -3.84      0.00
   10   12   30     -1.20      0.00
   12   12   30      0.58      0.00
   14   12   30     -2.25      0.00
   16   12   30      2.17      0.00
    6   14   30      0.15      0.00
    8   14   30     -3.58      0.00
   10   14   30     -2.63      0.00
   12   14   30     -1.16      0.00
   14   14   30     -1.79      0.00
   16   14   30      1.11      0.00
    4   16   30      7.04      0.00
    6   16   30     -2.27      0.00
    8   16   30     -0.39      0.00
   10   16   30      1.55      0.00
   12   16   30     -1.41      0.00
   14   16   30     -0.10      0.00
    0   18   30     -3.68      0.00
    2   18   30      2.18      0.00
    4   18   30     -2.94      0.00
    6   18   30      4.91      0.00
    8   18   30      1.49      0.00
   10   18   30     -0.59      0.00
   12   18   30      0.27      0.00
   14   18   30      1.68      0.00
    0   20   30      0.39      0.00
    2   20   30     -2.22      0.00
    4   20   30      0.58      0.00
    6   20   30      1.59      0.00
    8   20   30     -1.21      0.00
   10   20   30      2.01      0.00
   12   20   30     -1.76      0.00
   14   20   30      0.57      0.00
    0   22   30     -3.89      0.00
    2   22   30     -2.89      0.00
    4   22   30      0.75      0.00
    6   22   30      0.65      0.00
    8   22   30     -0.97      0.00
   10   22   30     -0.74      0.00
   12   22   30     -2.03      0.00
    0   24   30      1.99      0.00
    2   24   30     -1.44      0.00
    4   24   30     -0.93      0.00
    6   24   30      0.82      0.00
    8   24   30     -0.47      0.00
   10   24   30      2.00      0.00
   12   24   30     -0.83      0.00
    0   26   30      0.51      0.00
    2   26   30     -1.34      0.00
    4   26   30      1.00      0.00
    6   26   30     -1.20      0.00
    8   26   30     -0.68      0.00
   10   26   30     -0.96      0.00
    0   28   30     -0.22      0.00
    2   28   30      0.87      0.00
    4   28   30      1.47      0.00
    6   28   30      0.59      0.00
    8   28   30      1.64      0.00
    0   30   30     -0.01      0.00
    2   30   30      0.33      0.00
    4   30   30      0.93      0.00
    6   30   30      0.36      0.00
    0   32   30      0.56      0.00
    2   32   30     -1.27      0.00
    4   32   30     -0.71      0.00
    9    1   31      0.37      0.00
   11    1   31     -4.50      0.00
   13    1   31      0.61      0.00
   15    1   31     -2.44      0.00
   17    1   31     -0.48      0.00
    9    3   31      3.77      0.00
   11    3   31     -1.72      0.00
   13    3   31     -0.84      0.00
   15    3   31      3.58      0.00
   17    3   31     -1.63      0.00
    9    5   31      0.28      0.00
   11    5   31     -0.23      0.00
   13    5   31     -1.74      0.00
   15    5   31      0.63      0.00
   17    5   31      0.95      0.00
    9    7   31      3.48      0.00
   11    7   31     -0.53      0.00
   13    7   31      1.61      0.00
   15    7   31     -0.44      0.00
   17    7   31     -0.92      0.00
    7    9   31      4.17      0.00
    9    9   31     -3.24      0.00
   11    9   31     -0.51      0.00
   13    9   31     -1.17      0.00
   15    9   31     -1.37      0.00
    7   11   31      0.61      0.00
    9   11   31     -4.35      0.00
   11   11   31      1.00      0.00
   13   11   31     -1.04      0.00
   15   11   31      0.17      0.00
    5   13   31     -0.07      0.00
    7   13   31      6.00      0.00
    9   13   31     -1.18      0.00
   11   13   31     -0.44      0.00
   13   13   31      1.03      0.00
   15   13   31     -0.25      0.00
    1   15   31     -6.26      0.00
    3   15   31      3.17      0.00
    5   15   31     -2.96      0.00
    7   15   31      2.11      0.00
    9   15   31      1.08      0.00
   11   15   31     -0.35      0.00
   13   15   31      0.82      0.00
   15   15   31     -0.99      0.00
    1   17   31      0.85      0.00
    3   17   31     -0.09      0.00
    5   17   31     -3.93      0.00
    7   17   31      2.21      0.00
    9   17   31     -1.08      0.00
   11   17   31      0.08      0.00
   13   17   31     -0.05      0.00
    1   19   31     -1.38      0.00
    3   19   31      3.37      0.00
    5   19   31      2.44      0.00
    7   19   31     -0.80      0.00
    9   19   31     -1.70      0.00
   11   19   31      0.73      0.00
   13   19   31     -2.09      0.00
    1   21   31      2.46      0.00
    3   21   31      0.11      0.00
    5   21   31     -0.42      0.00
    7   21   31     -0.28      0.00
    9   21   31      1.46      0.00
   11   21   31      1.03      0.00
   13   21   31     -1.35      0.00
    1   23   31      0.94      0.00
    3   23   31     -1.26      0.00
    5   23   31      1.27      0.00
    7   23   31     -0.79      0.00
    9   23   31     -0.65      0.00
   11   23   31      0.58      0.00
    1   25   31     -0.60      0.00
    3   25   31      1.46      0.00
    5   25   31     -0.63      0.00
    7   25   31      1.69      0.00
    9   25   31      0.86      0.00
   11   25   31      0.49      0.00
    1   27   31      0.13      0.00
    3   27   31      0.34      0.00
    5   27   31     -1.51      0.00
    7   27   31      0.01      0.00
    9   27   31      0.25      0.00
    1   29   31      0.34      0.00
    3   29   31     -0.66      0.00
    5   29   31     -1.22      0.00
    7   29   31     -0.18      0.00
    1   31   31      0.61      0.00
    3   31   31     -0.13      0.00
    5   31   31      0.65      0.00
    0    0   32     25.08      0.00
    8    0   32     -6.36      0.00
   10    0   32      2.09      0.00
   12    0   32     -0.88      0.00
   14    0   32      0.28      0.00
   16    0   32      1.92      0.00
    0    2   32      7.35      0.00
    8    2   32      0.31      0.00
   10    2   32      0.73      0.00
   12    2   32     -0.27      0.00
   14    2   32      0.88      0.00
   16    2   32     -1.05      0.00
    0    4   32     -9.86      0.00
    8    4   32      6.39      0.00
   10    4   32      2.25      0.00
   12    4   32      1.09      0.00
   14    4   32     -0.75      0.00
   16    4   32     -0.87      0.00
    0    6   32     -6.16      0.00
    6    6   32    -11.10      0.00
    8    6   32     -0.79      0.00
   10    6   32      0.50      0.00
   12    6   32     -0.47      0.00
   14    6   32      0.44      0.00
   16    6   32      0.95      0.00
    0    8   32     -5.66      0.00
    6    8   32     -0.21      0.00
    8    8   32      0.44      0.00
   10    8   32     -0.36      0.00
   12    8   32      0.61      0.00
   14    8   32      0.52      0.00
   16    8   32      0.93      0.00
    0   10   32      0.90      0.00
    6   10   32     -6.68      0.00
    8   10   32      3.83      0.00
   10   10   32      1.38      0.00
   12   10   32      0.29      0.00
   14   10   32     -0.17      0.00
   16   10   32     -0.37      0.00
    0   12   32      5.25      0.00
    4   12   32     -1.19      0.00
    6   12   32     -3.88      0.00
    8   12   32      1.62      0.00
   10   12   32      1.67      0.00
   12   12   32      1.64      0.00
   14   12   32     -0.32      0.00
    0   14   32     10.82      0.00
    2   14   32     -3.09      0.00
    4   14   32      1.04      0.00
    6   14   32     -3.48      0.00
    8   14   32      2.30      0.00
   10   14   32     -3.67      0.00
   12   14   32      2.62      0.00
   14   14   32     -0.96      0.00
    0   16   32      0.34      0.00
    2   16   32      1.03      0.00
    4   16   32      0.23      0.00
    6   16   32      2.33      0.00
    8   16   32     -2.70      0.00
   10   16   32      2.34      0.00
   12   16   32     -0.94      0.00
   14   16   32      0.28      0.00
    0   18   32      4.60      0.00
    2   18   32     -0.61      0.00
    4   18   32     -0.74      0.00
    6   18   32     -1.42      0.00
    8   18   32     -1.21      0.00
   10   18   32      2.58      0.00
   12   18   32     -0.71      0.00
    0   20   32      3.19      0.00
    2   20   32     -1.12      0.00
    4   20   32     -1.06      0.00
    6   20   32      0.92      0.00
    8   20   32     -2.86      0.00
   10   20   32      2.03      0.00
   12   20   32     -1.11      0.00
    0   22   32      1.43      0.00
    2   22   32     -1.54      0.00
    4   22   32      3.19      0.00
    6   22   32     -1.84      0.00
    8   22   32     -0.10      0.00
   10   22   32      1.12      0.00
   12   22   32      0.29      0.00
    0   24   32      0.09      0.00
    2   24   32      0.10      0.00
    4   24   32     -0.71      0.00
    6   24   32     -0.04      0.00
    8   24   32      0.35      0.00
   10   24   32     -1.00      0.00
    0   26   32      1.31      0.00
    2   26   32     -0.12      0.00
    4   26   32     -0.99      0.00
    6   26   32     -0.09      0.00
    8   26   32     -1.17      0.00
    0   28   32     -0.85      0.00
    2   28   32     -1.45      0.00
    4   28   32      0.60      0.00
    6   28   32     -0.67      0.00
    0   30   32     -0.20      0.00
    2   30   32     -0.40      0.00
    4   30   32      1.47      0.00
    1    1   33      1.55      0.00
    7    1   33     -4.29      0.00
    9    1   33      3.51      0.00
   11    1   33      1.82      0.00
   13    1   33      0.83      0.00
   15    1   33      1.15      0.00
    1    3   33     -2.26      0.00
    7    3   33     -1.40      0.00
    9    3   33     -2.97      0.00
   11    3   33     -0.54      0.00
   13    3   33     -0.03      0.00
   15    3   33     -0.38      0.00
    1    5   33      4.80      0.00
    5    5   33      8.25      0.00
    7    5   33     -7.35      0.00
    9    5   33     -0.68      0.00
   11    5   33     -1.27      0.00
   13    5   33      0.42      0.00
   15    5   33      1.46      0.00
    1    7   33      3.20      0.00
    5    7   33      1.09      0.00
    7    7   33      2.00      0.00
    9    7   33      2.30      0.00
   11    7   33     -0.62      0.00
   13    7   33      1.68      0.00
   15    7   33     -2.19      0.00
    1    9   33     -2.29      0.00
    3    9   33      4.27      0.00
    5    9   33      3.45      0.00
    7    9   33     -2.90      0.00
    9    9   33     -1.40      0.00
   11    9   33      1.60      0.00
   13    9   33      0.71      0.00
   15    9   33     -0.75      0.00
    1   11   33      1.71      0.00
    3   11   33      0.57      0.00
    5   11   33     -0.79      0.00
    7   11   33      0.02      0.00
    9   11   33     -0.53      0.00
   11   11   33     -1.42      0.00
   13   11   33     -0.31      0.00
   15   11   33      1.51      0.00
    1   13   33      0.33      0.00
    3   13   33      0.71      0.00
    5   13   33     -1.16      0.00
    7   13   33      0.53      0.00
    9   13   33     -0.63      0.00
   11   13   33      0.81      0.00
   13   13   33      0.29      0.00
    1   15   33     -0.51      0.00
    3   15   33      0.45      0.00
    5   15   33     -2.15      0.00
    7   15   33      0.90      0.00
    9   15   33     -3.01      0.00
   11   15   33      1.10      0.00
   13   15   33     -0.96      0.00
    1   17   33     -1.07      0.00
    3   17   33      0.63      0.00
    5   17   33      0.92      0.00
    7   17   33      1.82      0.00
    9   17   33     -1.35      0.00
   11   17   33     -0.96      0.00
   13   17   33      0.41      0.00
    1   19   33     -0.85      0.00
    3   19   33      0.83      0.00
    5   19   33     -1.81      0.00
    7   19   33      0.99      0.00
    9   19   33      0.74      0.00
   11   19   33      1.29      0.00
    1   21   33     -1.49      0.00
    3   21   33     -0.65      0.00
    5   21   33     -0.68      0.00
    7   21   33      1.97      0.00
    9   21   33     -0.85      0.00
   11   21   33      0.10      0.00
    1   23   33      0.36      0.00
    3   23   33     -0.80      0.00
    5   23   33     -0.30      0.00
    7   23   33     -0.06      0.00
    9   23   33     -1.48      0.00
    1   25   33     -1.16      0.00
    3   25   33      0.55      0.00
    5   25   33     -0.35      0.00
    7   25   33      0.25      0.00
    9   25   33     -0.36      0.00
    1   27   33      0.23      0.00
    3   27   33      0.46      0.00
    5   27   33      2.28      0.00
    7   27   33      0.23      0.00
    1   29   33      0.44      0.00
    3   29   33     -1.02      0.00
    5   29   33     -1.32      0.00
    0    0   34     -7.17      0.00
    4    0   34     -4.74      0.00
    6    0   34      6.63      0.00
    8    0   34      1.49      0.00
   10    0   34     -1.84      0.00
   12    0   34     -3.06      0.00
   14    0   34      0.33      0.00
    0    2   34     -3.57      0.00
    4    2   34      1.77      0.00
    6    2   34      5.53      0.00
    8    2   34     -2.08      0.00
   10    2   34      0.80      0.00
   12    2   34     -0.06      0.00
   14    2   34     -0.27      0.00
    0    4   34      0.28      0.00
    4    4   34      2.67      0.00
    6    4   34      1.86      0.00
    8    4   34      0.60      0.00
   10    4   34     -0.22      0.00
   12    4   34      1.78      0.00
   14    4   34      0.74      0.00
    0    6   34     -3.81      0.00
    2    6   34      6.65      0.00
    4    6   34     -3.96      0.00
    6    6   34      2.03      0.00
    8    6   34      2.51      0.00
   10    6   34     -1.11      0.00
   12    6   34     -0.01      0.00
   14    6   34      0.00      0.00
    0    8   34      0.74      0.00
    2    8   34      0.43      0.00
    4    8   34      4.36      0.00
    6    8   34     -2.56      0.00
    8    8   34     -1.04      0.00
   10    8   34     -0.94      0.00
   12    8   34     -0.11      0.00
   14    8   34     -0.64      0.00
    0   10   34      2.31      0.00
    2   10   34     -1.50      0.00
    4   10   34      1.48      0.00
    6   10   34      0.93      0.00
    8   10   34      1.15      0.00
   10   10   34     -1.61      0.00
   12   10   34      0.88      0.00
   14   10   34     -1.29      0.00
    0   12   34     -0.38      0.00
    2   12   34      0.51      0.00
    4   12   34      1.34      0.00
    6   12   34      0.54      0.00
    8   12   34      1.95      0.00
   10   12   34     -2.66      0.00
   12   12   34      0.21      0.00
   14   12   34     -1.51      0.00
    0   14   34     -0.99      0.00
    2   14   34     -1.90      0.00
    4   14   34      3.12      0.00
    6   14   34     -0.20      0.00
    8   14   34      1.37      0.00
   10   14   34     -0.56      0.00
   12   14   34      0.37      0.00
    0   16   34     -2.02      0.00
    2   16   34      0.06      0.00
    4   16   34     -1.49      0.00
    6   16   34     -1.44      0.00
    8   16   34     -0.16      0.00
   10   16   34      1.25      0.00
   12   16   34      0.93      0.00
    0   18   34      0.85      0.00
    2   18   34     -2.33      0.00
    4   18   34      1.68      0.00
    6   18   34      0.86      0.00
    8   18   34     -0.72      0.00
   10   18   34      1.08      0.00
   12   18   34     -2.74      0.00
    0   20   34      1.43      0.00
    2   20   34     -0.40      0.00
    4   20   34      0.80      0.00
    6   20   34      0.75      0.00
    8   20   34     -0.42      0.00
   10   20   34     -0.57      0.00
    0   22   34      2.68      0.00
    2   22   34     -1.09      0.00
    4   22   34      0.50      0.00
    6   22   34      0.83      0.00
    8   22   34     -0.39      0.00
   10   22   34      2.48      0.00
    0   24   34     -0.86      0.00
    2   24   34     -0.52      0.00
    4   24   34      1.07      0.00
    6   24   34     -0.84      0.00
    8   24   34      0.08      0.00
    0   26   34      2.13      0.00
    2   26   34     -0.38      0.00
    4   26   34     -1.95      0.00
    6   26   34     -0.13      0.00
    0   28   34      0.14      0.00
    2   28   34      0.12      0.00
    4   28   34      1.23      0.00
    0    0    0      0.00      0.00
# SQUEEZE RESULTS
# Note: Data are Listed for all Voids in the P1 Unit Cell
# i.e. Centre of Gravity, Solvent Accessible Volume,
# Recovered number of Electrons in the Void and
# Details about the Squeezed Material
loop_
  _platon_squeeze_void_nr
  _platon_squeeze_void_average_x
  _platon_squeeze_void_average_y
  _platon_squeeze_void_average_z
  _platon_squeeze_void_volume
  _platon_squeeze_void_count_electrons
  _platon_squeeze_void_content
   1 -0.017 -0.011 -0.004     14967      4326 ' '
_platon_squeeze_details
(replace by semicolon in column 1 when used as .sqf)
TITL qq in Fmmm
CELL   18.1834   33.7440   34.4890     90.00     90.00     90.00
SPGR Fmmm
# Solvent Accessible Volume =   15025.3
# Electrons Found in S.A.V. =    4294.5
# Note: Atoms in Void as Cxxx and Qxxx all others
C101 1.001 0.363 0.078 !       2.02 eA-3
C102 0.499 0.187 0.113 !       1.70 eA-3
C103 1.001 0.328 0.138 !       1.70 eA-3
C104 1.002 0.501 0.219 !       1.55 eA-3
Q105 0.878 0.203 0.179 !       1.35 eA-3
C106 0.243 0.497 0.157 !       1.23 eA-3
C107 0.500 0.327 0.250 !       1.20 eA-3
C108 0.999 0.024 0.259 !       1.19 eA-3
C109 1.001 0.176 0.204 !       1.16 eA-3
C110 0.242 0.007 0.084 !       1.16 eA-3
Q111 0.907 0.313 0.003 !       1.14 eA-3
C112 1.000 0.051 0.257 !       1.07 eA-3
C113 0.307 0.244 0.412 !       1.05 eA-3
C114 0.032 0.185 0.215 !       1.05 eA-3
Q115 1.000 0.504 0.070 !       1.04 eA-3
Q116 0.686 0.061 0.455 !       1.04 eA-3
Q117 0.783 0.111 0.003 !       1.02 eA-3
Q118 0.283 0.611 1.003 !       1.02 eA-3
C119 0.524 0.044 0.249 !       1.02 eA-3
Q120 0.825 0.057 0.014 !       1.02 eA-3
C121 0.756 0.503 0.305 !       1.01 eA-3
C122 0.736 0.024 0.426 !       1.01 eA-3
C123 0.768 0.253 0.080 !       0.98 eA-3
C124 0.706 0.503 0.070 !       0.98 eA-3
C125 0.216 0.162 0.000 !       0.98 eA-3
Q126 0.704 0.431-0.001 !       0.97 eA-3
Q127 0.687 0.084 0.467 !       0.97 eA-3
C128 0.733 0.284 0.438 !       0.97 eA-3
C129 0.207 0.126-0.001 !       0.97 eA-3
C130 0.768 0.231 0.089 !       0.95 eA-3
C131 0.753 0.281 0.939 !       0.94 eA-3
C132 0.731 0.503 0.123 !       0.93 eA-3
C133 0.686 0.112 0.477 !       0.92 eA-3
Q134 0.658 0.069 0.478 !       0.91 eA-3
C135 0.151 0.078 0.174 !       0.91 eA-3
C136 0.651 0.578 0.174 !       0.91 eA-3
C137 0.302 0.229 0.582 !       0.90 eA-3
C138 0.856 0.577 0.675 !       0.90 eA-3
C139 0.872 0.076 0.195 !       0.89 eA-3
C140 0.372 0.076 0.695 !       0.89 eA-3
C141 0.124 0.247 0.085 !       0.89 eA-3
C142 0.893 0.087 0.812 !       0.88 eA-3
C143 0.681 0.466 0.102 !       0.88 eA-3
C144 0.237 0.498 0.226 !       0.86 eA-3
C145 0.919 0.169 0.198 !       0.86 eA-3
Q146 0.750 0.251 0.344 !       0.84 eA-3
C147 0.237 0.483 0.255 !       0.84 eA-3
C148 0.363 0.052 0.339 !       0.84 eA-3
C149 0.380 0.412 0.143 !       0.84 eA-3
C150 0.856 0.438 0.412 !       0.84 eA-3
C151 0.664 0.453 0.131 !       0.84 eA-3
C152 0.280 0.472 0.125 !       0.83 eA-3
C153 0.501 0.117 0.382 !       0.83 eA-3
C154 0.738 0.140-0.005 !       0.82 eA-3
C155 0.583 0.270 0.407 !       0.82 eA-3
C156 0.583 0.770 0.907 !       0.82 eA-3
Q157 0.050 0.170 0.452 !       0.82 eA-3
C158 0.717 0.469 0.252 !       0.82 eA-3
C159 0.840 0.273 0.074 !       0.81 eA-3
C160 0.876 0.915 0.102 !       0.81 eA-3
C161 0.376 0.415 0.102 !       0.81 eA-3
C162 0.354 0.213 0.414 !       0.80 eA-3
C163 0.720 0.229 0.375 !       0.80 eA-3
C164 0.251 0.253 0.391 !       0.80 eA-3
C165 0.198 0.313 0.442 !       0.79 eA-3
C166 0.182 0.062 0.195 !       0.79 eA-3
C167 0.499 0.499 0.000 !       0.79 eA-3
Q168 0.242 0.898 1.000 !       0.79 eA-3
C169 0.587 0.365 0.202 !       0.78 eA-3
C170 0.723 0.237 0.061 !       0.78 eA-3
Q171 0.406 0.055-0.001 !       0.78 eA-3
C172 0.361 0.398 0.103 !       0.78 eA-3
Q173 0.138 0.359-0.002 !       0.77 eA-3
C174 0.904 0.393 0.383 !       0.77 eA-3
C175 0.581 0.351 0.150 !       0.77 eA-3
Q176 1.000 0.469-0.001 !       0.77 eA-3
C177 0.509 0.419 0.221 !       0.77 eA-3
C178 0.086 0.361 0.656 !       0.77 eA-3
C179 0.586 0.861 0.656 !       0.77 eA-3
C180 0.626 0.104 0.320 !       0.77 eA-3
Q181 0.187 0.335 0.017 !       0.77 eA-3
C182 0.529 0.440 0.195 !       0.76 eA-3
C183 0.499 0.229 0.106 !       0.75 eA-3
C184 0.161 0.047 0.177 !       0.75 eA-3
C185 0.800 0.460 0.384 !       0.75 eA-3
C186 0.678 0.495 0.265 !       0.75 eA-3
C187 0.018 0.420 0.319 !       0.74 eA-3
C188 0.039 0.498 0.259 !       0.74 eA-3
C189 0.644 0.125 0.484 !       0.73 eA-3
C190 0.993 0.501 0.289 !       0.73 eA-3
C191 0.296 0.201 0.437 !       0.73 eA-3
C192 0.592 0.045 0.273 !       0.72 eA-3
C193 0.369 0.263 0.427 !       0.72 eA-3
C194 0.421 0.118 0.391 !       0.72 eA-3
C195 0.413 0.841 0.398 !       0.72 eA-3
C196 0.913 0.341 0.398 !       0.72 eA-3
C197 1.001 0.264-0.003 !       0.72 eA-3
C198 0.866 0.364 0.438 !       0.72 eA-3
C199 0.680 0.153 0.460 !       0.72 eA-3
(replace by semicolon in column 1 when used as .sqf)
;
_shelx_fab_checksum              52521
_olex2_submission_special_instructions 'No special instructions were received'
loop_
_space_group_symop_operation_xyz
'x, y, z'
'-x, -y, z'
'x, -y, -z'
'-x, y, -z'
'x, y+1/2, z+1/2'
'-x, -y+1/2, z+1/2'
'x, -y+1/2, -z+1/2'
'-x, y+1/2, -z+1/2'
'x+1/2, y, z+1/2'
'-x+1/2, -y, z+1/2'
'x+1/2, -y, -z+1/2'
'-x+1/2, y, -z+1/2'
'x+1/2, y+1/2, z'
'-x+1/2, -y+1/2, z'
'x+1/2, -y+1/2, -z'
'-x+1/2, y+1/2, -z'
'-x, -y, -z'
'x, y, -z'
'-x, y, z'
'x, -y, z'
'-x, -y+1/2, -z+1/2'
'x, y+1/2, -z+1/2'
'-x, y+1/2, z+1/2'
'x, -y+1/2, z+1/2'
'-x+1/2, -y, -z+1/2'
'x+1/2, y, -z+1/2'
'-x+1/2, y, z+1/2'
'x+1/2, -y, z+1/2'
'-x+1/2, -y+1/2, -z'
'x+1/2, y+1/2, -z'
'-x+1/2, y+1/2, z'
'x+1/2, -y+1/2, z'
loop_
_atom_site_label
_atom_site_type_symbol
_atom_site_fract_x
_atom_site_fract_y
_atom_site_fract_z
_atom_site_U_iso_or_equiv
_atom_site_adp_type
_atom_site_occupancy
_atom_site_site_symmetry_order
_atom_site_calc_flag
_atom_site_refinement_flags_posn
_atom_site_refinement_flags_adp
_atom_site_refinement_flags_occupancy
_atom_site_disorder_assembly
_atom_site_disorder_group
Zr1 Zr 0.0000 0.5000 0.07076(3) 0.0513(6) Uani 1 4 d S T P . .
Zr2 Zr 0.09749(8) 0.44739(3) 0.0000 0.0546(5) Uani 1 2 d S T P . .
O2 O 0.1345(4) 0.42501(16) 0.05932(15) 0.093(2) Uani 1 1 d . U . . .
C3 C 0.2190(6) 0.3342(2) 0.2189(2) 0.075(3) Uani 1 1 d . U . . .
C4 C 0.2500 0.3542(3) 0.2500 0.075(4) Uani 1 2 d S TU P . .
H4 H 0.2500 0.3817 0.2500 0.090 Uiso 1 2 calc RS TU P . .
C9 C 0.1205(7) 0.4142(2) 0.1630(2) 0.098(3) Uani 1 1 d . U . . .
H9 H 0.0894 0.4354 0.1682 0.118 Uiso 1 1 calc R U . . .
C7 C 0.1891(6) 0.3751(2) 0.1184(2) 0.085(3) Uani 1 1 d . U . . .
H7 H 0.2063 0.3704 0.0934 0.102 Uiso 1 1 calc R U . . .
C8 C 0.1425(6) 0.4067(2) 0.1255(2) 0.076(3) Uani 1 1 d . U . . .
C6 C 0.2098(6) 0.3506(2) 0.1482(2) 0.088(3) Uani 1 1 d . U . . .
H6 H 0.2380 0.3283 0.1429 0.105 Uiso 1 1 calc R U . . .
C5 C 0.1895(6) 0.3585(2) 0.1861(2) 0.077(3) Uani 1 1 d . U . . .
C11 C 0.1144(6) 0.4323(2) 0.0938(2) 0.081(3) Uani 1 1 d . U . . .
C10 C 0.1444(7) 0.3903(2) 0.1928(2) 0.096(3) Uani 1 1 d . U . . .
H10 H 0.1296 0.3959 0.2181 0.115 Uiso 1 1 calc R U . . .
O4 O 0.0980(6) 0.5000 0.0351(2) 0.099(4) Uani 1 2 d S T P . .
O7 O 0.0892(6) 0.3820(2) 0.0000 0.087(3) Uani 1 2 d S T P . .
O6 O 0.2196(5) 0.4487(2) 0.0000 0.089(3) Uani 1 2 d S T P . .
O3 O 0.0720(4) 0.46066(14) 0.10353(13) 0.0705(18) Uani 1 1 d . U . . .
O5 O 0.0000 0.4469(3) 0.0342(2) 0.093(3) Uani 1 2 d S T P . .
O1 O 0.1742(5) 0.2726(2) 0.1904(2) 0.127(3) Uani 1 1 d . U . . .
H1 H 0.2021 0.2635 0.1740 0.191 Uiso 1 1 calc GR . . . .
C2 C 0.2168(6) 0.2928(2) 0.2201(2) 0.067(2) Uani 1 1 d . U . . .
C1 C 0.2500 0.2719(3) 0.2500 0.067(2) Uani 1 2 d S T P . .
loop_
_atom_site_aniso_label
_atom_site_aniso_U_11
_atom_site_aniso_U_22
_atom_site_aniso_U_33
_atom_site_aniso_U_23
_atom_site_aniso_U_13
_atom_site_aniso_U_12
Zr1 0.1255(17) 0.0197(7) 0.0086(8) 0.000 0.000 0.000
Zr2 0.1278(13) 0.0256(6) 0.0105(6) 0.000 0.000 0.0066(6)
O2 0.186(7) 0.069(4) 0.024(3) -0.001(3) 0.000(4) 0.030(4)
C3 0.161(8) 0.039(3) 0.024(4) -0.001(3) -0.017(4) 0.008(4)
C4 0.160(11) 0.039(5) 0.027(5) 0.000 -0.017(6) 0.000
C9 0.202(10) 0.062(5) 0.030(4) 0.002(3) -0.001(5) 0.041(6)
C7 0.172(9) 0.057(4) 0.025(4) -0.004(3) -0.006(5) 0.025(5)
C8 0.161(8) 0.046(4) 0.022(3) 0.002(3) -0.006(4) 0.015(5)
C6 0.181(9) 0.053(4) 0.029(4) -0.006(3) -0.016(4) 0.023(5)
C5 0.163(8) 0.041(4) 0.026(4) -0.003(3) -0.019(4) 0.009(4)
C11 0.173(8) 0.047(4) 0.024(4) -0.002(3) -0.006(4) 0.011(5)
C10 0.205(9) 0.057(5) 0.025(4) 0.000(3) -0.008(5) 0.039(6)
O4 0.197(11) 0.040(4) 0.059(5) 0.000 0.053(6) 0.000
O7 0.172(10) 0.047(4) 0.042(5) 0.000 0.000 -0.001(5)
O6 0.115(8) 0.089(6) 0.063(6) 0.000 0.000 0.006(6)
O3 0.154(6) 0.037(3) 0.020(3) -0.001(2) -0.007(3) 0.001(3)
O5 0.096(8) 0.132(8) 0.051(5) -0.048(5) 0.000 0.000
O1 0.213(9) 0.090(5) 0.079(5) -0.019(4) -0.042(5) 0.005(5)
C2 0.141(7) 0.037(3) 0.025(3) -0.006(3) -0.008(4) 0.006(4)
C1 0.141(7) 0.037(3) 0.025(3) -0.006(3) -0.008(4) 0.006(4)
loop_
_atom_type_symbol
_atom_type_description
_atom_type_scat_dispersion_real
_atom_type_scat_dispersion_imag
_atom_type_scat_source
C C 0.0033 0.0016 'International Tables Vol C Tables 4.2.6.8 and 6.1.1.4'
H H 0.0000 0.0000 'International Tables Vol C Tables 4.2.6.8 and 6.1.1.4'
O O 0.0106 0.0060 'International Tables Vol C Tables 4.2.6.8 and 6.1.1.4'
Zr Zr -2.9673 0.5597 'International Tables Vol C Tables 4.2.6.8 and 6.1.1.4'
loop_
_geom_angle_atom_site_label_1
_geom_angle_atom_site_label_2
_geom_angle_atom_site_label_3
_geom_angle
_geom_angle_site_symmetry_1
_geom_angle_site_symmetry_3
_geom_angle_publ_flag
Zr2 Zr1 Zr2 60.86(4) 17_565 3_565 ?
Zr2 Zr1 Zr2 91.58(4) 19 3_565 ?
Zr2 Zr1 Zr2 60.86(4) . 19 ?
Zr2 Zr1 Zr2 60.96(3) 19 17_565 ?
Zr2 Zr1 Zr2 91.58(4) . 17_565 ?
Zr2 Zr1 Zr2 60.96(3) . 3_565 ?
O4 Zr1 Zr2 91.2(2) 2_565 3_565 ?
O4 Zr1 Zr2 35.60(13) . . ?
O4 Zr1 Zr2 91.2(2) 2_565 . ?
O4 Zr1 Zr2 35.61(13) 2_565 17_565 ?
O4 Zr1 Zr2 35.61(13) . 3_565 ?
O4 Zr1 Zr2 91.2(2) . 19 ?
O4 Zr1 Zr2 91.2(2) . 17_565 ?
O4 Zr1 Zr2 35.61(13) 2_565 19 ?
O4 Zr1 O4 110.7(5) . 2_565 ?
O4 Zr1 O3 142.08(14) . 2_565 ?
O4 Zr1 O3 78.5(3) . 20_565 ?
O4 Zr1 O3 142.08(14) 2_565 20_565 ?
O4 Zr1 O3 78.5(3) 2_565 2_565 ?
O4 Zr1 O3 142.08(14) . 19 ?
O4 Zr1 O3 142.08(14) 2_565 . ?
O4 Zr1 O3 78.5(3) 2_565 19 ?
O4 Zr1 O3 78.5(3) . . ?
O4 Zr1 O5 70.89(18) 2_565 2_565 ?
O4 Zr1 O5 70.89(18) 2_565 . ?
O4 Zr1 O5 70.89(18) . . ?
O4 Zr1 O5 70.89(18) . 2_565 ?
O3 Zr1 Zr2 111.47(16) . 3_565 ?
O3 Zr1 Zr2 111.47(16) 2_565 19 ?
O3 Zr1 Zr2 167.01(14) 19 3_565 ?
O3 Zr1 Zr2 110.91(13) . 19 ?
O3 Zr1 Zr2 75.43(13) . . ?
O3 Zr1 Zr2 111.47(16) 20_565 . ?
O3 Zr1 Zr2 110.91(13) 19 . ?
O3 Zr1 Zr2 110.91(13) 20_565 17_565 ?
O3 Zr1 Zr2 75.43(13) 20_565 3_565 ?
O3 Zr1 Zr2 111.47(16) 19 17_565 ?
O3 Zr1 Zr2 110.91(13) 2_565 3_565 ?
O3 Zr1 Zr2 167.01(14) 20_565 19 ?
O3 Zr1 Zr2 75.43(13) 19 19 ?
O3 Zr1 Zr2 167.01(14) . 17_565 ?
O3 Zr1 Zr2 75.43(13) 2_565 17_565 ?
O3 Zr1 Zr2 167.01(14) 2_565 . ?
O3 Zr1 O3 73.8(3) 19 . ?
O3 Zr1 O3 75.0(3) 20_565 . ?
O3 Zr1 O3 117.6(3) 20_565 19 ?
O3 Zr1 O3 117.6(3) 2_565 . ?
O3 Zr1 O3 75.0(3) 19 2_565 ?
O3 Zr1 O3 73.8(3) 20_565 2_565 ?
O3 Zr1 O5 142.76(16) 19 2_565 ?
O3 Zr1 O5 78.5(2) . . ?
O3 Zr1 O5 78.5(2) 19 . ?
O3 Zr1 O5 142.76(16) 2_565 . ?
O3 Zr1 O5 142.76(16) 20_565 . ?
O3 Zr1 O5 78.5(2) 2_565 2_565 ?
O3 Zr1 O5 78.5(2) 20_565 2_565 ?
O3 Zr1 O5 142.77(16) . 2_565 ?
O5 Zr1 Zr2 90.7(2) . 17_565 ?
O5 Zr1 Zr2 90.7(2) 2_565 . ?
O5 Zr1 Zr2 90.7(2) . 3_565 ?
O5 Zr1 Zr2 35.29(12) 2_565 17_565 ?
O5 Zr1 Zr2 90.7(2) 2_565 19 ?
O5 Zr1 Zr2 35.29(12) 2_565 3_565 ?
O5 Zr1 Zr2 35.29(12) . . ?
O5 Zr1 Zr2 35.29(12) . 19 ?
O5 Zr1 O5 109.7(5) 2_565 . ?
Zr1 Zr2 Zr1 88.42(4) . 17_565 ?
Zr1 Zr2 Zr2 59.521(16) . 3_565 ?
Zr1 Zr2 Zr2 59.522(16) 17_565 3_565 ?
Zr1 Zr2 Zr2 59.57(2) 17_565 19 ?
Zr1 Zr2 Zr2 59.57(2) . 19 ?
Zr2 Zr2 Zr2 90.0 19 3_565 ?
O2 Zr2 Zr1 160.44(16) 18 . ?
O2 Zr2 Zr1 72.07(15) 18 17_565 ?
O2 Zr2 Zr1 72.08(15) . . ?
O2 Zr2 Zr1 160.44(16) . 17_565 ?
O2 Zr2 Zr2 107.2(2) 18 19 ?
O2 Zr2 Zr2 109.32(14) . 3_565 ?
O2 Zr2 Zr2 109.32(14) 18 3_565 ?
O2 Zr2 Zr2 107.2(2) . 19 ?
O2 Zr2 O2 127.4(3) 18 . ?
O4 Zr2 Zr1 35.9(3) . . ?
O4 Zr2 Zr1 35.9(3) 18 17_565 ?
O4 Zr2 Zr1 88.6(2) 18 . ?
O4 Zr2 Zr1 88.6(2) . 17_565 ?
O4 Zr2 Zr2 90.2(3) . 19 ?
O4 Zr2 Zr2 34.27(18) . 3_565 ?
O4 Zr2 Zr2 90.2(3) 18 19 ?
O4 Zr2 Zr2 34.27(18) 18 3_565 ?
O4 Zr2 O2 76.6(2) 18 18 ?
O4 Zr2 O2 76.6(2) . . ?
O4 Zr2 O2 141.0(3) . 18 ?
O4 Zr2 O2 141.0(3) 18 . ?
O4 Zr2 O4 68.5(4) . 18 ?
O4 Zr2 O7 145.56(18) . . ?
O4 Zr2 O7 145.56(18) 18 . ?
O4 Zr2 O6 88.8(3) . . ?
O4 Zr2 O6 88.8(3) 18 . ?
O7 Zr2 Zr1 118.14(17) . . ?
O7 Zr2 Zr1 118.14(17) . 17_565 ?
O7 Zr2 Zr2 176.1(3) . 3_565 ?
O7 Zr2 Zr2 86.1(3) . 19 ?
O7 Zr2 O2 71.94(17) . 18 ?
O7 Zr2 O2 71.94(17) . . ?
O7 Zr2 O6 95.1(3) . . ?
O6 Zr2 Zr1 119.74(13) . 17_565 ?
O6 Zr2 Zr1 119.74(13) . . ?
O6 Zr2 Zr2 178.8(2) . 19 ?
O6 Zr2 Zr2 88.8(2) . 3_565 ?
O6 Zr2 O2 73.2(2) . 18 ?
O6 Zr2 O2 73.2(2) . . ?
O5 Zr2 Zr1 36.5(2) 18 17_565 ?
O5 Zr2 Zr1 88.2(2) 18 . ?
O5 Zr2 Zr1 36.5(2) . . ?
O5 Zr2 Zr1 88.2(2) . 17_565 ?
O5 Zr2 Zr2 33.62(19) 18 19 ?
O5 Zr2 Zr2 33.62(19) . 19 ?
O5 Zr2 Zr2 90.4(3) . 3_565 ?
O5 Zr2 Zr2 90.4(3) 18 3_565 ?
O5 Zr2 O2 75.3(3) . . ?
O5 Zr2 O2 137.7(3) . 18 ?
O5 Zr2 O2 137.7(3) 18 . ?
O5 Zr2 O2 75.3(3) 18 18 ?
O5 Zr2 O4 72.4(3) . . ?
O5 Zr2 O4 108.7(4) . 18 ?
O5 Zr2 O4 72.4(3) 18 18 ?
O5 Zr2 O4 108.7(4) 18 . ?
O5 Zr2 O7 86.3(3) 18 . ?
O5 Zr2 O7 86.3(3) . . ?
O5 Zr2 O6 146.38(18) 18 . ?
O5 Zr2 O6 146.38(18) . . ?
O5 Zr2 O5 67.2(4) . 18 ?
C11 O2 Zr2 133.7(6) . . ?
C4 C3 C5 117.6(7) . . ?
C4 C3 C2 118.5(7) . . ?
C2 C3 C5 123.9(7) . . ?
C3 C4 C3 121.7(9) 12 . ?
C3 C4 H4 119.1 . . ?
C3 C4 H4 119.1 12 . ?
C8 C9 H9 119.9 . . ?
C10 C9 H9 119.9 . . ?
C10 C9 C8 120.3(9) . . ?
C8 C7 H7 120.0 . . ?
C6 C7 H7 120.0 . . ?
C6 C7 C8 120.0(8) . . ?
C9 C8 C7 118.9(7) . . ?
C9 C8 C11 118.9(8) . . ?
C7 C8 C11 122.1(7) . . ?
C7 C6 H6 119.4 . . ?
C7 C6 C5 121.3(8) . . ?
C5 C6 H6 119.4 . . ?
C6 C5 C3 120.9(8) . . ?
C10 C5 C3 120.9(7) . . ?
C10 C5 C6 118.1(7) . . ?
O2 C11 C8 118.4(8) . . ?
O2 C11 O3 124.6(7) . . ?
O3 C11 C8 117.0(7) . . ?
C9 C10 H10 119.4 . . ?
C5 C10 C9 121.2(8) . . ?
C5 C10 H10 119.4 . . ?
Zr2 O4 Zr1 108.5(3) . . ?
Zr2 O4 Zr1 108.5(3) 3_565 . ?
Zr2 O4 Zr2 111.5(4) . 3_565 ?
C11 O3 Zr1 133.2(5) . . ?
Zr2 O5 Zr1 108.2(3) . . ?
Zr2 O5 Zr1 108.2(3) 19 . ?
Zr2 O5 Zr2 112.8(4) 19 . ?
C2 O1 H1 109.5 . . ?
C3 C2 O1 117.7(7) . . ?
C1 C2 C3 121.1(8) . . ?
C1 C2 O1 121.1(7) . . ?
C2 C1 C2 118.9(9) . 12 ?
C2 C1 C1 120.5(5) . 14 ?
C2 C1 C1 120.5(5) 12 14 ?
loop_
_geom_bond_atom_site_label_1
_geom_bond_atom_site_label_2
_geom_bond_distance
_geom_bond_site_symmetry_2
_geom_bond_publ_flag
Zr1 Zr2 3.5000(12) . ?
Zr1 Zr2 3.5000(12) 17_565 ?
Zr1 Zr2 3.5000(12) 19 ?
Zr1 Zr2 3.5000(12) 3_565 ?
Zr1 O4 2.165(9) 2_565 ?
Zr1 O4 2.165(9) . ?
Zr1 O3 2.181(5) 2_565 ?
Zr1 O3 2.181(5) . ?
Zr1 O3 2.181(5) 20_565 ?
Zr1 O3 2.181(5) 19 ?
Zr1 O5 2.191(8) . ?
Zr1 O5 2.191(8) 2_565 ?
Zr2 Zr1 3.5001(12) 17_565 ?
Zr2 Zr2 3.545(3) 19 ?
Zr2 Zr2 3.5506(17) 3_565 ?
Zr2 O2 2.282(5) 18 ?
Zr2 O2 2.282(5) . ?
Zr2 O4 2.148(5) . ?
Zr2 O4 2.148(5) 18 ?
Zr2 O7 2.211(7) . ?
Zr2 O6 2.220(10) . ?
Zr2 O5 2.129(5) . ?
Zr2 O5 2.129(5) 18 ?
O2 C11 1.270(9) . ?
C3 C4 1.385(9) . ?
C3 C5 1.499(10) . ?
C3 C2 1.397(10) . ?
C4 C3 1.385(9) 12 ?
C4 H4 0.9300 . ?
C9 H9 0.9300 . ?
C9 C8 1.380(11) . ?
C9 C10 1.375(11) . ?
C7 H7 0.9300 . ?
C7 C8 1.383(11) . ?
C7 C6 1.372(10) . ?
C8 C11 1.484(11) . ?
C6 H6 0.9300 . ?
C6 C5 1.382(11) . ?
C5 C10 1.372(12) . ?
C11 O3 1.272(10) . ?
C10 H10 0.9300 . ?
O4 Zr2 2.148(5) 3_565 ?
O5 Zr2 2.129(5) 19 ?
O1 H1 0.8200 . ?
O1 C2 1.455(10) . ?
C2 C1 1.388(9) . ?
C1 C2 1.388(9) 12 ?
C1 C1 1.480(19) 14 ?
loop_
_geom_torsion_atom_site_label_1
_geom_torsion_atom_site_label_2
_geom_torsion_atom_site_label_3
_geom_torsion_atom_site_label_4
_geom_torsion
_geom_torsion_site_symmetry_1
_geom_torsion_site_symmetry_2
_geom_torsion_site_symmetry_3
_geom_torsion_site_symmetry_4
_geom_torsion_publ_flag
Zr2 O2 C11 C8 169.4(7) . . . . ?
Zr2 O2 C11 O3 -11.5(16) . . . . ?
O2 C11 O3 Zr1 13.9(16) . . . . ?
C3 C5 C10 C9 176.2(10) . . . . ?
C3 C2 C1 C2 2.6(7) . . . 12 ?
C3 C2 C1 C1 -177.4(7) . . . 14 ?
C4 C3 C5 C6 128.9(9) . . . . ?
C4 C3 C5 C10 -48.1(14) . . . . ?
C4 C3 C2 O1 170.6(7) . . . . ?
C4 C3 C2 C1 -5.2(14) . . . . ?
C9 C8 C11 O2 -179.4(10) . . . . ?
C9 C8 C11 O3 1.4(15) . . . . ?
C7 C8 C11 O2 -0.6(16) . . . . ?
C7 C8 C11 O3 -179.8(9) . . . . ?
C7 C6 C5 C3 -173.4(9) . . . . ?
C7 C6 C5 C10 3.7(16) . . . . ?
C8 C9 C10 C5 -0.8(18) . . . . ?
C8 C7 C6 C5 -4.9(16) . . . . ?
C8 C11 O3 Zr1 -167.0(6) . . . . ?
C6 C7 C8 C9 3.1(16) . . . . ?
C6 C7 C8 C11 -175.7(10) . . . . ?
C6 C5 C10 C9 -0.9(17) . . . . ?
C5 C3 C4 C3 -177.7(10) . . . 12 ?
C5 C3 C2 O1 -9.1(15) . . . . ?
C5 C3 C2 C1 175.1(8) . . . . ?
C10 C9 C8 C7 -0.3(17) . . . . ?
C10 C9 C8 C11 178.5(10) . . . . ?
O1 C2 C1 C2 -173.1(10) . . . 12 ?
O1 C2 C1 C1 7.0(10) . . . 14 ?
C2 C3 C4 C3 2.5(7) . . . 12 ?
C2 C3 C5 C6 -51.4(15) . . . . ?
C2 C3 C5 C10 131.6(11) . . . . ?
