#------------------------------------------------------------------------------
#$Date: 2020-02-12 01:53:58 +0200 (Wed, 12 Feb 2020) $
#$Revision: 248051 $
#$URL: file:///home/coder/svn-repositories/cod/cif/4/13/41/4134162.cif $
#------------------------------------------------------------------------------
#
# This file is available in the Crystallography Open Database (COD),
# http://www.crystallography.net/
#
# All data on this site have been placed in the public domain by the
# contributors.
#
data_4134162
loop_
_publ_author_name
'Hou, Jingwei'
'Rios, Laura'
'Krajnc, Andra\<z'
'McCaul, Aoife'
'Li, Shichun'
'Bumstead, Alice'
'Sapnik, Adam'
'Deng, Zeyu'
'Lin, Rijia'
'Chater, Philip A.'
'Keeble, Dean S.'
'Keen, David A.'
'Appadoo, Dominique'
'Chan, Bun'
'Chen, Vicki'
'Mali, Gregor'
'Bennett, Thomas D.'
_publ_section_title
;
 Halogenated Metal-Organic Framework Glasses and Liquids.
;
_journal_name_full               'Journal of the American Chemical Society'
_journal_paper_doi               10.1021/jacs.9b11639
_journal_year                    2020
_chemical_formula_moiety         'C14.73 H12 F0.68 N8 Zn2'
_chemical_formula_sum            'C14.73 H12 F0.68 N8 Zn2'
_chemical_formula_weight         444.77
_chemical_melting_point          '694 K (onset)'
_chemical_name_common            ZIF-UC-4
_chemical_name_systematic        Zn(Im)1.66(FbIm)0.34
_space_group_crystal_system      orthorhombic
_space_group_IT_number           61
_space_group_name_Hall           '-P 2ac 2ab'
_space_group_name_H-M_alt        'P b c a'
_atom_sites_solution_hydrogens   mixed
_audit_creation_method           SHELXL-2018/3
_cell_angle_alpha                90
_cell_angle_beta                 90
_cell_angle_gamma                90
_cell_formula_units_Z            8
_cell_length_a                   15.6970(8)
_cell_length_b                   15.9694(10)
_cell_length_c                   17.9282(16)
_cell_measurement_reflns_used    2234
_cell_measurement_temperature    293(2)
_cell_measurement_theta_max      62.5330
_cell_measurement_theta_min      4.6600
_cell_volume                     4494.1(5)
_computing_cell_refinement
;
CrysAlisPro, Agilent Technologies,
Version 1.171.37.34i (release 04-08-2014 CrysAlis171 .NET)
(compiled Aug  4 2014,14:34:23)
;
_computing_data_collection
;
CrysAlisPro, Agilent Technologies,
Version 1.171.37.34i (release 04-08-2014 CrysAlis171 .NET)
(compiled Aug  4 2014,14:34:23)
;
_computing_data_reduction
;
CrysAlisPro, Agilent Technologies,
Version 1.171.37.34i (release 04-08-2014 CrysAlis171 .NET)
(compiled Aug  4 2014,14:34:23)
;
_computing_structure_refinement  'SHELXL-2018/3 (Sheldrick, 2018)'
_computing_structure_solution    'SUPERFLIP (Palatinus & Chapuis, 2007)'
_diffrn_ambient_temperature      293(2)
_diffrn_detector                 'CCD plate'
_diffrn_detector_area_resol_mean 16.1183
_diffrn_measured_fraction_theta_full 0.9261
_diffrn_measured_fraction_theta_max 0.9912
_diffrn_measurement_details
;
#__ type_ start__ end____ width___ exp.time_
  1 omega   17.00   59.00   1.0000  118.5550
omega____ theta____ kappa____ phi______ frames
    -       51.2500   61.0000   60.0000 42

#__ type_ start__ end____ width___ exp.time_
  2 omega   77.00  104.00   1.0000  118.5550
omega____ theta____ kappa____ phi______ frames
    -       51.2500   61.0000   60.0000 27

#__ type_ start__ end____ width___ exp.time_
  3 omega   98.00  130.00   1.0000  118.5550
omega____ theta____ kappa____ phi______ frames
    -       51.2500  125.0000   90.0000 32

#__ type_ start__ end____ width___ exp.time_
  4 omega   73.00  102.00   1.0000  118.5550
omega____ theta____ kappa____ phi______ frames
    -      102.5000   65.0000   60.0000 29

#__ type_ start__ end____ width___ exp.time_
  5 omega  129.00  167.00   1.0000  118.5550
omega____ theta____ kappa____ phi______ frames
    -      102.5000   11.0000   30.0000 38

#__ type_ start__ end____ width___ exp.time_
  6 omega  116.00  176.00   1.0000  118.5550
omega____ theta____ kappa____ phi______ frames
    -      102.5000  -21.0000  -60.0000 60

#__ type_ start__ end____ width___ exp.time_
  7 omega   79.00  175.00   1.0000  118.5550
omega____ theta____ kappa____ phi______ frames
    -      102.5000  104.0000  -60.0000 96

#__ type_ start__ end____ width___ exp.time_
  8 omega   76.00  119.00   1.0000  118.5550
omega____ theta____ kappa____ phi______ frames
    -       51.2500  125.0000 -120.0000 43

#__ type_ start__ end____ width___ exp.time_
  9 omega   82.00  127.00   1.0000  118.5550
omega____ theta____ kappa____ phi______ frames
    -       51.2500  125.0000 -180.0000 45

#__ type_ start__ end____ width___ exp.time_
 10 omega   43.00   86.00   1.0000   29.6400
omega____ theta____ kappa____ phi______ frames
    -        0.0000  178.0000 -180.0000 43

#__ type_ start__ end____ width___ exp.time_
 11 omega   66.00  149.00   1.0000  118.5550
omega____ theta____ kappa____ phi______ frames
    -      102.5000  138.0000    0.0000 83

#__ type_ start__ end____ width___ exp.time_
 12 omega   54.00   88.00   1.0000  118.5550
omega____ theta____ kappa____ phi______ frames
    -      102.5000   11.0000   30.0000 34

#__ type_ start__ end____ width___ exp.time_
 13 omega   43.00   69.00   1.0000  118.5550
omega____ theta____ kappa____ phi______ frames
    -      102.5000  -32.0000  -60.0000 26

#__ type_ start__ end____ width___ exp.time_
 14 omega   39.00   85.00   1.0000  118.5550
omega____ theta____ kappa____ phi______ frames
    -      102.5000  -54.0000  -90.0000 46

#__ type_ start__ end____ width___ exp.time_
 15 omega   42.00   67.00   1.0000  118.5550
omega____ theta____ kappa____ phi______ frames
    -      102.5000 -104.0000 -150.0000 25

#__ type_ start__ end____ width___ exp.time_
 16 omega   24.00   49.00   1.0000  118.5550
omega____ theta____ kappa____ phi______ frames
    -      102.5000  -43.0000    0.0000 25

#__ type_ start__ end____ width___ exp.time_
 17 omega   24.00   75.00   1.0000  118.5550
omega____ theta____ kappa____ phi______ frames
    -      102.5000 -104.0000   30.0000 51

#__ type_ start__ end____ width___ exp.time_
 18 omega   19.00   54.00   1.0000  118.5550
omega____ theta____ kappa____ phi______ frames
    -      102.5000 -104.0000   60.0000 35

#__ type_ start__ end____ width___ exp.time_
 19 omega   33.00   67.00   1.0000   29.6400
omega____ theta____ kappa____ phi______ frames
    -        0.0000 -178.0000  -90.0000 34

#__ type_ start__ end____ width___ exp.time_
 20 omega  -68.00   31.00   1.0000  118.5550
omega____ theta____ kappa____ phi______ frames
    -      -51.2500   30.0000 -120.0000 99

;
_diffrn_measurement_device       'four-circle diffractometer'
_diffrn_measurement_device_type  'Xcalibur, Eos, Gemini ultra'
_diffrn_measurement_method       '\w scans'
_diffrn_orient_matrix_UB_11      -0.0505883000
_diffrn_orient_matrix_UB_12      -0.0556197000
_diffrn_orient_matrix_UB_13      0.0544765000
_diffrn_orient_matrix_UB_21      -0.0173745000
_diffrn_orient_matrix_UB_22      0.0768162000
_diffrn_orient_matrix_UB_23      0.0497387000
_diffrn_orient_matrix_UB_31      -0.0822364000
_diffrn_orient_matrix_UB_32      0.0179216000
_diffrn_orient_matrix_UB_33      -0.0440624000
_diffrn_radiation_monochromator  mirror
_diffrn_radiation_probe          x-ray
_diffrn_radiation_type           CuK\a
_diffrn_radiation_wavelength     1.54184
_diffrn_reflns_av_R_equivalents  0.0308
_diffrn_reflns_av_sigmaI/netI    0.0486
_diffrn_reflns_Laue_measured_fraction_full 0.997
_diffrn_reflns_Laue_measured_fraction_max 0.991
_diffrn_reflns_limit_h_max       18
_diffrn_reflns_limit_h_min       -18
_diffrn_reflns_limit_k_max       18
_diffrn_reflns_limit_k_min       -13
_diffrn_reflns_limit_l_max       20
_diffrn_reflns_limit_l_min       -20
_diffrn_reflns_number            11053
_diffrn_reflns_point_group_measured_fraction_full 0.997
_diffrn_reflns_point_group_measured_fraction_max 0.991
_diffrn_reflns_theta_full        66.9682
_diffrn_reflns_theta_max         64.1726
_diffrn_reflns_theta_min         2.8151
_diffrn_source                   'sealed X-ray tube'
_diffrn_source_type              'Enhance Ultra (Cu) X-ray Source'
_exptl_absorpt_coefficient_mu    2.78170
_exptl_absorpt_correction_T_max  1.00000
_exptl_absorpt_correction_T_min  0.50656
_exptl_absorpt_correction_type   multi-scan
_exptl_absorpt_process_details
;
CrysAlisPro, Agilent Technologies,
Version 1.171.37.34i (release 04-08-2014 CrysAlis171 .NET)
(compiled Aug  4 2014,14:34:23)
Empirical absorption correction using spherical harmonics,
 implemented in SCALE3 ABSPACK scaling algorithm.
;
_exptl_crystal_colour            Pink
_exptl_crystal_density_diffrn    1.314
_exptl_crystal_description       Tetrahedral
_exptl_crystal_F_000             1983.28
_exptl_crystal_size_max          0.05
_exptl_crystal_size_mid          0.04
_exptl_crystal_size_min          0.03
_refine_diff_density_max         0.606
_refine_diff_density_min         -0.575
_refine_diff_density_rms         0.083
_refine_ls_extinction_method     none
_refine_ls_goodness_of_fit_ref   1.065
_refine_ls_hydrogen_treatment    constr
_refine_ls_matrix_type           full
_refine_ls_number_parameters     232
_refine_ls_number_reflns         3717
_refine_ls_number_restraints     11
_refine_ls_restrained_S_all      1.071
_refine_ls_R_factor_all          0.1017
_refine_ls_R_factor_gt           0.0663
_refine_ls_shift/su_max          0.000
_refine_ls_shift/su_mean         0.000
_refine_ls_structure_factor_coef Fsqd
_refine_ls_weighting_details
'w=1/[\s^2^(Fo^2^)+(0.1119P)^2^+3.8564P] where P=(Fo^2^+2Fc^2^)/3'
_refine_ls_weighting_scheme      calc
_refine_ls_wR_factor_gt          0.1901
_refine_ls_wR_factor_ref         0.2174
_reflns_Friedel_coverage         0.000
_reflns_number_gt                2405
_reflns_number_total             3717
_reflns_threshold_expression     'I > 2\s(I)'
_cod_data_source_file            ja9b11639_si_003.cif
_cod_data_source_block           shelx
_cod_database_code               4134162
_shelx_shelxl_version_number     2018/3
_shelx_space_group_comment
;
The symmetry employed for this shelxl refinement is uniquely defined
by the following loop, which should always be used as a source of
symmetry information in preference to the above space-group names.
They are only intended as comments.
;
_reflns_odcompleteness_completeness 92.61
_reflns_odcompleteness_theta     66.97
_reflns_odcompleteness_iscentric 1
_shelx_res_file
;
TITL exp_564_JW_3 in Pbca
    shelx.res
    created by SHELXL-2018/3 at 17:06:40 on 03-Sep-2019
CELL  1.54184  15.6970  15.9694  17.9282   90.000   90.000   90.000
ZERR    20.00   0.0008   0.0010   0.0016    0.000    0.000    0.000
LATT   1
SYMM  1/2 - X, - Y, 1/2 + Z
SYMM  - X, 1/2 + Y, 1/2 - Z
SYMM  1/2 + X, 1/2 - Y, - Z
SFAC  C    H    N    F    ZN   O
UNIT  48 0 80 8 24 0
MERG   2
EXYZ  C15a C15b
EXYZ  C16a C16b
EXYZ  N5a N5b
EXYZ  N6a N6b
EADP  C16a C16b
EADP  C15a C15b
EADP  N5a N5b
EADP  N6a N6b
EADP  C8B C9B C10 C11 C12 C13 F1
EADP  C15B C16B C17 C18 C19 C20
FLAT  N5a N6a C8a C9a C7a
FLAT  N5B N6B C8B C9B C10 C11 C13 C12 C7B F1
FREE C8A C8B
FREE C9A C9B
DFIX 1.37 0.02 C7A N5A
DFIX 1.37 0.02 C7A N6A
FMAP   2
PLAN   20
ACTA    50.00
L.S.  50
WGHT    0.111900    3.856400
FVAR       2.45454   0.42485   0.25693
ZN1   5    0.307246    0.355883    0.096011    11.00000    0.06611    0.08435 =
         0.09572    0.00968   -0.00029   -0.00731
ZN2   5    0.505751    0.160391    0.313354    11.00000    0.06535    0.08249 =
         0.09082    0.00088   -0.00869   -0.00057
N2    3    0.450001    0.187708    0.217556    11.00000    0.09298    0.07945 =
         0.09181   -0.00030   -0.01452    0.00831
N8    3    0.070638    0.257536    0.146628    11.00000    0.05932    0.08417 =
         0.11236    0.00818    0.00564    0.00040
N7    3    0.185294    0.329630    0.110714    11.00000    0.06337    0.08235 =
         0.11621    0.01674    0.00472   -0.00149
N1    3    0.373892    0.259779    0.135703    11.00000    0.08164    0.08343 =
         0.08825    0.00247   -0.00746    0.00195
N4    3    0.413393    0.565331    0.195033    11.00000    0.07772    0.08210 =
         0.09169   -0.00299    0.00636   -0.00194
N3    3    0.338941    0.454579    0.156061    11.00000    0.07617    0.08037 =
         0.10585    0.00173    0.01016   -0.00368
C6    1    0.399449    0.509973    0.141700    11.00000    0.08659    0.08393 =
         0.09249   -0.00035    0.01543   -0.00906
AFIX  43
H6    2    0.429964    0.509921    0.097236    11.00000   -1.20000
AFIX   0
C1    1    0.417139    0.258947    0.199041    11.00000    0.09003    0.08099 =
         0.09249   -0.00692   -0.01707    0.00151
AFIX  43
H1    2    0.423486    0.306577    0.228367    11.00000   -1.20000
AFIX   0
C5    1    0.312353    0.477526    0.224691    11.00000    0.12972    0.12528 =
         0.14972   -0.02200    0.06515   -0.04306
AFIX  43
H5    2    0.268950    0.451606    0.251405    11.00000   -1.20000
AFIX   0
C2    1    0.424720    0.136518    0.162463    11.00000    0.18333    0.08243 =
         0.14340   -0.02262   -0.05714    0.02271
AFIX  43
H2    2    0.436074    0.079428    0.159996    11.00000   -1.20000
AFIX   0
C14   1    0.154969    0.260085    0.139927    11.00000    0.07129    0.08063 =
         0.09658    0.00763    0.00216    0.00655
AFIX  43
H14   2    0.189890    0.216082    0.154750    11.00000   -1.20000
AFIX   0
C4    1    0.358635    0.544338    0.248940    11.00000    0.14478    0.12684 =
         0.11984   -0.03748    0.04643   -0.03840
AFIX  43
H4    2    0.353096    0.570710    0.294935    11.00000   -1.20000
AFIX   0
C3    1    0.379935    0.180784    0.110721    11.00000    0.17591    0.09372 =
         0.11701   -0.02187   -0.05955    0.02871
AFIX  43
H3    2    0.357672    0.160110    0.066316    11.00000   -1.20000
AFIX   0
PART    1
C15A  1    0.044958    0.331555    0.116129   -21.00000    0.07667    0.09162 =
         0.15632    0.02562    0.00423    0.01000
AFIX  43
H15A  2   -0.011224    0.349015    0.110718   -21.00000   -1.20000
AFIX   0
C16A  1    0.114043    0.375062    0.095208   -21.00000    0.07667    0.09162 =
         0.15632    0.02562    0.00423    0.01000
AFIX  43
H16A  2    0.113385    0.427958    0.073515   -21.00000   -1.20000
AFIX   0
N6A   3    0.415525    0.369345   -0.113649   -31.00000    0.07518    0.13055 =
         0.09112    0.01967   -0.00166    0.02208
N5A   3    0.338925    0.374855   -0.009197   -31.00000    0.07137    0.14621 =
         0.09137    0.02702   -0.00136    0.02010
C7A   1    0.410335    0.353945   -0.042126   -31.00000    0.05381    0.09004 =
         0.09238   -0.00012   -0.02777   -0.00049
AFIX  43
H7A   2    0.455028    0.329420   -0.016003   -31.00000   -1.20000
AFIX   0
C9A   1    0.289863    0.391874   -0.070480   -31.00000   10.08049    0.37989 =
         0.18731    0.08705    0.02843    0.09675
AFIX  43
H9A   2    0.231868    0.403607   -0.068665   -31.00000   -1.20000
AFIX   0
C8A   1    0.335022    0.389553   -0.132257   -31.00000   10.08305    0.40307 =
         0.12709    0.10677    0.03020    0.11442
AFIX  43
H8A   2    0.314946    0.399995   -0.180167   -31.00000   -1.20000
AFIX   0
PART    2
C15B  1    0.044958    0.331555    0.116129    21.00000    0.07667    0.09162 =
         0.15632    0.02562    0.00423    0.01000
C16B  1    0.114043    0.375062    0.095208    21.00000    0.07667    0.09162 =
         0.15632    0.02562    0.00423    0.01000
C17   1    0.107050    0.450995    0.049929    21.00000    0.07667    0.09162 =
         0.15632    0.02562    0.00423    0.01000
AFIX  43
H17   2    0.154798    0.479804    0.033057    21.00000   -1.20000
AFIX   0
C19   1   -0.041585    0.437675    0.058853    21.00000    0.07667    0.09162 =
         0.15632    0.02562    0.00423    0.01000
C18   1    0.019873    0.479065    0.032678    21.00000    0.07667    0.09162 =
         0.15632    0.02562    0.00423    0.01000
C20   1   -0.040856    0.358673    0.098906    21.00000    0.07667    0.09162 =
         0.15632    0.02562    0.00423    0.01000
AFIX  43
H20   2   -0.089636    0.329037    0.111940    21.00000   -1.20000
AFIX   0
F2    4   -0.122754    0.465737    0.050161    21.00000   10.10954    0.18385 =
         0.27135    0.02350   -0.01958    0.04750
N5B   3    0.338925    0.374855   -0.009197    31.00000    0.07137    0.14621 =
         0.09137    0.02702   -0.00136    0.02010
N6B   3    0.415525    0.369345   -0.113649    31.00000    0.07518    0.13055 =
         0.09112    0.01967   -0.00166    0.02208
C7B   1    0.390459    0.341486   -0.054651    31.00000    0.07851
AFIX  43
H7B   2    0.411684    0.289262   -0.041175    31.00000   -1.20000
AFIX  66
C8B   1    0.381305    0.463507   -0.108194    31.00000    0.16708    0.16468 =
         0.16404    0.05671   -0.01615   -0.02565
C9B   1    0.333526    0.466873   -0.042985    31.00000    0.16708    0.16468 =
         0.16404    0.05671   -0.01615   -0.02565
C10   1    0.294896    0.541442   -0.021646    31.00000    0.16708    0.16468 =
         0.16404    0.05671   -0.01615   -0.02565
AFIX  43
H10   2    0.262929    0.543694    0.021983    31.00000   -1.20000
AFIX  65
C11   1    0.304045    0.612644   -0.065515    31.00000    0.16708    0.16468 =
         0.16404    0.05671   -0.01615   -0.02565
AFIX  43
H11   2    0.278199    0.662536   -0.051237    31.00000   -1.20000
AFIX  65
C12   1    0.351823    0.609278   -0.130723    31.00000    0.16708    0.16468 =
         0.16404    0.05671   -0.01615   -0.02565
C13   1    0.390453    0.534710   -0.152064    31.00000    0.16708    0.16468 =
         0.16404    0.05671   -0.01615   -0.02565
AFIX  43
H13   2    0.422420    0.532458   -0.195692    31.00000   -1.20000
AFIX   0
F1    4    0.358790    0.668467   -0.175511    31.00000    0.16708    0.16468 =
         0.16404    0.05671   -0.01615   -0.02565
H18   2   10.021255   10.547853   10.006863    21.00000   10.16639
HKLF    4




REM  exp_564_JW_3 in Pbca
REM wR2 = 0.2174, GooF = S = 1.065, Restrained GooF = 1.071 for all data
REM R1 = 0.0663 for 2405 Fo > 4sig(Fo) and 0.1017 for all 3717 data
REM 232 parameters refined using 11 restraints

END

WGHT      0.1122      4.2068

REM Highest difference peak  0.606,  deepest hole -0.575,  1-sigma level  0.083
Q1    1   0.3143  0.6449 -0.0977  11.00000  0.05    0.61
Q2    1   0.2607  0.6805 -0.0616  11.00000  0.05    0.53
Q3    1   0.1852  0.6266 -0.0620  11.00000  0.05    0.47
Q4    1   0.3233  0.7138 -0.1107  11.00000  0.05    0.39
Q5    1   0.3791  0.6257 -0.1084  11.00000  0.05    0.36
Q6    1   0.3183  0.3604  0.0353  11.00000  0.05    0.33
Q7    1   0.3170  0.3555  0.1509  11.00000  0.05    0.30
Q8    1   0.5014  0.1573  0.3697  11.00000  0.05    0.29
Q9    1   0.2989  0.5867 -0.0524  11.00000  0.05    0.28
Q10   1  -0.0614  0.4141  0.0810  11.00000  0.05    0.27
Q11   1   0.4973  0.1636  0.2491  11.00000  0.05    0.26
Q12   1   0.3551  0.3903  0.0326  11.00000  0.05    0.26
Q13   1   0.4072  0.5890 -0.2093  11.00000  0.05    0.25
Q14   1   0.3455  0.3869  0.1497  11.00000  0.05    0.25
Q15   1   0.2989  0.3507 -0.0784  11.00000  0.05    0.22
Q16   1   0.4595  0.1624  0.1902  11.00000  0.05    0.21
Q17   1   0.1164  0.3863  0.1567  11.00000  0.05    0.21
Q18   1   0.4647  0.1876  0.2672  11.00000  0.05    0.21
Q19   1   0.0609  0.3311  0.1727  11.00000  0.05    0.21
Q20   1   0.4258  0.3449 -0.1512  11.00000  0.05    0.20
;
_shelx_res_checksum              69869
_shelx_hkl_file
;
   0   0  -2 60255.8 762.319  19
   0   0  -3 72.6883 93.3558  19
   0   0  -5-97.9140 118.867  19
   0   0  -6 363.013 148.623  20
   0   0  -6 305.553 136.856  19
   0   0  -7 199.170 137.785  20
   0   0  -8 1877.96 239.284  20
   0   0  -9 55.0169 158.480  20
   0   0 -10 98816.0 1629.36  20
   0   0 -11 96.0113 167.347  20
   0   0 -12 21.0693 165.719  20
   0   0 -13 119.808 197.647  20
   0   0 -14 10784.4 725.218  20
   0   0 -15-165.583 219.641  11
   0   0 -16-454.152 243.560  11
   0   0 -17-5.78235 211.482  11
   0   0 -18 1710.85 308.052  11
   0   0 -19-484.657 219.593  11
   0   0 -20 922.112 209.750  11
   0   1  -2 124.436 88.9784  19
   0  -1  -2 54.2155 44.7151  19
   0  -1  -3 156.415 73.0513  19
   0   1  -3 181.189 122.344  19
   0   1  -4 113.301 135.897  19
   0  -1  -4 30.5622 80.4870  19
   0  -1  -5 67.6788 90.0457  19
   0   1  -5 100.560 124.768  19
   0  -1  -6-58.5280 101.225   2
   0   1  -6 120.199 142.259  20
   0  -1  -6-135.608 124.151  19
   0  -1  -7 257.008 118.446   2
   0   1  -7 108.496 133.328  20
   0   1  -8 8.49534 151.292  20
   0   1  -9 17.6071 161.090  20
   0  -1  -9-129.290 139.641  20
   0   1 -10-95.2497 170.289  20
   0  -1 -10-151.317 178.976  20
   0  -1 -11 52.5735 167.663  20
   0   1 -11-228.569 183.870  20
   0   1 -12 116.325 192.530  20
   0  -1 -12-248.677 206.226  20
   0  -1 -13-225.437 204.945  20
   0   1 -13 36.2248 191.423  20
   0  -1 -14 322.319 218.378  20
   0   1 -14-271.859 234.612  20
   0   1 -15 147.281 219.015  11
   0  -1 -15-36.2981 211.880  11
   0   1 -16-366.532 261.938  11
   0  -1 -16-38.9235 243.372  11
   0   1 -17 246.694 224.211  11
   0  -1 -17 100.397 208.166  11
   0  -1 -18 125.057 221.471  11
   0   1 -18 174.038 210.833  11
   0  -1 -19-69.6166 191.772  11
   0  -1 -20 134.281 171.321  11
   0   2   0 178757. 1259.10  19
   0   2   1 64522.3 515.201  19
   0   2  -1 68049.1 982.296  19
   0   2  -2 22801.0 673.078  19
   0   2  -2 22308.3 473.161  10
   0   2  -3 685287. 4140.10  19
   0  -2   3 681807. 2783.39  10
   0  -2   4 239679. 1913.52  10
   0   2  -4 238175. 2731.84  19
   0   2  -5 18148.8 503.981  20
   0  -2  -5 18428.3 415.819   2
   0  -2  -5 18453.5 528.522  19
   0  -2  -6 5626.06 262.446   2
   0   2  -6 6014.86 339.131  20
   0  -2  -7 436991. 2297.76   2
   0   2  -7 431723. 2838.39  20
   0   2  -8 555.973 181.120  20
   0  -2  -8 592.729 142.785   2
   0   2  -9-351.194 183.952  20
   0   2 -10 27847.3 915.710  20
   0  -2 -10 27713.5 880.938  20
   0  -2 -11 1987.73 311.746  20
   0   2 -11 1601.15 287.961  20
   0   2 -12 975.290 242.027  20
   0  -2 -12 910.973 257.167  20
   0  -2 -13 5378.42 511.848  20
   0   2 -13 5112.00 494.970  20
   0  -2 -14 219.290 206.041  20
   0   2 -14 125.874 188.705  20
   0  -2 -15 12850.6 634.583  11
   0  -2 -16 139.315 213.409  11
   0  -2 -17 8561.22 530.927  11
   0  -2 -18 431.171 229.530  11
   0  -2 -19 364.395 210.019  11
   0  -2 -20-57.5482 163.597  11
   0   3   0 32.1093 74.3448  19
   0   3  -1-47.3956 103.331  19
   0   3   1 69.9864 54.4865  19
   0   3  -2 180.020 114.033  10
   0   3  -2 166.711 122.148  19
   0   3  -3 54.5450 124.667  19
   0  -3  -4-25.9810 99.6246   2
   0   3  -4 32.8582 133.107  20
   0   3  -4 36.2009 159.632  19
   0  -3  -5 11.9626 103.916   2
   0   3  -5 93.4779 147.307  20
   0   3  -6 121.787 143.804  20
   0  -3  -6-89.1777 111.971   2
   0  -3  -7 105.067 115.236   2
   0   3  -7 124.594 143.141  20
   0   3  -8 67.0170 154.839  20
   0  -3  -8 42.1393 122.971   2
   0   3  -9 36.1887 169.562  20
   0   3 -10-133.682 179.625  20
   0   3 -11 322.180 212.143  20
   0   3 -12 229.751 184.992  20
   0  -3 -12-30.9997 185.342  20
   0   3 -13 481.129 229.508  20
   0  -3 -13-9.72418 192.503  20
   0  -3 -14 291.403 228.544  11
   0   3 -14 833.245 273.562  20
   0  -3 -15 400.102 247.369  11
   0  -3 -16-104.386 222.030  11
   0  -3 -17 134.290 216.496  11
   0  -3 -18 39.1376 200.978  11
   0  -3 -19-172.856 199.821  11
   0  -3 -20-208.014 162.674  11
   0   4   0 459080. 2884.19  19
   0   4  -1 22870.0 744.043  19
   0   4   1 23052.3 553.107  19
   0   4  -2 94490.8 1677.26  19
   0   4  -2 95637.2 1501.47  10
   0   4  -3 90553.3 1085.34  20
   0   4  -3 88373.2 1332.63  10
   0   4  -3 88855.9 1796.44  19
   0  -4  -3 89593.7 916.419   2
   0  -4  -4 73232.1 892.369   2
   0   4  -4 74215.4 1059.11  20
   0   4  -5 477.938 172.905  20
   0  -4  -5 318.413 122.816   2
   0  -4  -6 57130.5 892.941   2
   0   4  -6 56684.2 1026.73  20
   0  -4  -7 174940. 1663.73   2
   0   4  -7 174537. 1928.29  20
   0   4  -8 18015.7 695.914  20
   0   4  -9 592.850 214.660  20
   0   4 -10 140221. 2072.69  20
   0   4 -11 184.336 202.907  20
   0   4 -12 9168.64 608.762  20
   0  -4 -12 8340.29 611.331  20
   0   4 -13 780.086 273.156  20
   0  -4 -13 1171.83 281.287  20
   0  -4 -14 21207.8 786.000  11
   0   4 -14 15526.5 866.068  20
   0  -4 -15 1940.68 322.614  11
   0  -4 -16-49.1988 210.519  11
   0  -4 -17 358.935 226.525  11
   0  -4 -18 60.6978 193.925  11
   0  -4 -19 112.629 177.993  11
   0  -4 -20 153.613 159.158  11
   0   5   0 53.5262 134.058  20
   0   5   0-56.6044 89.9913  19
   0   5  -1 206.664 129.147  20
   0   5  -1 69.4014 103.410  19
   0   5   1 27.0985 70.2161  19
   0   5  -2 52.7440 111.033   8
   0   5  -2-71.7139 134.963  19
   0   5  -2 35.8630 119.714  20
   0   5  -3 77.6216 130.544  20
   0   5  -3-68.8536 101.841   8
   0   5  -4-58.8506 105.848   8
   0   5  -4-158.588 138.710  20
   0   5  -5 32.5674 143.773  20
   0   5  -6 172.905 157.928  20
   0   5  -7-6.02288 156.488  20
   0   5  -8 185.686 189.847  20
   0   5  -9 59.9556 158.369  20
   0   5 -10-196.089 201.612  20
   0   5 -11 59.5722 184.298  20
   0   5 -12-145.190 206.494  20
   0   5 -13-131.819 217.592  20
   0  -5 -13-77.7255 208.394  20
   0  -5 -14 849.859 292.171  11
   0  -5 -15-49.4819 222.676  11
   0  -5 -16-112.093 212.666  11
   0   5 -17-295.471 225.924  15
   0  -5 -17-303.713 234.539  11
   0  -5 -18 92.5704 191.549  11
   0  -5 -19 150.682 168.985  11
   0  -5 -20 138.524 145.858  11
   0   6   0 461055. 2707.14  20
   0   6  -1 306.806 176.241  19
   0   6  -1 329.397 151.786  20
   0   6  -2 1315.40 184.942   8
   0   6  -2 1387.36 217.662  20
   0   6  -3 19639.0 609.389  20
   0   6  -3 19425.2 537.493   8
   0   6  -4 25033.0 706.628  20
   0   6  -4 23613.0 594.962   8
   0   6  -5 17014.4 612.537  20
   0   6  -6 15078.5 611.024  20
   0   6  -7 113942. 1726.27  20
   0   6  -8 20137.8 783.003  20
   0   6  -9 22573.3 869.091  20
   0   6 -10 50418.6 1324.39  20
   0   6 -11 3528.67 419.303  20
   0   6 -12 2200.05 331.326  20
   0  -6 -13 4359.56 406.925  11
   0   6 -13 3274.48 428.191  20
   0   6 -13 4261.81 404.431   7
   0   6 -14 15891.9 730.276   7
   0  -6 -14 16050.3 725.088  11
   0  -6 -15 274.392 232.240  11
   0  -6 -16-431.119 233.478  11
   0  -6 -17 382.921 228.927  11
   0   6 -17 946.954 250.344  15
   0   6 -18-173.376 185.123  15
   0  -6 -18 126.564 189.996  11
   0  -6 -19-46.2737 158.329  11
   0   7   0 110.089 144.713  20
   0   7  -1 220.349 163.401  20
   0   7  -1 399.062 176.797   8
   0   7  -2 69.1968 122.659   8
   0   7  -2-88.6872 143.829  20
   0   7  -3 28.9161 149.407  20
   0   7  -3-176.352 133.650   8
   0   7  -4-44.5398 147.225  20
   0   7  -5-81.0514 175.129  20
   0   7  -6-236.007 196.499  20
   0   7  -7-105.897 177.558  20
   0   7  -8-123.456 180.306  20
   0   7  -9-58.4583 181.125  20
   0   7 -10-229.542 192.001  20
   0   7 -11 115.471 184.290  20
   0   7 -12 115.832 191.358  20
   0  -7 -13-95.6842 227.220  11
   0   7 -13 346.575 225.792   7
   0  -7 -14 115.883 240.158  11
   0   7 -14 264.088 226.537   7
   0   7 -15 54.1404 200.844   7
   0  -7 -15-242.367 226.323  11
   0  -7 -16-189.763 221.487  11
   0  -7 -17 76.8321 199.438  11
   0   7 -18 118.681 177.650  15
   0  -7 -18 116.067 176.766  11
   0  -7 -19-56.9250 145.956  11
   0   7 -19-54.0907 149.887  15
   0   8   0 34610.5 891.434  20
   0   8  -1 18287.8 625.888   8
   0   8  -1 18391.8 666.983  20
   0   8  -2 23379.2 702.313   8
   0   8  -2 22710.9 749.275  20
   0   8  -3 85325.9 1463.69  20
   0   8  -3 85619.0 1315.15   8
   0   8  -4 59945.9 1277.70  20
   0   8  -5 18187.5 725.707  20
   0   8  -6 1575.15 263.937  20
   0   8  -7 94908.2 1733.88  20
   0   8  -8 13634.3 706.173  20
   0   8  -9-44.7866 182.469  20
   0   8 -10 8.46720 199.128  20
   0   8 -11 116.972 207.087  20
   0   8 -12 707.210 242.048   7
   0   8 -13 1819.27 319.268   7
   0   8 -14 343.642 225.199   7
   0  -8 -14 590.233 256.758  11
   0  -8 -15 4368.95 414.713  11
   0   8 -15 3413.60 405.992   7
   0   8 -16 601.057 228.477   7
   0  -8 -16 757.605 243.225  11
   0  -8 -17 1963.67 319.305  11
   0   8 -17 3007.04 324.685  15
   0  -8 -18 93.9468 169.760  11
   0   8 -18 93.2513 164.879  15
   0   9   0 1304.32 278.342   8
   0   9  -1 104.141 162.679   8
   0   9  -1 205.635 177.545  20
   0   9  -2 28.2297 165.259  20
   0   9  -2 69.5842 135.381   8
   0   9  -3-26.4793 160.450   8
   0   9  -3 75.0014 171.954  20
   0   9  -4 294.469 190.086  20
   0   9  -5 1.20188 187.225  20
   0   9  -6-74.3090 196.108  20
   0   9  -7-84.1582 193.772  20
   0   9  -8-215.507 215.056  20
   0   9  -9-195.340 209.695  20
   0   9 -10 90.2703 184.551  20
   0   9 -11 185.761 209.294   7
   0   9 -12 24.8310 196.841   7
   0   9 -13-150.300 206.287   7
   0   9 -14-134.810 203.962   7
   0   9 -15 289.324 208.927   7
   0   9 -16-225.365 199.331   7
   0   9 -17-173.351 166.210  15
   0   9 -17-51.7185 160.063   7
   0   9 -18-73.4250 141.420  15
   0  10   0 286256. 2850.34   8
   0  10  -1 49144.5 1188.89   8
   0  10   1 49965.1 1204.33   8
   0  10  -2 2320.53 330.024  20
   0  10  -2 2337.02 296.241   8
   0  10  -3 815.834 201.345   8
   0  10  -3 766.337 222.948  20
   0  10  -4 34123.4 1100.53  20
   0  10  -5 1677.41 288.392  20
   0  10  -6 245.996 188.864  20
   0  10  -7 3112.28 379.968  20
   0  10  -8 5537.49 529.970  20
   0  10  -9 9024.82 520.951   7
   0  10  -9 8053.42 617.409  20
   0  10 -10 7438.04 495.822   7
   0  10  10 7836.10 706.235   6
   0  10 -11 1683.65 281.850   7
   0  10 -12 728.101 229.519   7
   0  10 -13 366.875 218.606   7
   0  10 -14 2489.94 351.819   7
   0  10 -15 119.166 179.489   7
   0  10 -16-84.5163 171.904   7
   0  10 -17-19.1086 158.582  15
   0  10 -17 131.289 156.388   7
   0  11   0 262.091 199.698   8
   0  11   1 587.196 270.898   8
   0  11  -1-110.808 202.405   8
   0  11  -2-244.048 172.899   8
   0  11   2 1989.05 425.668   8
   0  11  -3 190.065 229.412  20
   0  11  -4 123.065 206.445  20
   0  11  -5 105.528 200.584  20
   0  11  -6 45.2510 174.945  20
   0  11  -7 154.241 193.685  20
   0  11   8-50.8446 254.752   6
   0  11  -8 189.401 189.789   7
   0  11  -9 66.2605 201.909   7
   0  11   9-71.9230 270.961   6
   0  11 -10 78.8327 185.649   7
   0  11  10-261.373 318.107   6
   0  11 -11-422.191 234.249   7
   0  11 -12-112.174 194.076   7
   0  11 -13-146.827 195.198   7
   0  11 -14 39.3163 178.438   7
   0  11 -15-360.822 190.638   7
   0  11 -16 23.1542 152.549   7
   0  12   0 12798.8 703.773   8
   0  12  -1 856.572 222.568   8
   0  12   1 1586.77 294.675   8
   0  12   2 10981.7 689.756   8
   0  12  -2 10787.1 629.595   8
   0  12   3 21255.5 942.593   8
   0  12   4 6679.60 660.300   8
   0  12  -4 2701.51 364.563  20
   0  12  -5-40.7759 206.269  20
   0  12   5-72.2406 220.890   6
   0  12   6 7295.88 623.920   6
   0  12  -6 7186.55 478.932   7
   0  12  -7 21007.0 799.354   7
   0  12   7 22681.1 1068.30   6
   0  12   8 4934.60 573.545   6
   0  12  -8 4626.49 412.437   7
   0  12  -9 328.299 197.074   7
   0  12   9 255.362 284.776   6
   0  12 -10 590.124 264.486   7
   0  12  10 836.899 349.612   6
   0  12 -11 15.0217 198.868   7
   0  12  11 148.461 277.466   6
   0  12 -12 642.471 229.464   7
   0  12 -13 310.730 190.586   7
   0  12 -14 199.050 177.610   7
   0  12 -15 923.892 212.916   7
   0  13   0-60.4765 244.931   6
   0  13   0-479.823 229.989   8
   0  13  -1-358.382 238.206   8
   0  13  -1-127.504 242.408   6
   0  13   1-199.730 279.492   6
   0  13   2-326.292 264.113   6
   0  13   3 163.002 270.986   6
   0  13   4-76.8651 243.617   6
   0  13   5-113.047 269.669   6
   0  13   6-218.035 296.082   6
   0  13  -6-357.106 223.126   7
   0  13  -7-87.7275 190.251   7
   0  13   7 84.8488 243.763   6
   0  13  -8-76.9921 190.559   7
   0  13   8 17.3271 256.942   6
   0  13   9-457.901 287.320   6
   0  13  -9-33.2666 179.296   7
   0  13 -10 57.9935 181.216   7
   0  13  10 175.573 251.527   6
   0  13  11-369.939 273.619   6
   0  13 -11 8.87418 170.064   7
   0  13 -12 111.502 172.522   7
   0  13 -13-91.2739 166.542   7
   0  13 -14-7.76336 135.842   7
   0  14   0 610.483 329.559   6
   0  14   1 1068.56 364.237   6
   0  14  -1 652.509 318.342   6
   0  14   2 1486.41 376.467   6
   0  14   3 190.873 249.613   6
   0  14   4 986.827 337.808   6
   0  14   5 510.843 285.668   6
   0  14   6 2235.10 398.955   6
   0  14  -7 4590.25 391.748   7
   0  14   7 4697.99 531.157   6
   0  14  -8 664.019 219.524   7
   0  14   8 340.288 296.900   6
   0  14   9 1159.57 325.861   6
   0  14  -9 1130.56 261.829   7
   0  14 -10 1690.26 267.008   7
   0  14  10 1498.62 331.671   6
   0  14 -11-143.637 168.952   7
   0  14  11 39.1808 211.721   6
   0  14 -12 555.148 188.211   7
   0  14 -13 445.030 169.837   7
   0  15   0-185.661 254.543   6
   0  15   1 280.470 276.301   6
   0  15  -1 170.625 258.739   6
   0  15   2-192.953 315.057   6
   0  15   3-28.7387 279.394   6
   0  15   4 58.3056 234.928   6
   0  15   5 171.303 252.140   6
   0  15   6 40.9836 224.142   6
   0  15   7-130.878 255.955   6
   0  15   8-82.2896 225.187   6
   0  15  -8-106.785 155.575   7
   0  15   9-1.33615 201.850   6
   0  15  -9 156.542 166.440   7
   0  15  10-104.947 207.045   6
   0  15 -10 71.0177 150.408   7
   0  15 -11-107.673 160.468   7
   0  15  11 301.533 203.169   6
   0  15 -12 53.5834 132.321   7
   0  16   0 1277.78 364.122   6
   0  16  -1-269.485 261.082   6
   0  16   1-123.522 255.291   6
   0  16   2 54.2866 237.673   6
   0  16   3 327.157 266.371   6
   0  16   4-191.407 250.419   6
   0  16   5 1088.65 299.642   6
   0  16   6 153.764 209.006   6
   0  16   7 649.850 250.982   6
   0  16   8 936.696 265.746   6
   0  16   9 1406.22 286.387   6
   0  16  -9 2351.51 253.529   7
   0  16  10 552.115 213.776   6
   0  16 -10 296.799 153.971   7
   0  17   0-284.400 251.715   6
   0  17   1-119.025 245.356   6
   0  17   2-502.929 270.219   6
   0  17   3 72.9671 213.976   6
   0  17   4-141.066 201.009   6
   0  17   5-56.3571 196.891   6
   0  17   6-222.094 187.031   6
   0  17   7-11.6068 162.053   6
   0  17   8 138.106 159.913   6
   0  18   0 169.894 191.302   6
   0  18   1-123.847 205.506   6
   0  18   2 235.706 211.371   6
   0  18   3-241.529 196.320   6
   0  18   4 207.612 171.429   6
   0  18   5 92.4179 160.932   6
  -1   0   0-17.3232 55.1318  10
  -1   0   1 66.2969 65.7122  10
   1   0   2 734143. 2894.60  19
   1   0   3 15.4598 86.9789  19
  -1   0  -4 50815.7 1051.20  19
   1   0   4 50738.5 1066.03  19
  -1   0  -5 165.702 144.634  19
   1   0  -6 123940. 2080.28  19
  -1   0  -6 125345. 1269.87  20
  -1   0  -6 122914. 2036.56  19
   1   0  -7-2.80486 147.284  20
  -1   0  -7-88.7461 131.500  20
   1   0  -8 92865.8 1385.70  20
  -1   0  -8 91269.8 1337.16  20
  -1   0  -9-36.2148 142.248  20
   1   0  -9 12.6943 171.994  20
   1   0 -10 203.473 192.663  20
  -1   0 -10 49.5964 155.395  20
   1   0 -11-312.348 226.724  20
  -1   0 -11-312.037 222.953  20
  -1   0 -12 5649.60 481.623  20
   1   0 -12 6203.51 525.379  20
   1   0 -13-58.0568 202.849  20
   1   0 -14 5811.47 570.108  20
  -1   0 -15-291.095 236.875  11
   1   0 -15-77.3258 209.809  11
  -1   0 -16-73.1028 220.406  11
   1   0 -16 24.9719 219.585  11
   1   0 -17-136.896 209.474  11
  -1   0 -17 37.1390 221.195  11
   1   0 -18 2376.24 328.932  11
  -1   0 -18 2496.53 332.299  11
  -1   0 -19-93.0772 193.117  11
   1   0 -19-134.866 193.781  11
  -1   0 -20 239.747 179.967  11
  -1   1   0 155.807 99.7547  10
  -1   1  -1 64680.0 990.065  10
   1  -1   1 65494.6 972.177  10
  -1   1  -2 145213. 1536.44  19
   1  -1   3 207028. 2086.62  19
  -1   1  -3 201478. 2027.03  19
   1   1   3 206539. 1599.04  19
   1  -1   4 39405.0 1024.41  19
   1   1   4 40722.8 844.660  19
  -1   1  -4 39329.4 1009.25  19
   1   1  -5 47313.9 772.785  20
  -1   1  -5 47354.8 1237.64  19
   1  -1  -6 10751.4 577.589  19
  -1   1  -6 11474.1 412.813  20
   1   1  -6 11168.8 437.726  20
   1  -1  -6 11242.3 351.862   2
   1  -1  -7 81.5744 97.7977   2
  -1   1  -7 457.216 175.926  20
   1   1  -7 101.514 140.596  20
   1   1  -8 24213.6 726.970  20
  -1  -1  -8 23303.8 655.038  20
   1  -1  -8 24283.7 585.337   2
  -1   1  -8 24337.9 691.560  20
  -1   1  -9 49.5497 151.070  20
   1   1  -9-82.4144 179.665  20
   1  -1  -9 89.7159 178.851  20
  -1  -1  -9 70.5837 146.618  20
  -1   1 -10 10736.1 564.037  20
   1  -1 -10 11561.8 596.929  20
  -1  -1 -10 11172.9 557.918  20
   1   1 -10 11116.1 581.129  20
   1  -1 -11 14563.7 711.738  20
  -1  -1 -11 14129.1 665.841  20
   1   1 -11 14177.7 707.872  20
  -1   1 -11 15012.9 697.649  20
  -1   1 -12 13877.5 707.228  20
   1   1 -12 14174.2 750.111  20
  -1  -1 -12 13522.3 697.590  20
   1  -1 -12 13839.1 758.096  20
  -1   1 -13 4040.87 421.157  20
   1  -1 -13 4296.39 472.814  20
   1   1 -13 4025.21 465.832  20
   1  -1 -14 6176.72 596.050  20
   1   1 -14 6129.03 580.387  20
  -1  -1 -15 234.674 222.324  11
  -1   1 -15 476.179 252.602  11
   1  -1 -15 446.673 241.575  11
   1  -1 -16 222.766 218.367  11
  -1  -1 -16-170.689 221.454  11
  -1   1 -16 212.220 224.473  11
  -1   1 -17 321.151 228.673  11
  -1  -1 -17 18.9405 218.620  11
   1  -1 -17-3.26611 205.781  11
  -1   1 -18 1184.64 277.191  11
  -1  -1 -18 1838.87 313.176  11
   1  -1 -18 1005.81 274.832  11
  -1   1 -19 89.6731 187.470  11
  -1  -1 -19 351.422 208.094  11
   1  -1 -19 181.636 193.312  11
   1  -1 -20 180.772 174.553  11
  -1  -1 -20 605.956 205.021  11
   1  -2   0 118.909 82.1973  19
   1  -2   1 454354. 2673.71  19
  -1   2  -1 448428. 3019.67  10
   1  -2   2 99462.1 1385.85  10
  -1   2  -2 97364.7 1409.87  10
  -1   2  -2 100423. 1420.40  19
   1  -2   3 1390.48 201.144  10
  -1   2  -3 1173.83 191.095  19
   1   2   3 1495.25 124.316  19
   1   2   4 15312.2 446.349  19
   1  -2   4 15314.5 642.278  10
  -1   2  -4 14481.3 678.307  19
  -1   2  -5 224148. 1661.59  20
   1  -2  -5 217078. 1915.90  19
   1  -2  -5 223030. 1447.56   2
   1   2  -5 223677. 1741.10  20
   1  -2  -6 24508.3 541.174   2
   1   2  -6 23932.6 634.542  20
  -1   2  -6 24000.8 616.910  20
  -1   2  -7 1536.69 215.440  20
   1  -2  -7 1509.67 177.230   2
   1   2  -7 1510.53 213.472  20
  -1   2  -8 4008.69 329.015  20
   1   2  -8 3669.45 308.516  20
   1  -2  -8 4182.76 278.694   2
   1   2  -9 43550.9 1050.01  20
  -1   2  -9 42875.8 1011.13  20
   1  -2  -9 39883.4 849.945   2
  -1  -2 -10 795.064 195.763  20
  -1   2 -10 824.961 222.923  20
   1   2 -10 676.349 206.170  20
  -1   2 -11 18942.9 771.007  20
   1  -2 -11 18647.3 818.738  20
  -1  -2 -11 18805.3 751.803  20
   1   2 -11 17678.1 793.921  20
  -1  -2 -12 681.404 223.026  20
  -1   2 -12 630.691 204.731  20
   1  -2 -12 768.382 233.799  20
   1   2 -12 593.465 238.684  20
   1   2 -13-64.3714 191.684  20
  -1   2 -13-314.220 201.727  20
   1  -2 -13-71.7774 208.761  20
   1  -2 -14 126.832 229.715  20
   1   2 -14-444.634 285.214  20
  -1  -2 -15 4723.76 427.236  11
   1  -2 -15 4598.12 425.854  11
   1  -2 -16-219.259 220.812  11
  -1  -2 -16-25.5540 220.077  11
   1  -2 -17 403.223 241.346  11
  -1  -2 -17 853.078 272.950  11
  -1  -2 -18-52.3819 202.095  11
   1  -2 -18 59.7116 203.157  11
   1  -2 -19-139.850 203.156  11
  -1  -2 -19 65.1066 188.049  11
  -1  -2 -20 41.8118 157.235  11
   1  -2 -20 32.5113 172.731  11
   1  -3   0 249.877 109.291  19
   1  -3   1 56194.5 1080.26  19
  -1   3  -1 54876.4 1230.07  10
   1  -3  -1 56630.2 797.699  19
  -1   3  -1 56640.4 1077.88  19
  -1   3  -2 26255.5 818.241  19
   1  -3   2 27130.8 843.334  19
   1  -3  -2 25635.6 433.675  19
  -1   3  -2 26605.0 842.268  10
  -1   3  -3 203.251 141.351  19
   1   3   3 239.886 49.9376  19
   1   3  -4 535.657 141.106  20
   1  -3   4 506.311 148.645  10
  -1   3  -4 496.734 140.263  20
   1  -3  -4 531.435 123.912   2
   1  -3  -5 100857. 1064.67   2
   1   3  -5 97254.3 1213.76  20
  -1   3  -5 96918.6 1183.05  20
   1   3  -6 35400.8 803.252  20
   1  -3  -6 36789.5 705.589   2
  -1   3  -6 37148.8 790.133  20
   1   3  -7 25703.5 730.488  20
  -1   3  -7 25755.2 713.720  20
   1  -3  -7 24845.4 626.547   2
   1  -3  -8 9444.99 419.576   2
  -1   3  -8 9203.18 480.671  20
   1   3  -8 9311.60 487.692  20
   1  -3  -9 14428.0 532.971   2
   1   3  -9 14883.5 641.771  20
  -1   3  -9 14949.0 633.780  20
  -1   3 -10 729.147 206.086  20
   1  -3 -10 816.449 180.454   2
   1   3 -10 356.950 185.827  20
   1   3 -11 40268.7 1176.78  20
  -1  -3 -11 41731.6 1110.22  20
  -1   3 -11 40582.4 1144.08  20
   1  -3 -12 3064.51 389.263  20
   1   3 -12 2666.51 356.860  20
  -1   3 -12 2501.37 355.168  20
  -1   3 -13 15549.2 806.297  20
   1  -3 -13 16072.2 875.522  20
   1   3 -13 15862.4 831.470  20
   1  -3 -14 3594.41 374.074  11
   1   3 -14 2756.66 415.823  20
  -1  -3 -14 4401.66 391.665  11
   1  -3 -14 3527.81 466.011  20
  -1  -3 -15 127.262 229.694  11
   1  -3 -15 192.286 221.278  11
  -1  -3 -16 191.034 228.354  11
   1  -3 -16 386.712 238.439  11
   1  -3 -17 649.260 242.573  11
  -1  -3 -17 403.922 235.333  11
  -1  -3 -18 106.782 203.811  11
   1  -3 -18-9.65359 199.179  11
   1  -3 -19 1024.30 253.723  11
  -1  -3 -19 738.956 225.523  11
  -1  -3 -20 146.296 159.162  11
   1  -3 -20-63.0124 151.748  11
  -1   4  -1 33201.7 1081.16  10
  -1   4  -1 33907.4 931.035  19
  -1   4  -2 809.177 217.732  10
  -1   4  -2 786.732 198.490  19
   1   4  -3 47.5181 131.217  20
  -1   4  -3 51.4674 128.721  10
   1  -4  -3 242.931 140.855   2
  -1   4  -3 96.1489 135.515  20
  -1   4  -4 76262.2 926.886   8
  -1   4  -4 75039.8 1077.98  20
   1   4  -4 76068.2 1101.06  20
   1  -4  -4 74548.3 940.773   2
   1  -4  -5 31540.7 648.800   2
   1   4  -5 31055.0 736.325  20
  -1   4  -5 30729.6 717.805  20
   1   4  -6 7012.69 402.088  20
   1  -4  -6 7644.86 352.086   2
  -1   4  -6 7037.98 379.505  20
   1   4  -7 2698.14 281.333  20
   1  -4  -7 2959.89 246.274   2
  -1   4  -7 2632.28 274.040  20
  -1   4  -8 71282.2 1309.99  20
   1  -4  -8 70104.5 1152.15   2
   1   4  -8 70499.6 1325.06  20
  -1   4  -9 5580.91 419.391  20
   1   4  -9 4779.58 394.034  20
   1  -4  -9 5595.50 362.223   2
   1   4 -10 9544.65 589.659  20
   1  -4 -10 10179.8 508.848   2
  -1   4 -10 9849.54 579.713  20
   1   4 -11 4205.53 435.295  20
  -1   4 -11 4514.48 428.117  20
   1   4 -12 19704.9 891.815  20
  -1   4 -12 18703.5 866.873  20
   1   4 -13 576.303 263.163  20
  -1   4 -13 98.7353 188.424  20
   1  -4 -13 374.084 222.724  20
   1  -4 -14 4510.96 492.481   5
   1  -4 -14 6134.24 458.783  11
  -1  -4 -14 5363.73 448.952  11
  -1  -4 -15-22.5821 230.002  11
   1  -4 -15 783.100 247.120  11
   1  -4 -15 555.352 296.531   5
   1  -4 -16 1481.46 294.150  11
  -1   4 -16 1655.82 317.118  15
  -1  -4 -16 1455.21 289.255  11
   1  -4 -17 333.643 219.101  11
  -1  -4 -17 291.932 227.903  11
  -1  -4 -18 1394.41 281.407  11
   1  -4 -18 971.937 263.384  11
   1  -4 -19 25.6425 169.664  11
  -1  -4 -19 37.0010 171.200  11
   1  -4 -20-70.1189 142.228  11
  -1  -4 -20 11.0731 145.943  11
  -1   5   0-30.5316 107.332  20
   1   5   0 95.9983 138.229  20
  -1   5  -1 3969.76 451.079  10
  -1   5  -1 4140.55 376.593  19
   1   5   1 3601.45 277.428  19
   1  -5  -1 4223.70 207.618   2
   1   5   1 4202.23 254.201  20
  -1   5  -1 4017.44 260.781  20
  -1   5  -1 4183.42 254.134   8
   1   5  -1 4350.32 274.429  20
   1   5  -2 37187.0 746.234  20
  -1   5  -2 37178.2 744.754  20
  -1   5  -2 36848.0 1220.01  10
  -1   5  -2 37641.3 701.410   8
   1  -5  -2 39290.0 640.250   2
  -1   5  -3 13826.9 478.821  20
  -1   5  -3 13435.5 439.748   8
   1  -5  -3 14315.3 425.230   2
   1   5  -3 13391.5 480.899  20
   1  -5  -4 115381. 1252.48   2
  -1   5  -4 116991. 1253.21   8
  -1   5  -4 113456. 1373.37  20
   1   5  -4 114458. 1435.60  20
  -1   5  -5 9271.39 375.169   8
   1  -5  -5 9040.46 386.894   2
   1   5  -5 9053.14 443.123  20
  -1   5  -5 9300.66 433.017  20
   1   5  -6 23809.9 751.930  20
  -1   5  -6 24859.9 743.725  20
   1  -5  -6 23344.1 645.677   2
  -1   5  -7 363.350 164.733  20
   1  -5  -7 243.079 143.181   2
   1   5  -7 291.234 171.991  20
  -1   5  -8 2208.16 289.403  20
   1  -5  -8 2276.79 248.841   2
   1   5  -8 1813.20 266.155  20
  -1   5  -9 14201.1 653.792  20
   1   5  -9 13443.0 644.768  20
   1  -5  -9 14041.3 585.770   2
   1   5 -10 4851.38 429.851  20
  -1   5 -10 5084.16 448.149  20
  -1   5 -11 1311.75 279.139  20
   1   5 -11 1567.64 303.977  20
   1   5 -12 12654.2 751.235  20
  -1   5 -12 13307.1 740.341  20
  -1   5 -13 351.222 218.149  20
   1  -5 -13-144.562 208.553  20
   1   5 -13-34.7313 202.584  20
  -1   5 -14 7083.22 506.100   7
   1  -5 -14 7217.60 508.684  11
   1  -5 -14 6822.90 559.687   5
  -1  -5 -14 7137.42 518.209  11
  -1  -5 -15 59.2346 236.178  11
   1  -5 -15 285.714 228.782  11
   1  -5 -15-22.4456 250.145   5
   1  -5 -16-245.588 217.678  11
  -1  -5 -16 64.4280 217.513  11
  -1  -5 -17 192.371 217.928  11
   1  -5 -17 57.9686 201.808  11
  -1   5 -17-149.030 223.756  15
  -1   5 -18 1648.54 273.407  15
  -1  -5 -18 1653.49 299.673  11
   1  -5 -18 1075.88 273.813  11
   1  -5 -19 77.4977 160.601  11
  -1  -5 -19 371.118 189.111  11
  -1  -5 -20 66.0153 137.610  11
   1  -5 -20 216.408 148.425  11
   1   6   0 89.0784 146.320  20
  -1   6   0-112.176 131.424  20
  -1   6  -1 72603.8 1100.66  20
   1   6  -1 72162.1 1101.05  20
   1   6   1 72192.6 1074.94  20
  -1   6  -1 71301.9 1063.27   8
  -1   6  -2 36853.3 757.174   8
  -1   6  -2 35986.1 799.925  20
   1  -6  -2 35922.8 663.408   2
   1   6  -2 35804.4 810.805  20
   1  -6  -3 2637.95 223.233   2
  -1   6  -3 2726.30 240.092   8
  -1   6  -3 2945.71 277.460  20
   1   6  -3 2926.75 231.317   8
   1   6  -3 2960.57 296.812  20
   1  -6  -4 32945.1 721.787   2
   1   6  -4 33579.9 841.841  20
  -1   6  -4 34220.5 828.003  20
  -1   6  -4 32120.6 732.489   8
   1   6  -5 39881.6 948.697  20
  -1   6  -5 38052.3 808.801   8
   1  -6  -5 38332.1 815.906   2
  -1   6  -5 40011.4 933.399  20
   1  -6  -6 7787.78 404.986   2
   1   6  -6 8924.66 493.923  20
  -1   6  -6 8159.40 457.115  20
   1  -6  -7 5501.52 364.742   2
   1   6  -7 5513.91 431.883  20
  -1   6  -7 5950.82 428.018  20
  -1   6  -8 43379.4 1100.17  20
   1   6  -8 42919.9 1131.09  20
  -1   6  -9 19612.5 795.649  20
   1   6  -9 18598.6 814.873  20
   1   6 -10 481.810 213.462  20
  -1   6 -10 533.271 227.856  20
   1   6 -11 10638.9 681.114  20
  -1   6 -11 11350.6 673.981  20
  -1   6 -12 3725.58 434.239  20
   1   6 -12 3691.75 435.669  20
   1  -6 -13 537.177 238.666  11
  -1  -6 -13 435.885 235.242  11
   1   6 -13-45.6902 184.188   7
  -1   6 -13 81.1584 209.997  20
  -1   6 -13 291.635 233.322   7
   1  -6 -13 318.902 290.516   5
  -1  -6 -14 2397.34 357.345  11
  -1   6 -14 2640.65 356.688   7
   1  -6 -14 2706.49 365.256  11
   1  -6 -15 1143.23 277.212  11
  -1  -6 -15 661.787 249.899  11
  -1   6 -15 1009.66 272.011   7
   1  -6 -16-89.8000 209.894  11
  -1  -6 -16 122.044 235.117  11
  -1  -6 -17 100.087 215.730  11
  -1   6 -17 121.268 218.278  15
   1  -6 -17-64.8437 203.150  11
  -1   6 -18 146.182 190.211  15
   1  -6 -18 128.463 181.073  11
  -1  -6 -18 182.318 191.020  11
  -1  -6 -19-87.8157 159.510  11
  -1   6 -19 76.7833 148.127  15
   1  -6 -19-18.7978 155.074  11
  -1   7   0 183.707 154.887  20
  -1   7   0 473.293 187.312   8
   1   7   0 207.158 165.700  20
  -1   7  -1 39460.7 883.979  20
   1   7  -1 38947.8 886.183  20
  -1   7  -1 39792.0 863.208   8
   1   7  -2 15932.0 579.714  20
   1   7  -2 15727.8 518.511   8
  -1   7  -2 16128.8 549.923   8
  -1   7  -2 16458.8 583.730  20
   1   7  -3 14846.0 591.484  20
  -1   7  -3 15000.9 587.066  20
   1   7  -3 14558.4 504.590   8
  -1   7  -3 15030.9 533.764   8
  -1   7  -4 16537.0 631.728  20
   1   7  -4 16345.6 633.416  20
  -1   7  -4 15610.3 541.766   8
   1   7  -5 3687.90 345.180  20
  -1   7  -5 3569.67 345.735  20
  -1   7  -6 20202.3 750.459  20
   1   7  -6 19814.4 752.261  20
  -1   7  -7 4241.86 392.821  20
   1   7  -7 4127.25 380.087  20
   1   7  -8 1014.27 244.551  20
  -1   7  -8 585.985 210.006  20
  -1   7  -9-32.5297 161.769  20
   1   7  -9 42.0147 198.526  20
   1   7 -10 5591.72 478.625  20
  -1   7 -10 5824.35 488.797  20
   1   7 -11 5963.30 521.941  20
  -1   7 -11 6137.07 521.096  20
   1   7 -12 8073.88 628.330  20
  -1   7 -12 8045.60 608.930  20
  -1   7 -12 8670.33 542.407   7
   1  -7 -13 2463.65 337.388  11
  -1  -7 -13 2321.15 332.040  11
   1   7 -13 2434.96 326.305   7
  -1   7 -13 2908.46 371.104   7
  -1   7 -14 4690.12 438.820   7
   1  -7 -14 4577.52 434.988  11
  -1  -7 -14 5044.78 454.285  11
   1   7 -14 4282.75 406.036   7
   1  -7 -15 592.140 267.089  11
  -1   7 -15-43.1147 201.745   7
  -1  -7 -15 0.82355 222.859  11
  -1   7 -16 177.869 212.975   7
   1  -7 -16 11.8927 205.126  11
  -1  -7 -16 28.4503 202.390  11
  -1  -7 -17 138.493 195.337  11
  -1   7 -17-13.6478 195.655  15
   1  -7 -17 5.08333 191.088  11
  -1   7 -18 251.152 189.729  15
  -1  -7 -18 204.567 186.311  11
   1  -7 -18 147.758 184.088  11
   1   7 -18 242.727 175.078  15
  -1   7 -19-32.0889 144.164  15
   1  -7 -19 468.461 170.908  11
  -1  -7 -19 340.140 180.025  11
   1   8   0 66.7114 168.731  20
  -1   8   0 292.385 188.127   8
  -1   8  -1 37547.6 936.490  20
  -1   8  -1 37218.8 913.535   8
   1   8  -1 37181.7 945.890  20
   1   8  -2 17964.6 677.553  20
  -1   8  -2 18381.8 676.235  20
  -1   8  -2 17987.6 628.475   8
   1   8  -2 17929.8 603.546   8
   1   8  -3 1058.87 242.215  20
  -1   8  -3 1379.66 247.215  20
  -1   8  -3 956.781 170.566   8
   1   8  -4 1252.19 254.417  20
  -1   8  -4 1227.87 232.377  20
  -1   8  -4 1442.48 220.511   8
  -1   8  -5 31874.7 965.861  20
   1   8  -5 32206.3 972.817  20
   1   8  -6 7238.40 498.562  20
  -1   8  -6 7851.88 504.563  20
   1   8  -7 8784.47 563.473  20
  -1   8  -7 8103.77 531.182  20
   1   8  -8 2033.62 316.350  20
  -1   8  -8 1645.99 277.778  20
   1   8  -9 4985.77 467.652  20
  -1   8  -9 5010.57 457.161  20
   1   8 -10 357.658 200.933  20
  -1   8 -10 11.3279 166.941  20
   1   8 -11 3418.62 415.261  20
  -1   8 -11 3887.06 445.457  20
  -1   8 -12 269.960 213.189   7
   1   8 -12 149.854 200.482   7
   1   8 -13-142.694 189.043   7
  -1   8 -13-0.18719 197.762   7
   1  -8 -13 120.048 224.417  11
   1   8 -14 100.005 225.573   7
   1  -8 -14 318.930 220.875  11
  -1   8 -14 245.503 232.217   7
   1  -8 -15 2310.07 341.470  11
  -1   8 -15 2496.97 340.677   7
   1   8 -15 2915.45 343.352   7
  -1   8 -16 269.986 222.067   7
   1  -8 -16 154.488 201.102  11
  -1  -8 -16 61.0260 196.370  11
  -1   8 -17 300.966 199.730  15
  -1  -8 -17 379.226 216.279  11
   1  -8 -17-96.1213 189.248  11
  -1   8 -17 128.943 185.296   7
  -1  -8 -18 198.251 169.814  11
   1  -8 -18 361.252 181.291  11
  -1   8 -18 247.577 175.180  15
   1   8 -18 357.892 184.593  15
  -1   9   0 567.985 190.887   8
   1   9  -1 2543.03 321.118   8
   1   9  -1 1896.53 283.239  20
  -1   9  -1 1957.64 273.997  20
  -1   9  -1 1645.14 248.400   8
  -1   9   1 2234.59 310.491   8
  -1   9  -2 3377.17 336.245  20
   1   9  -2 3402.42 351.526  20
   1   9  -2 3610.53 315.049   8
  -1   9  -2 3258.62 314.379   8
   1   9  -3 36010.8 1025.81  20
  -1   9  -3 34718.5 934.279   8
  -1   9  -3 35710.4 1012.06  20
  -1   9  -4 1456.84 233.215   8
   1   9  -4 1204.40 255.537  20
  -1   9  -4 1311.88 254.651  20
  -1   9  -5 35566.4 1076.49  20
   1   9  -5 36834.4 1113.95  20
  -1   9  -6 2699.20 347.509  20
   1   9  -6 2832.07 360.488  20
   1   9  -7 5633.10 488.719  20
  -1   9  -7 5937.49 486.986  20
   1   9  -8 1481.25 280.659  20
  -1   9  -8 1712.91 312.146  20
   1   9  -9 8632.62 608.595  20
  -1   9  -9 8832.54 611.580  20
  -1   9 -10 114.912 204.933  20
   1   9 -10 504.709 199.294  20
   1   9 -11 10766.4 578.391   7
  -1   9 -11 11291.4 596.745   7
   1   9 -12 97.2889 216.099   7
  -1   9 -12-194.376 208.605   7
  -1   9 -13 1709.61 306.362   7
   1   9 -13 1442.66 296.042   7
   1   9 -14 295.034 212.630   7
  -1   9 -14 536.692 249.666   7
  -1   9 -15-67.8751 195.406   7
   1   9 -15 270.394 195.546   7
   1   9 -16-132.942 191.477   7
  -1   9 -16 15.0678 181.291   7
   1  -9 -17-118.234 166.959  11
  -1   9 -17 84.4992 165.076   7
  -1   9 -17-100.826 169.568  15
   1   9 -18-20.0073 150.695  15
  -1   9 -18 5.58053 143.185  15
  -1  10   0 472.143 213.528   8
   1  10   0 1259.12 322.800   8
   1  10  -1 10722.9 569.921   8
  -1  10  -1 10587.3 572.942   8
   1  10  -1 10590.0 616.042  20
  -1  10   1 11529.0 619.894   8
   1  10  -2 45902.5 1236.49  20
  -1  10  -2 45623.0 1204.24  20
  -1  10  -2 45192.6 1144.08   8
   1  10  -2 45315.9 1124.21   8
  -1  10   2 46882.2 1217.42   8
  -1  10  -3 2689.14 295.018   8
  -1  10  -3 2834.23 347.062  20
   1  10  -3 2800.66 353.307  20
   1  10  -4 1485.50 270.179  20
  -1  10  -4 2024.97 314.511  20
  -1  10  -5 254.578 198.859  20
   1  10  -5 226.510 192.742  20
  -1  10  -6 7382.99 547.486  20
   1  10  -6 7262.98 562.122  20
  -1  10  -7 168.030 189.061  20
   1  10  -7 167.818 214.832  20
  -1  10  -8 6210.16 527.515  20
   1  10  -8 6498.58 553.111  20
   1  10  -9 2286.48 295.138   7
  -1  10  -9 2328.44 307.242   7
   1  10  -9 1939.34 349.236  20
  -1  10  -9 2010.46 356.644  20
   1  10 -10 579.956 222.547   7
  -1  10  10 870.941 344.748   6
  -1  10 -10 1003.30 254.657   7
  -1  10 -11 73.6625 190.490   7
  -1  10  11 108.981 286.291   6
   1  10 -11 184.213 198.221   7
  -1  10 -12 951.930 264.159   7
   1  10 -12 404.983 218.113   7
   1  10 -13 18.0870 190.635   7
  -1  10 -13 33.6267 209.587   7
  -1  10 -14 618.494 247.005   7
   1  10 -14 753.504 248.568   7
   1  10 -15 211.830 188.719   7
  -1  10 -15 0.59985 169.139   7
  -1  10 -16 64.8485 172.602   7
  -1  10 -16-129.863 189.534  15
   1  10 -16-151.309 176.818   7
  -1  10 -17 133.331 161.513   7
   1  10 -17-86.8495 156.920   7
  -1  10 -17 61.0211 157.613  15
  -1  11   0 83.4823 171.799   8
   1  11   0 523.447 240.166   8
  -1  11   1 2449.00 348.081   8
  -1  11  -1 1969.82 303.380   8
   1  11  -1 2404.60 327.319   8
   1  11  -2 11892.8 671.294  20
  -1  11   2 11956.5 674.373   8
  -1  11  -2 10556.2 607.020   8
   1  11  -3 392.731 224.614  20
  -1  11  -3 505.708 223.868  20
  -1  11  -3 275.883 174.583   8
  -1  11  -4 32137.5 1113.45  20
   1  11  -4 32704.9 1140.51  20
  -1  11   4 33312.2 1146.24   8
   1  11  -5 2215.45 346.327  20
  -1  11  -5 1816.85 328.751  20
  -1  11  -6 9565.59 645.163  20
   1  11  -6 9520.31 663.163  20
   1  11  -7 766.198 276.650  20
  -1  11  -7 711.441 239.484  20
   1  11  -8 321.384 212.345   7
   1  11   8 397.130 304.476   6
  -1  11   8 318.483 288.667   6
  -1  11  -8 750.267 236.791   7
   1  11  -9 3769.63 395.056   7
  -1  11  -9 3898.31 383.754   7
   1  11   9 4242.67 524.979   6
  -1  11   9 4312.76 539.818   6
  -1  11  10 2999.46 470.945   6
  -1  11 -10 2552.10 335.429   7
   1  11 -10 2275.18 333.244   7
   1  11 -11-14.3922 200.476   7
  -1  11 -11-183.979 217.446   7
  -1  11  11 169.493 259.873   6
  -1  11 -12 1163.44 290.180   7
   1  11 -12 1722.29 285.708   7
  -1  11  12 923.713 335.850   6
  -1  11 -13 402.342 223.154   7
   1  11 -13 164.373 195.839   7
   1  11 -14 1266.82 263.790   7
  -1  11 -14 850.956 252.670   7
   1  11 -15 205.695 177.863   7
  -1  11 -15 124.016 165.102   7
   1  11 -16 187.884 172.909   7
  -1  11 -16 29.3129 152.937  15
  -1  11 -16 17.7040 143.472   7
  -1  12   0-336.349 214.579   8
   1  12   0 292.594 197.894   8
  -1  12  -1 15515.7 769.327   8
   1  12   1 15991.0 782.311   8
  -1  12   1 15515.2 782.864   8
   1  12  -1 14445.6 727.379   8
  -1  12   2 689.891 245.792   8
  -1  12  -2 878.253 239.485   8
  -1  12   3 2166.95 362.937   8
   1  12  -3 1596.89 308.526  20
  -1  12  -4-75.4381 205.142  20
   1  12  -4 215.305 207.159  20
   1  12  -5 14521.9 821.797  20
  -1  12   5 12959.4 798.177   6
  -1  12  -5 13663.9 780.974  20
   1  12   5 13054.1 779.007   6
  -1  12   6 175.890 258.676   6
   1  12   6-261.186 260.199   6
  -1  12  -6 185.806 186.307   7
   1  12  -6 46.8056 188.209   7
   1  12  -7 76.6157 196.063   7
   1  12   7-3.87286 283.742   6
  -1  12   7-30.8229 260.397   6
  -1  12  -7 117.196 200.705   7
   1  12  -8-82.3189 208.128   7
  -1  12   8 124.604 265.626   6
  -1  12  -8-94.8353 196.767   7
   1  12   8 240.684 276.465   6
  -1  12   9 1279.54 332.492   6
   1  12  -9 591.570 247.319   7
   1  12   9 1695.31 413.825   6
  -1  12  10 377.202 305.767   6
  -1  12 -10 663.686 231.864   7
   1  12  10 546.558 325.010   6
   1  12 -10 426.984 211.733   7
  -1  12 -11 191.597 212.813   7
   1  12 -11 690.682 232.888   7
  -1  12  11 579.565 295.707   6
   1  12 -12 10.7891 186.609   7
  -1  12 -12-76.5042 187.331   7
  -1  12  12-449.723 266.037   6
  -1  12 -13 85.5384 181.899   7
   1  12 -13-163.589 186.719   7
   1  12 -14 487.622 196.867   7
  -1  12 -14 85.4773 167.126   7
   1  12 -15 136.606 164.288   7
  -1  12 -15 213.911 170.190  15
  -1  12 -15 127.257 162.304   7
   1  13   0-9.22553 167.183   8
   1  13   0-120.410 275.390   6
  -1  13   0-152.212 261.477   6
   1  13  -1 3988.35 489.256   6
  -1  13   1 4553.14 524.932   6
   1  13   1 4605.70 539.873   6
  -1  13   2 4355.57 547.388   6
   1  13   2 4326.63 523.722   6
   1  13  -2 3241.10 429.973   6
  -1  13   3 7056.19 644.123   6
   1  13  -3 6671.36 562.512   6
   1  13   3 8261.43 681.353   6
   1  13   4 1550.83 390.905   6
  -1  13   4 1216.13 346.009   6
   1  13   5 4159.64 496.789   6
  -1  13   5 4047.16 520.229   6
   1  13  -5 4453.20 381.174   7
  -1  13   6 277.810 297.990   6
   1  13  -6 367.572 211.645   7
   1  13   6 320.748 258.567   6
  -1  13   7 3338.12 475.343   6
   1  13   7 3462.54 492.147   6
   1  13  -7 3560.16 369.756   7
  -1  13  -7 3810.93 367.916   7
  -1  13   8 115.300 278.577   6
   1  13   8 706.872 343.643   6
  -1  13  -8 235.410 203.401   7
   1  13  -8 442.137 222.521   7
   1  13   9 375.719 302.023   6
  -1  13  -9 39.8405 173.486   7
  -1  13   9 179.480 258.901   6
   1  13  -9 13.1686 189.249   7
  -1  13 -10 202.701 204.276   7
  -1  13  10 551.151 311.021   6
   1  13 -10 291.973 196.938   7
   1  13  10 422.359 294.732   6
  -1  13 -11 2231.10 301.930   7
  -1  13  11 1792.07 362.047   6
   1  13 -11 1486.48 277.044   7
   1  13 -12 240.468 184.481   7
  -1  13 -12 257.993 184.678   7
  -1  13  12 375.957 246.687   6
   1  13 -13 581.733 208.419   7
  -1  13 -13 1174.39 232.946   7
   1  13 -14-67.8861 146.824   7
  -1  13 -14 19.5403 142.043   7
  -1  13 -14 5.53005 149.564  15
  -1  14   0-189.558 306.916   6
   1  14   0 340.913 310.780   6
  -1  14   1 295.205 304.536   6
   1  14   1-4.90213 282.154   6
   1  14  -1-184.711 320.159   6
  -1  14   2 1238.24 367.005   6
   1  14  -2 1408.69 348.516   6
   1  14   2 1787.31 402.131   6
  -1  14   3-69.3404 292.369   6
   1  14   3-26.4676 276.348   6
  -1  14   4 942.527 331.504   6
   1  14   4 1821.79 398.485   6
   1  14   5 39.1708 244.535   6
  -1  14   5-179.007 264.548   6
   1  14  -6 33.7226 168.198   7
   1  14   6-150.019 260.446   6
  -1  14   6 61.0034 262.167   6
  -1  14   7 383.618 287.167   6
   1  14   7 312.981 276.487   6
   1  14  -7-6.72732 181.275   7
  -1  14   8 2247.93 409.706   6
   1  14  -8 1627.43 290.157   7
  -1  14  -8 2334.21 305.321   7
   1  14   8 1534.95 340.065   6
  -1  14   9-6.04232 233.577   6
   1  14  -9-83.2398 183.180   7
   1  14   9 21.1923 238.949   6
  -1  14  -9-32.2079 162.813   7
  -1  14  10 588.409 277.509   6
   1  14 -10 368.808 190.813   7
  -1  14 -10 141.411 182.122   7
   1  14  10 345.153 265.554   6
  -1  14 -11 221.186 181.474   7
   1  14  11 0.31564 205.167   6
   1  14 -11-56.4442 160.908   7
  -1  14  11 404.740 224.370   6
  -1  14  12 356.660 203.694   6
   1  14 -12 753.166 197.442   7
  -1  14 -12 555.513 196.267   7
   1  14 -13-46.4949 144.479   7
  -1  14 -13-156.677 148.611   7
  -1  15   0-1.33847 265.312   6
   1  15   0 166.349 273.395   6
   1  15   1-192.816 292.480   6
   1  15  -1 243.823 267.452   6
  -1  15   1-167.808 284.692   6
   1  15   2 303.505 270.577   6
   1  15  -2 370.399 273.526   6
  -1  15   2 230.432 281.331   6
  -1  15   3 2163.82 404.332   6
   1  15   3 1551.53 378.940   6
   1  15   4 2967.95 462.836   6
  -1  15   4 2428.89 432.276   6
   1  15   5 3222.12 458.037   6
  -1  15   5 3364.37 460.683   6
  -1  15   6 1072.82 312.514   6
   1  15   6 1098.01 314.241   6
   1  15  -7 361.635 190.138   7
  -1  15   7 398.183 255.648   6
   1  15   7 272.786 258.951   6
  -1  15   8 305.308 232.278   6
   1  15   8 85.0923 230.764   6
   1  15  -8-2.31240 173.261   7
  -1  15   9 168.765 201.376   6
   1  15   9 280.677 226.867   6
   1  15  -9 930.570 210.084   7
  -1  15  -9 705.334 205.367   7
  -1  15  10 275.939 201.429   6
   1  15  10-23.1944 218.799   6
  -1  15 -10-278.388 166.953   7
   1  15 -10 22.5141 143.695   7
   1  15 -11 313.674 155.539   7
  -1  15  11 471.985 210.222   6
   1  15  11 448.281 213.379   6
  -1  15 -11 431.610 181.766   7
  -1  15 -12 91.7803 140.041   7
   1  15 -12-88.5167 133.347   7
   1  16   0 230.495 265.912   6
  -1  16   0-201.070 278.775   6
   1  16  -1 592.777 304.911   6
   1  16   1-153.574 244.158   6
  -1  16   1-207.658 284.459   6
   1  16  -2 251.678 249.175   6
   1  16   2-411.406 293.368   6
  -1  16   2 99.6828 267.643   6
   1  16   3 251.521 233.770   6
  -1  16   3 261.684 268.948   6
  -1  16   4-17.2160 235.782   6
   1  16   4-195.623 260.041   6
  -1  16   5 1244.64 294.338   6
   1  16   5 1049.12 310.881   6
   1  16   6-16.3877 207.145   6
  -1  16   6 247.906 237.029   6
  -1  16   7 550.634 249.100   6
   1  16   7 803.944 273.462   6
  -1  16   8-6.85689 178.662   6
   1  16  -8 52.5372 143.984   7
   1  16   8 349.337 224.964   6
   1  16  -9 727.855 189.137   7
   1  16   9 466.732 222.035   6
  -1  16   9 514.140 214.348   6
  -1  16  10-85.7188 166.791   6
   1  16  10 104.155 175.116   6
   1  16 -10-43.4437 135.588   7
   1  17   0-415.492 250.634   6
   1  17  -1 132.537 240.536   6
  -1  17   1 608.127 256.930   6
   1  17   1 22.4390 244.735   6
   1  17   1 347.305 225.399  12
  -1  17   2 398.977 246.686   6
   1  17   2 1069.52 305.738   6
  -1  17   3-271.834 247.045   6
   1  17   3 185.675 203.473   6
  -1  17   4 1382.43 292.786   6
   1  17   4 1179.38 280.299   6
  -1  17   5 507.709 236.691   6
   1  17   5 310.133 213.214   6
  -1  17   6 666.289 236.118   6
   1  17   6 584.855 217.071   6
   1  17   7-20.6322 163.882   6
  -1  17   7 277.571 187.866   6
  -1  17   8 86.6557 166.399   6
   1  17   8 139.310 163.505   6
   1  18   0-114.399 194.400   6
   1  18  -1 16.3154 190.957   6
  -1  18   1 283.569 193.650   6
   1  18   1 257.374 194.675   6
   1  18   2 52.2372 168.865  12
  -1  18   2 448.319 208.329   6
   1  18   2 258.216 194.460   6
   1  18   3-305.841 189.125  12
   1  18   3-343.019 201.508   6
  -1  18   3 180.023 193.297   6
   1  18   4-4.25072 163.359   6
  -1  18   4 131.940 168.972   6
   1  18   4 129.759 158.400  12
   1  18   5 176.241 157.139   6
   2   0   0 98429.8 1380.73  10
  -2   0   1 40.9479 108.028  10
   2   0  -1 68.0799 113.557  10
  -2   0   2 421758. 2853.84  10
   2   0   3 137.157 122.586  19
   2   0   4 25812.1 786.164  19
   2   0   5-14.3460 136.430  19
   2   0   6 314783. 3425.54  19
  -2   0  -6 315044. 1992.58  20
  -2   0  -7-15.2721 123.468  20
   2   0  -7 72.4107 147.122  20
   2   0  -8 125944. 1666.35  20
  -2   0  -8 127064. 1528.55  20
   2   0  -9-159.878 198.532  20
  -2   0  -9-347.446 179.272  20
   2   0 -10 1130.05 263.813  20
   2   0 -11 118.826 193.297  20
   2   0 -12 11593.0 730.443  20
   2   0 -13-31.0234 235.486  20
   2   0 -14 2199.09 393.403  20
  -2   0 -15-455.137 255.592  11
   2   0 -15 91.1039 203.582  11
  -2   0 -16 13850.6 657.479  11
   2   0 -16 12182.6 611.519  11
   2   0 -17 213.543 233.219  11
  -2   0 -17 3.84645 210.279  11
  -2   0 -18 46.3726 201.598  11
   2   0 -18 138.381 197.894  11
  -2   0 -19-49.6834 181.555  11
  -2   0 -20 173.249 179.853  11
  -2   1   0 263149. 2512.03  10
  -2   1  -1 41305.4 1005.54  10
  -2   1   1 42974.2 1042.90  10
   2   1  -1 41600.7 784.972  10
   2  -1   2 32764.7 947.249  10
  -2  -1   2 31339.8 628.449  10
  -2  -1   3 87861.3 1105.64  10
   2  -1   3 86975.9 1405.52  19
   2  -1   4 1641.10 234.820  19
   2   1   4 1758.08 214.088  19
   2   1  -5 289.704 136.533  20
   2  -1   5 130.632 105.963  19
   2   1   6 19642.0 816.253  19
   2   1  -6 19723.6 568.160  20
  -2   1  -6 20637.8 535.788  20
  -2   1  -7 3670.09 280.331  20
  -2  -1  -7 3195.50 252.854  20
   2   1  -7 3639.38 307.349  20
   2  -1  -8 2672.47 224.451   2
  -2  -1  -8 2638.30 240.176  20
   2   1  -8 3267.01 322.156  20
  -2   1  -8 2966.12 289.633  20
  -2   1  -9 7699.39 439.026  20
   2   1  -9 7470.98 476.225  20
   2  -1  -9 8094.68 493.040  20
  -2  -1  -9 7343.95 426.656  20
  -2   1 -10 13734.8 615.884  20
   2   1 -10 14174.1 673.800  20
   2  -1 -10 13618.7 684.045  20
   2   1 -11 2739.05 363.418  20
   2  -1 -11 2865.14 356.432  20
   2  -1 -12-19.9104 207.583  20
   2   1 -12 90.2874 206.918  20
   2  -1 -13 1115.30 293.725  20
   2   1 -13 1387.20 310.325  20
   2   1 -14 239.340 240.747  20
   2  -1 -14 452.479 234.433  20
  -2   1 -15 303.648 226.065  11
   2  -1 -15 357.218 235.338  11
  -2  -1 -15 163.043 226.858  11
  -2  -1 -16 1320.25 295.821  11
  -2   1 -16 1251.81 319.817  11
   2  -1 -16 1564.76 302.946  11
  -2   1 -17-25.8261 204.005  11
   2  -1 -17 122.590 212.337  11
  -2  -1 -17 155.225 211.778  11
   2  -1 -18-136.711 220.957  11
  -2  -1 -18 119.151 207.128  11
  -2   1 -18-246.745 229.289  11
  -2   1 -19 664.089 230.124  11
   2  -1 -19 537.067 223.068  11
  -2  -1 -19 230.412 212.400  11
   2  -1 -20 37.2349 162.787  11
  -2  -1 -20 425.249 186.874  11
  -2   1 -20-31.6754 163.243  11
  -2   2   0 91618.0 1684.03  10
  -2   2  -1 680203. 4500.80  10
   2  -2   1 677199. 4393.42  10
  -2   2   1 673427. 4623.27  10
  -2   2  -2 149929. 2127.78  10
   2  -2   2 149096. 2085.35  10
   2   2  -2 145060. 1203.73  10
   2  -2   3 13295.8 671.178  10
   2  -2   4 17576.4 767.576  19
   2  -2   4 17949.5 833.127  10
   2   2   4 18139.7 577.548  19
   2  -2   5 22379.0 981.023  10
   2   2  -5 23262.2 587.451  20
   2   2   5 24351.1 741.625  19
  -2   2  -6 23922.4 605.338  20
   2  -2   6 22550.0 1049.65  10
   2   2  -6 23232.6 637.018  20
   2  -2  -7 6370.70 317.364   2
   2   2  -7 6437.57 385.254  20
  -2   2  -7 7045.01 366.190  20
  -2   2  -8 10086.6 468.168  20
   2   2  -8 9646.44 499.272  20
   2  -2  -8 10383.2 415.012   2
   2  -2  -9 102562. 1361.51   2
   2   2  -9 105569. 1668.65  20
  -2   2  -9 106505. 1576.37  20
   2   2 -10 540.537 212.316  20
  -2   2 -10 456.913 182.851  20
   2   2 -11 12779.1 695.548  20
   2  -2 -11 14359.2 739.835  20
   2  -2 -12 397.460 228.015  20
   2   2 -12 359.045 229.340  20
   2  -2 -13 15735.2 878.335  20
   2   2 -13 15908.3 855.309  20
   2   2 -14-163.376 236.149  20
  -2  -2 -14 208.380 190.986  11
   2  -2 -14 242.279 226.197  20
   2  -2 -15 2687.78 410.501   5
  -2  -2 -15 2363.20 351.193  11
   2  -2 -15 3336.38 363.548  11
  -2   2 -15 3641.91 380.930  11
  -2   2 -16 772.246 262.317  11
  -2  -2 -16 780.030 263.877  11
   2  -2 -16 1163.03 277.803  11
  -2   2 -17-308.325 215.192  11
   2  -2 -17 85.6193 235.780  11
  -2  -2 -17-380.748 236.520  11
   2  -2 -18-607.966 227.991  11
  -2  -2 -18-262.408 226.809  11
   2  -2 -19 1056.90 242.792  11
  -2  -2 -19 776.302 224.828  11
  -2  -2 -20 251.532 164.517  11
   2  -2 -20-130.260 166.930  11
   2  -3   0 37738.6 867.578  19
  -2   3   0 38578.7 1232.63  10
   2  -3   1 190514. 2105.05  19
  -2   3  -1 195778. 2677.36  10
   2  -3   2 78052.9 1476.45  19
  -2   3  -2 82150.1 1727.64  10
   2  -3   2 81031.4 1663.02  10
   2  -3   3 321.545 187.110  10
   2  -3   3 77.8997 120.432  19
   2  -3   4 42772.2 1272.52  10
   2   3  -4 42831.8 780.228  20
  -2   3  -5 7212.71 344.644  20
   2   3  -5 7538.33 377.909  20
   2  -3   5 7907.30 604.485  10
  -2  -3  -5 7426.94 289.088   3
   2  -3  -6 1362.19 171.862   2
   2   3  -6 1044.76 199.949  20
  -2   3  -6 1239.93 190.987  20
  -2   3  -7 2614.98 260.742  20
   2  -3  -7 2509.40 220.931   2
   2   3  -7 2748.72 276.387  20
   2   3  -8 6212.52 417.651  20
   2  -3  -8 6570.90 364.705   2
  -2   3  -8 6542.63 407.157  20
  -2   3  -9 40825.6 1019.88  20
   2   3  -9 41185.8 1057.12  20
   2  -3  -9 41237.0 908.294   2
   2   3 -10 559.166 207.156  20
   2  -3 -10 546.144 175.771   2
  -2   3 -10 446.616 183.844  20
  -2   3 -11 117.420 179.215  20
   2   3 -11 160.582 183.460  20
   2   3 -12 2719.77 375.452  20
   2  -3 -12 2970.54 402.736  20
   2   3 -13 3628.71 447.899  20
   2  -3 -13 3731.55 452.497  20
   2  -3 -14 158.323 263.513   5
   2   3 -14 134.624 214.417  20
   2  -3 -14 171.879 195.312  11
   2  -3 -14-92.9482 215.754  20
  -2  -3 -14-119.918 249.499  11
   2  -3 -15-69.3184 277.384   5
   2  -3 -15-94.3257 217.817  11
  -2   3 -15 112.524 237.827  15
  -2  -3 -15-137.868 253.452  11
   2  -3 -16 1138.26 280.125  11
  -2  -3 -16 924.750 288.258  11
  -2   3 -16 501.890 257.612  15
   2  -3 -16 512.636 296.266   5
  -2  -3 -17 301.320 228.363  11
   2  -3 -17 67.6259 203.350  11
  -2  -3 -18 49.5018 203.958  11
   2  -3 -18 75.0300 194.619  11
  -2  -3 -19 685.755 223.881  11
   2  -3 -19 689.464 217.190  11
   2  -3 -20 160.164 160.263  11
  -2  -3 -20 9.55508 151.723  11
  -2   4   0 1710.22 181.065   8
  -2   4   0 1671.18 328.220  10
   2  -4   0 1516.50 206.998  19
  -2   4  -1 158885. 2648.08  10
  -2   4  -1 156712. 1351.75   8
  -2   4   1 151349. 1282.77   8
   2  -4  -1 157499. 1760.40  19
   2  -4   1 158020. 2131.86  19
  -2   4  -2 145291. 1322.55   8
   2  -4  -2 146560. 1546.96  19
  -2   4  -2 144522. 1318.83  20
  -2   4  -2 143655. 2467.76  10
   2  -4   2 145366. 2225.10  19
   2   4  -3 3929.84 269.685  20
  -2   4  -3 4046.38 246.437   8
  -2   4  -3 3712.29 245.890  20
   2  -4  -3 4118.65 231.182   2
  -2   4  -3 3454.63 405.954  10
   2  -4   4 20647.5 940.925  10
  -2   4  -4 20921.7 565.490  20
   2   4  -4 23527.8 639.554  20
   2  -4  -4 21004.0 527.167   2
  -2   4  -4 20677.3 557.877   8
  -2   4  -5 584.537 182.846  20
  -2  -4  -5 575.261 126.518   3
   2  -4  -5 493.152 144.044   2
   2   4  -5 705.183 191.794  20
  -2   4  -6 94800.6 1328.51  20
   2   4  -6 94874.3 1390.12  20
   2  -4  -6 94712.3 1212.22   2
  -2   4  -7 12768.9 544.586  20
   2  -4  -7 13153.2 492.819   2
   2   4  -7 12216.8 552.186  20
  -2   4  -8 23780.8 762.383  20
   2  -4  -8 23836.4 690.372   2
   2   4  -8 23010.8 780.317  20
  -2   4  -9 43516.8 1096.94  20
   2  -4  -9 44540.3 993.124   2
   2   4  -9 43485.0 1126.52  20
   2   4 -10 2229.87 324.644  20
   2  -4 -10 2248.80 278.458   2
  -2   4 -10 2124.30 296.182  20
  -2   4 -11 3190.99 380.484  20
   2   4 -11 3344.85 389.028  20
   2  -4 -11 2961.17 318.895   2
   2   4 -12 1943.51 360.577  20
   2  -4 -13 3089.10 442.180  20
   2   4 -13 2871.55 420.950  20
  -2   4 -14 441.180 236.616   7
  -2  -4 -14 664.822 277.212  11
   2  -4 -14 1296.92 284.217  11
   2  -4 -14 633.105 301.795   5
   2  -4 -15 1751.67 315.662  11
  -2   4 -15 1923.16 342.294  15
  -2  -4 -15 2171.34 334.936  11
   2  -4 -15 1748.68 370.892   5
   2  -4 -16 4203.84 414.584  11
   2  -4 -16 3567.48 467.739   5
  -2   4 -16 4367.75 461.109  15
  -2  -4 -16 4530.88 418.628  11
  -2   4 -17 109.415 225.006  15
   2  -4 -17 478.728 229.499  11
  -2  -4 -17 577.065 251.348  11
   2  -4 -17 11.5275 255.183   5
  -2  -4 -18-516.089 246.460  11
   2  -4 -18-249.587 205.945  11
  -2  -4 -19 293.532 191.382  11
   2  -4 -19-16.5260 162.862  11
   2  -4 -20 205.662 160.854  11
  -2  -4 -20 548.873 179.754  11
   2   5   0 174932. 1541.69  20
   2  -5   0 174204. 2305.68  19
  -2   5   0 175297. 1560.22   8
  -2   5   0 175770. 1561.25  20
   2   5  -1 2322.37 226.178  20
  -2   5  -1 2310.83 214.070  20
   2  -5   1 2317.88 321.688  19
  -2   5  -1 2109.66 369.093  10
  -2   5   1 2803.34 247.299   8
   2   5   1 2378.86 226.156  20
   2  -5  -1 2595.82 184.176   2
  -2   5  -1 2367.42 209.527   8
   2   5  -2 11747.3 435.503  20
   2  -5  -2 11516.0 371.198   2
  -2   5  -2 11129.8 771.810  10
  -2   5  -2 11891.1 424.564   8
  -2   5  -2 11677.6 427.218  20
  -2   5  -3 498.474 177.122  20
   2  -5  -3 86.1162 116.288   2
   2   5  -3 353.609 195.937  20
  -2   5  -3 402.402 187.798   8
  -2   5  -4 8061.64 385.020  20
  -2   5  -4 8119.56 362.601   8
   2   5  -4 8427.59 418.542  20
   2  -5  -4 8274.94 355.356   2
   2   5  -5 1648.88 250.292  20
   2  -5  -5 1918.83 207.423   2
  -2   5  -5 1691.63 224.285  20
   2  -5  -6 13934.1 511.543   2
  -2   5  -6 13503.7 545.489  20
   2   5  -6 14763.1 603.321  20
   2  -5  -7 393.225 167.232   2
  -2   5  -7 261.253 153.589  20
   2   5  -7 261.132 160.805  20
   2  -5  -8 4222.92 331.522   2
  -2   5  -8 3942.24 367.582  20
   2   5  -8 3623.63 342.693  20
   2  -5  -9 3234.92 313.526   2
   2   5  -9 3389.94 378.356  20
  -2   5  -9 3338.59 357.527  20
   2   5 -10 2729.96 356.465  20
   2  -5 -10 3189.27 327.666   2
  -2   5 -10 3354.18 369.149  20
   2   5 -11 965.884 265.048  20
  -2   5 -11 1067.74 267.770  20
   2   5 -12 1530.60 316.173  20
   2   5 -13 84.5834 203.088  20
   2  -5 -13 87.3938 221.483  20
   2  -5 -14 803.583 264.281  11
  -2   5 -14 277.087 231.781   7
  -2  -5 -14 538.920 250.260  11
   2  -5 -14 174.700 273.481   5
  -2   5 -15-11.7367 211.442   7
   2  -5 -15 366.491 229.174  11
  -2  -5 -15-213.499 232.249  11
   2  -5 -15-42.3674 256.880   5
   2  -5 -16 1246.16 300.677  11
   2  -5 -16 1083.80 330.690   5
  -2  -5 -16 1827.73 315.926  11
  -2   5 -16 1335.42 310.430  15
  -2  -5 -17 534.639 235.092  11
   2  -5 -17 243.762 217.634  11
  -2   5 -17 234.340 225.241  15
  -2   5 -18-243.335 218.498  15
   2  -5 -18-199.332 190.288  11
  -2  -5 -18-216.624 196.324  11
  -2   5 -19-89.9070 160.758  15
   2  -5 -19-440.140 187.626  11
  -2  -5 -19 94.9639 168.400  11
   2   6   0 34190.9 777.069  20
  -2   6   0 34550.4 767.530   8
  -2   6   1 14618.1 513.696   8
  -2   6  -1 14894.7 519.585  20
   2  -6  -1 14375.0 420.566   2
   2   6  -1 14815.5 521.988  20
   2   6   1 14793.5 518.776  20
  -2   6  -1 14091.3 505.906   8
  -2   6  -2 68358.2 1093.57   8
  -2   6  -2 69579.4 1099.69  20
   2  -6  -2 66914.3 945.447   2
   2   6  -2 69121.2 1123.63  20
  -2   6  -3 45201.6 918.699  20
  -2   6  -3 44508.0 875.189   8
   2  -6  -3 44984.2 816.334   2
   2   6  -3 43629.5 936.734  20
  -2   6  -4 9762.09 429.120   8
  -2   6  -4 9310.04 460.703  20
   2  -6  -4 9499.93 417.614   2
   2   6  -4 9455.89 471.954  20
  -2   6  -5 127.548 123.151   8
  -2   6  -5 84.2772 161.631  20
   2  -6  -5 217.805 146.116   2
   2   6  -5 391.549 176.894  20
   2   6  -6 77188.7 1407.59  20
  -2   6  -6 76388.2 1337.72  20
   2  -6  -6 75798.4 1246.55   2
   2   6  -7 2173.72 296.574  20
   2  -6  -7 2427.45 265.856   2
  -2   6  -7 2335.60 295.474  20
   2  -6  -8 31087.9 865.867   2
  -2   6  -8 31042.9 936.644  20
   2   6  -8 31540.2 998.152  20
   2  -6  -9 7540.76 488.123   2
   2   6  -9 7693.58 530.287  20
  -2   6  -9 8085.92 528.757  20
   2   6 -10 470.322 241.572  20
   2  -6 -10 54.8063 155.677   2
  -2   6 -10 237.452 178.515  20
   2   6 -11 853.860 252.649  20
  -2   6 -11 674.845 229.015  20
  -2   6 -12 768.725 246.105  20
   2   6 -12 1063.49 301.901  20
   2  -6 -13 3929.50 404.230  11
   2  -6 -13 4655.30 508.146   5
  -2  -6 -13 3172.98 368.991  11
  -2   6 -13 3625.57 409.912   7
   2  -6 -14 1549.69 304.656  11
   2  -6 -14 1430.94 355.151   5
  -2  -6 -14 1033.94 266.491  11
  -2   6 -14 1019.02 304.304   7
   2  -6 -15 496.123 278.776   5
   2  -6 -15 246.150 227.770  11
  -2   6 -15 790.099 273.028   7
  -2  -6 -15 234.581 224.424  11
  -2  -6 -16 5060.95 446.665  11
   2  -6 -16 4985.86 439.802  11
  -2   6 -16 5009.88 467.668  15
  -2   6 -16 4710.67 465.392   7
   2  -6 -17 142.086 197.920  11
  -2   6 -17 242.225 203.530  15
  -2  -6 -17 176.685 214.222  11
  -2  -6 -18-113.463 194.837  11
  -2   6 -18-257.079 195.921  15
   2  -6 -18-129.081 184.247  11
  -2  -6 -19-3.84814 161.462  11
  -2   6 -19 526.158 182.301  15
   2  -6 -19 321.970 166.524  11
  -2   7   0 425.919 157.666   8
   2   7   0 858.115 188.467  20
   2  -7  -1 97.2689 108.320   2
   2   7  -1-78.9480 154.572  20
  -2   7  -1-33.0270 139.432   8
  -2   7  -1 181.318 146.852  20
  -2   7   1 256.919 172.038   8
  -2   7  -2 310.296 152.405  20
  -2   7  -2 440.271 147.855   8
   2  -7  -2 353.944 122.196   2
   2   7  -2 465.902 181.616  20
   2  -7  -3 14617.3 503.870   2
   2   7  -3 15310.1 598.635  20
  -2   7  -3 15156.3 584.876  20
  -2   7  -3 14778.7 550.709   8
   2  -7  -4 2266.35 227.520   2
  -2   7  -4 2382.32 253.859   8
  -2   7  -4 2444.77 279.491  20
   2   7  -4 2612.81 295.766  20
   2   7  -5 145.672 174.470  20
   2  -7  -5 67.6199 141.201   2
  -2   7  -5 195.399 122.854   8
  -2   7  -5 119.738 157.359  20
   2  -7  -6 1452.19 217.748   2
  -2   7  -6 1660.61 264.040  20
   2   7  -6 1703.96 274.095  20
  -2   7  -7 20120.7 777.816  20
   2   7  -7 19019.4 785.477  20
   2  -7  -7 20235.2 711.437   2
   2   7  -8 186.010 179.506  20
  -2   7  -8 511.756 225.925  20
   2  -7  -8 325.021 172.330   2
  -2   7  -9 4729.53 441.835  20
   2   7  -9 4303.12 429.143  20
  -2   7 -10 1354.07 285.278  20
   2   7 -10 1293.37 296.937  20
   2   7 -11-267.218 219.708  20
  -2   7 -11 317.263 188.323  20
   2   7 -12-232.760 238.738  20
   2  -7 -12-140.872 198.108  11
  -2   7 -12 44.2877 179.818  20
   2  -7 -12 46.4499 246.974   5
  -2   7 -12 175.222 204.495   7
   2   7 -12-47.0915 157.933   7
  -2   7 -13 1405.44 318.628   7
   2  -7 -13 926.437 268.741  11
   2   7 -13 1254.42 257.225   7
  -2   7 -14 277.138 245.597   7
   2  -7 -14 101.685 218.850  11
  -2  -7 -14-153.695 224.070  11
  -2  -7 -15 520.752 238.920  11
   2  -7 -15 561.744 236.462  11
  -2   7 -15 242.790 236.439   7
  -2   7 -16 482.256 227.984   7
  -2   7 -16 779.009 262.601  15
  -2  -7 -16 887.404 257.646  11
   2  -7 -16 867.689 267.556  11
  -2  -7 -17 115.403 189.168  11
  -2   7 -17 313.712 206.592   7
   2  -7 -17 405.102 203.344  11
  -2   7 -17 336.615 197.462  15
  -2   7 -18-366.831 191.719  15
   2   7 -18 8.06335 170.173  15
   2  -7 -18-74.2727 166.519  11
  -2  -7 -18-98.5136 175.419  11
   2  -7 -19 321.187 157.689  11
  -2   7 -19 302.164 156.279  15
   2   8   0 27972.0 836.806  20
  -2   8   0 27861.5 820.970   8
  -2   8   1 141445. 1822.76   8
  -2   8  -1 138968. 1799.62  20
  -2   8  -1 137650. 1769.11   8
   2   8  -1 140228. 1852.53  20
  -2   8  -2 709.935 227.786  20
  -2   8  -2 320.222 162.784   8
   2   8  -2 201.207 164.065  20
  -2   8  -3 1937.75 260.095  20
   2   8  -3 1807.10 262.578  20
  -2   8  -3 1632.65 224.630   8
   2  -8  -4 179.036 133.161   2
  -2   8  -4 89.2542 132.079   8
  -2   8  -4 84.4440 173.105  20
   2   8  -4 2.72620 189.785  20
  -2   8  -5 8180.01 496.705  20
   2  -8  -5 7876.33 441.783   2
   2   8  -5 8091.36 511.580  20
  -2   8  -5 8058.77 444.613   8
   2   8  -6 3822.09 384.116  20
  -2   8  -6 3656.71 380.187  20
   2   8  -7 6000.42 482.478  20
  -2   8  -7 6362.97 480.049  20
  -2   8  -8 877.283 230.401  20
   2   8  -8 952.168 234.783  20
   2   8  -9 32523.1 1129.19  20
  -2   8  -9 33573.2 1119.76  20
   2   8 -10 8052.62 608.824  20
  -2   8 -10 8931.77 619.007  20
  -2   8 -11 1645.50 323.327  20
   2   8 -11 1401.41 294.570  20
  -2   8 -11 2011.01 293.472   7
  -2   8 -12-80.9164 208.194   7
   2  -8 -12 392.643 226.515  11
   2   8 -12 95.7808 192.691   7
   2  -8 -13 4840.87 430.349  11
  -2   8 -13 4942.60 462.015   7
   2   8 -13 4523.48 409.217   7
   2   8 -14 280.390 195.789   7
  -2   8 -14 124.475 225.704   7
   2  -8 -14 124.679 225.957  11
   2  -8 -15 892.711 254.783  11
  -2   8 -15 763.975 255.277   7
  -2   8 -16 123.332 202.662  15
   2  -8 -16-32.0898 184.680  11
  -2   8 -16 56.1930 188.907   7
  -2   8 -17 127.395 175.782   7
   2  -8 -17 71.9419 178.399  11
  -2   8 -17-5.51432 180.672  15
  -2   8 -18-124.685 148.996  15
   2  -8 -18 73.7984 162.470  11
   2   8 -18 126.827 153.141  15
  -2   8 -18 106.738 162.788   7
  -2   9   0 43674.3 1079.10   8
  -2   9   1 2213.32 312.370   8
   2   9  -1 2125.98 305.449  20
  -2   9  -1 2012.88 262.487   8
  -2   9   2 5249.38 442.617   8
   2   9  -2 4498.78 402.107  20
  -2   9  -2 4478.18 360.564   8
  -2   9  -2 4816.93 387.540  20
   2   9  -3 595.623 207.300  20
  -2   9  -3 342.907 188.379  20
  -2   9  -3 414.581 147.612   8
   2   9  -4 5934.50 460.822  20
  -2   9  -4 6393.11 463.287  20
  -2   9  -4 5852.18 414.640   8
   2   9  -5-115.271 197.211  20
  -2   9  -5 8.23982 182.952  20
  -2   9  -5-3.25931 141.974   8
  -2   9  -6 2730.29 343.713  20
   2   9  -6 2521.69 342.978  20
   2   9  -7 108.155 197.487  20
  -2   9  -7-177.441 192.648  20
  -2   9  -8 795.502 240.219  20
   2   9  -8 353.278 219.319  20
  -2   9  -9 1789.30 320.646  20
   2   9  -9 1747.57 325.941  20
   2   9 -10 4286.51 461.427  20
  -2   9 -10 4904.22 494.049  20
  -2   9 -10 4911.97 404.503   7
   2   9 -10 5347.75 411.798   7
   2   9 -11 563.542 222.425   7
  -2   9 -11 242.812 212.804   7
   2   9 -12 51.2232 191.849   7
  -2   9 -12 54.0657 206.553   7
  -2   9 -13 1553.16 293.892   7
   2   9 -13 993.421 246.450   7
   2   9 -14 691.772 217.899   7
  -2   9 -14 1010.23 264.926   7
   2  -9 -15-91.4496 193.785  11
   2   9 -15 64.1227 177.544   7
  -2   9 -15-96.2149 205.970   7
  -2   9 -16 318.528 208.897   7
   2  -9 -16 480.000 213.554  11
  -2   9 -16 479.472 210.047  15
   2  -9 -17-24.3211 158.209  11
  -2   9 -17-49.7730 160.156  15
  -2   9 -17-41.9151 154.778   7
  -2   9 -18-68.8175 130.146  15
  -2  10   0 1870.38 274.047   8
  -2  10  -1 7829.36 503.584   8
  -2  10   1 8809.73 539.955   8
   2  10  -1 8113.36 532.871  20
   2  10  -1 8720.77 521.234   8
   2  10  -2 17569.4 777.383  20
  -2  10  -2 16249.6 705.619   8
  -2  10   2 16864.8 748.254   8
   2  10  -3 8064.82 550.346  20
  -2  10  -3 8684.45 564.811  20
  -2  10  -3 7929.68 510.748   8
  -2  10   3 9443.14 579.119   8
  -2  10  -4 4090.46 412.573  20
   2  10  -4 3835.01 407.319  20
  -2  10  -4 3797.08 374.175   8
   2  10  -5 406.666 209.379  20
  -2  10  -5 504.548 222.535  20
  -2  10  -6 32816.2 1113.51  20
  -2  10   6 35065.5 1143.95   8
   2  10  -6 33082.2 1162.83  20
   2  10  -7 15624.9 830.840  20
  -2  10  -7 15182.8 783.077  20
   2  10  -8 12401.8 748.883  20
  -2  10  -8 12429.0 736.357  20
  -2  10  -9 2231.22 350.645  20
  -2  10  -9 2599.05 305.848   7
   2  10  -9 2276.04 370.673  20
   2  10  -9 2099.44 303.937   7
  -2  10 -10 145.327 198.242   7
   2  10 -10-120.408 202.080   7
   2  10 -11 165.858 209.622   7
  -2  10 -11 270.217 217.351   7
   2  10 -12 608.429 233.943   7
  -2  10 -12 1075.00 267.993   7
  -2  10 -13 73.3376 202.456   7
   2  10 -13 287.559 205.707   7
   2  10 -14 192.494 191.223   7
  -2  10 -14 140.316 201.961   7
   2  10 -15 129.313 185.144   7
  -2  10 -15 457.279 208.181  15
  -2  10 -15-36.6700 182.063   7
  -2  10 -16 2803.33 317.791   7
   2  10 -16 2373.70 289.202   7
  -2  10 -16 2342.57 297.998  15
  -2  10 -17 444.984 181.624  15
  -2  10 -17 220.268 163.310   7
  -2  11   0 369.478 181.974   8
   2  11   0 3458.30 393.915   8
  -2  11  -1 6045.32 474.349   8
  -2  11   1 6272.27 491.480   8
  -2  11  -2 2356.61 318.800   8
   2  11  -2 2100.17 340.317  20
  -2  11   2 2068.29 323.592   8
  -2  11  -3 1199.92 261.334   8
  -2  11   3 1314.17 277.705   8
   2  11  -3 1191.01 264.342  20
  -2  11   4 2731.56 376.755   8
  -2  11  -4 2073.42 326.561  20
   2  11  -4 2234.21 349.198  20
  -2  11  -4 2557.54 327.146   8
  -2  11  -5 309.228 209.220  20
   2  11  -5 124.759 215.490  20
  -2  11  -6 2913.32 380.575  20
   2  11  -6 2865.25 403.300  20
   2  11  -7 5895.14 405.852   7
  -2  11   7 6591.17 582.702   6
  -2  11   7 7683.97 629.901   8
   2  11  -7 6600.83 574.752  20
  -2  11  -7 6011.15 528.985  20
   2  11  -8-147.501 204.136   7
  -2  11  -8-106.404 198.232   7
   2  11   8-377.880 335.508   6
  -2  11   8-289.762 283.775   6
   2  11  -9 1320.80 287.689   7
  -2  11   9 1854.66 408.463   6
  -2  11  -9 1839.29 289.418   7
  -2  11 -10 283.661 207.037   7
  -2  11  10 262.819 281.274   6
   2  11 -10-6.41461 199.647   7
  -2  11 -11 412.983 245.022   7
  -2  11  11 695.214 327.598   6
   2  11 -11 641.876 235.070   7
   2  11 -12 169.471 209.111   7
  -2  11  12-104.290 255.058   6
  -2  11 -12-443.982 219.769   7
  -2  11 -13 608.612 234.637   7
   2  11 -13 622.623 222.347   7
  -2  11  13 394.596 262.841   6
  -2  11 -14-37.7078 177.102   7
   2  11 -14-150.939 183.647   7
  -2  11 -15 307.932 185.470  15
   2  11 -15-7.71905 158.985   7
  -2  11 -15 12.3290 170.734   7
  -2  11 -16 167.574 170.154   7
   2  11 -16 364.060 177.816   7
  -2  11 -16 356.788 179.705  15
  -2  12   0 19397.2 885.632   8
   2  12   0 19968.8 861.121   8
  -2  12  -1 6537.68 519.647   8
  -2  12   1 6341.34 526.647   8
  -2  12   2 6906.03 550.747   8
  -2  12  -2 6470.45 523.770   8
  -2  12   3 4955.72 468.681   8
   2  12  -3 4807.36 482.421  20
  -2  12  -3 4830.23 465.599   8
   2  12  -4 298.170 206.636  20
  -2  12   4 50.2907 246.306   8
   2  12  -5 570.002 252.599  20
  -2  12  -5 626.549 249.123  20
   2  12  -5 300.053 171.871   7
  -2  12   5 900.111 286.666   6
   2  12   5 706.899 262.259   6
  -2  12   5 1085.94 308.268   8
   2  12  -6 5009.34 396.956   7
  -2  12   6 5122.56 554.479   6
   2  12   6 5106.74 530.901   6
  -2  12  -7-298.677 214.650   7
   2  12   7 14.3493 292.919   6
   2  12  -7 22.7245 178.920   7
  -2  12   7 264.639 283.068   6
   2  12  -8 4139.27 390.047   7
  -2  12   8 3355.17 466.896   6
  -2  12  -8 2947.34 368.357   7
   2  12   8 4282.00 544.361   6
   2  12  -9 2934.12 376.992   7
  -2  12  -9 3496.53 368.384   7
   2  12   9 4240.32 576.119   6
  -2  12   9 2993.83 468.059   6
   2  12 -10 853.058 288.660   7
  -2  12 -10 1323.37 294.010   7
  -2  12  10 1193.15 380.171   6
   2  12 -11 273.096 198.853   7
  -2  12  11 609.722 277.419   6
  -2  12 -11 145.385 198.941   7
  -2  12 -12 22.4572 180.804   7
   2  12 -12 138.207 177.696   7
  -2  12  12-84.3429 249.513   6
  -2  12 -13 1207.03 258.963   7
  -2  12  13 1540.87 322.835   6
   2  12 -13 1742.85 265.070   7
  -2  12 -14 238.583 177.295   7
   2  12 -14 438.125 191.090   7
  -2  12 -14 541.881 200.415  15
   2  12 -15 193.771 160.329   7
  -2  12 -15 45.7481 149.983   7
  -2  12 -15 201.221 170.025  15
   2  13   0 4755.10 516.661   6
  -2  13   1 2654.95 467.118   6
   2  13  -1 2098.08 393.403   6
   2  13   1 1880.26 391.579   6
   2  13  -2 842.120 291.713   6
  -2  13   2 618.447 333.868   6
   2  13   2 952.064 310.966   6
   2  13  -3 2284.82 373.447  12
   2  13  -3 1611.19 357.906   6
  -2  13   3 2257.84 431.808   6
   2  13   3 2477.03 436.275   6
   2  13  -4 4037.05 348.800   7
   2  13  -4 4925.85 496.504  12
   2  13   4 4686.99 520.255   6
   2  13  -4 4958.65 494.919   6
  -2  13   4 5024.16 578.281   6
   2  13  -5-187.369 195.553   7
   2  13   5-215.040 302.703   6
  -2  13   5 70.9853 245.433   6
  -2  13   6-101.669 254.087   6
   2  13  -6 305.660 193.954   7
   2  13   6 37.7549 246.826   6
   2  13  -7 998.975 257.715   7
   2  13   7 1623.83 388.096   6
  -2  13   7 962.648 337.752   6
  -2  13  -8 661.610 227.095   7
   2  13   8 870.076 345.578   6
   2  13  -8 719.634 230.419   7
  -2  13   8 490.586 271.855   6
  -2  13   9 1896.24 388.252   6
   2  13  -9 2085.91 337.934   7
   2  13   9 2753.65 465.089   6
  -2  13  -9 2400.20 322.640   7
   2  13 -10 218.422 191.460   7
  -2  13  10 190.443 240.221   6
  -2  13 -10-15.0017 172.577   7
   2  13 -11 591.813 208.597   7
  -2  13  11 589.725 265.618   6
  -2  13 -11 249.163 213.241   7
   2  13 -12-208.710 180.434   7
  -2  13  12-84.0406 220.665   6
  -2  13 -12-37.2342 180.355   7
  -2  13 -13-21.7678 156.429   7
  -2  13 -13 416.165 202.459  15
   2  13 -13 7.91849 156.021   7
  -2  13  13 254.227 217.194   6
  -2  13 -14 0.33489 137.861   7
  -2  13 -14-202.344 158.462  15
   2  13 -14-167.649 152.663   7
   2  14   0 1694.74 387.904   6
   2  14  -1 4609.83 549.892   6
  -2  14   1 4243.17 530.058   6
   2  14   1 4519.95 544.358   6
   2  14  -2-220.149 273.327  12
   2  14   2 722.519 327.262   6
   2  14  -2 323.140 269.473   6
  -2  14   2 673.589 356.647   6
  -2  14   3 474.912 307.324   6
   2  14   3 695.058 307.406   6
   2  14  -3 195.339 233.329  12
   2  14  -3 409.749 280.979   6
  -2  14   4 954.120 365.237   6
   2  14  -4 754.955 294.645   6
   2  14   4 816.489 295.453   6
   2  14   5 261.269 285.294   6
   2  14  -5 527.910 209.980   7
  -2  14   5 428.667 292.111   6
  -2  14   6 2051.86 405.319   6
   2  14  -6 2094.43 298.949   7
   2  14   6 1825.32 372.351   6
   2  14  -7 2264.50 306.858   7
  -2  14   7 2062.37 414.579   6
   2  14   7 2507.22 444.772   6
   2  14   8-82.8762 260.765   6
   2  14  -8-132.255 192.553   7
  -2  14   8 49.6143 227.184   6
  -2  14  -9 1736.55 280.831   7
   2  14   9 2060.27 399.268   6
  -2  14   9 1925.90 393.879   6
   2  14  -9 1128.97 271.145   7
  -2  14 -10 948.174 251.083   7
   2  14 -10 1119.33 232.617   7
  -2  14  10 1072.79 296.046   6
   2  14  10 1153.47 298.344   6
  -2  14  11 143.698 224.440   6
   2  14 -11-274.621 188.851   7
  -2  14 -11-78.7826 170.291   7
  -2  14  12-130.069 188.188   6
   2  14 -12 133.169 153.520   7
  -2  14 -12 136.699 172.511   7
   2  14 -13 174.984 141.272   7
  -2  14 -13 69.1404 144.694   7
  -2  14  13 293.653 185.020   6
   2  15   0 877.298 331.535   6
   2  15  -1 290.660 298.790   6
   2  15  -1-145.127 244.493  12
  -2  15   1 415.555 289.414   6
   2  15   1 17.9986 289.373   6
   2  15  -2 818.536 295.645  12
   2  15  -2 770.591 307.582   6
   2  15   2 628.235 293.263   6
  -2  15   2 887.921 357.875   6
  -2  15   3 808.794 309.505   6
   2  15  -3 829.760 313.584   6
   2  15  -3 960.158 284.150  12
   2  15   3 286.917 281.903   6
  -2  15   4 520.975 300.736   6
   2  15   4 108.547 235.285   6
   2  15   5-186.826 246.989   6
  -2  15   5 203.867 242.808   6
   2  15  -6 1429.53 261.486   7
   2  15   6 1668.56 358.028   6
  -2  15   6 1766.16 362.689   6
   2  15   7 199.677 225.455   6
   2  15  -7 300.703 180.620   7
  -2  15   7 534.974 284.924   6
   2  15  -8 59.9063 168.291   7
   2  15   8-139.132 238.426   6
  -2  15   8 61.5441 232.217   6
   2  15   9 239.262 231.664   6
   2  15  -9-103.351 169.874   7
  -2  15   9-178.760 223.804   6
  -2  15 -10-43.3803 155.704   7
   2  15 -10 49.2195 140.855   7
  -2  15  10-202.970 219.939   6
   2  15 -11 6.80412 124.457   7
  -2  15  11 121.714 194.820   6
  -2  15 -11-37.1809 142.654   7
   2  15 -12 190.298 140.382   7
   2  16   0 246.690 254.625  12
   2  16   0-174.656 256.550   6
   2  16  -1 106.747 255.525  12
   2  16   1 349.870 278.991   6
  -2  16   1 199.705 269.828   6
   2  16  -1 237.010 245.157   6
   2  16  -2 603.346 274.102   6
   2  16   2 406.173 261.742   6
  -2  16   2 717.383 305.355   6
   2  16  -2 490.894 255.068  12
   2  16   3 1189.25 324.760   6
  -2  16   3 1033.83 323.402   6
   2  16  -3 1398.83 325.451   6
  -2  16   4 637.648 293.201   6
   2  16   4-345.921 255.078   6
  -2  16   5 170.299 245.630   6
   2  16   5 208.515 246.018   6
  -2  16   6 1432.69 331.993   6
   2  16   6 1028.09 296.115   6
  -2  16   7 1062.28 280.449   6
   2  16  -7 656.618 199.236   7
   2  16   7 886.607 262.217   6
  -2  16   8 685.652 229.763   6
   2  16  -8 606.454 189.491   7
   2  16   8 567.172 231.278   6
   2  16  -9 49.5512 135.774   7
  -2  16   9-254.508 204.274   6
   2  16   9 185.926 184.983   6
   2  16 -10 100.880 131.193   7
  -2  16  10 167.193 173.810   6
   2  17   0 381.744 260.049   6
   2  17   0-47.1665 221.807  12
   2  17  -1 210.371 236.066   6
   2  17  -1-230.961 222.974  12
   2  17   1 278.048 234.764   6
   2  17   1-78.6326 214.213  12
   2  17  -2 86.7654 240.793   6
  -2  17   2-126.217 213.051   6
   2  17   2 45.0421 212.266   6
   2  17   2-478.268 239.344  12
  -2  17   3 1076.59 275.270   6
   2  17   3 977.078 275.338   6
   2  17   4-44.2576 191.013   6
  -2  17   4 481.249 256.748   6
  -2  17   5-15.9291 179.268   6
   2  17   5 252.408 205.968   6
  -2  17   6 354.578 206.576   6
   2  17   6-17.1182 164.109   6
  -2  17   7 711.283 220.048   6
   2  17   7 761.605 229.952   6
  -2  17   8-16.0790 159.906   6
   2  18   0 823.123 228.697  12
   2  18   0 1044.62 260.386   6
   2  18   1 675.878 237.182   6
   2  18   1 518.964 211.015  12
   2  18   2 218.777 205.880   6
  -2  18   2 123.438 180.475   6
   2  18   2 222.628 187.762  12
  -2  18   3-234.227 177.099   6
   2  18   3 165.281 161.979   6
   2  18   3 114.323 168.332  12
  -2  18   4 118.935 158.668   6
   2  18   4 315.940 160.579   6
   2  18   4-123.602 163.384  12
   3   0   0 261.505 161.069  10
   3   0  -1 71.4457 164.098  10
  -3   0   1 161.048 166.616  10
  -3   0   2 120332. 1830.30  10
  -3   0   3 9.50264 144.106  10
  -3   0   4 283687. 3055.23  10
   3   0   4 284775. 2974.41  19
   3   0   5 172.764 152.260  19
   3   0  -5-49.9819 94.7989   1
   3   0  -6 11362.9 390.739   1
   3   0  -7 183.183 165.962  20
   3   0  -8 21527.2 743.797  20
   3   0  -9-66.0219 175.005  20
   3   0 -10-408.524 247.613  20
   3   0 -11 87.2279 197.171  20
   3   0 -12 6024.02 534.780  20
   3   0 -13-227.894 249.933  20
   3   0 -14 2368.85 418.384  20
  -3   0 -14 2250.61 299.145  11
   3   0 -15 98.8397 278.255   5
  -3   0 -15-136.058 230.851  11
   3   0 -15-68.0171 201.778  11
   3   0 -16 2947.57 448.967   5
   3   0 -16 2987.55 366.644  11
  -3   0 -16 3497.71 410.955  11
   3   0 -17-102.355 195.387  11
  -3   0 -17-92.6527 214.835  11
  -3   0 -18-16.0938 212.014  11
  -3   0 -19-12.3510 186.468  11
  -3   0 -20 60.6411 161.041  11
  -3   1   0-20.5326 168.702  10
  -3   1   1 216424. 2697.90  10
   3   1  -1 213195. 2312.17  10
   3  -1  -1 213914. 2700.60  10
  -3   1   2 371385. 3656.74  10
   3  -1   2 372337. 3740.62  10
   3   1  -2 374010. 2975.49  10
   3  -1   3 5072.78 485.731  10
  -3  -1   3 4931.33 343.415  10
  -3   1   3 4633.76 460.480  10
   3  -1   4 30391.2 1005.99  19
   3  -1  -4 29665.2 569.194   1
  -3  -1   4 30657.3 857.579  10
   3   1  -5 60350.2 821.902   1
   3  -1  -5 63498.3 871.087   1
   3   1   5 63070.9 1411.80  19
   3   1  -5 62718.5 938.204  20
   3   1   6 1163.05 243.733  19
   3   1  -6 808.315 132.480   1
   3   1  -6 838.519 187.646  20
   3   1  -7 5531.71 373.227  20
   3   1  -8 22566.9 751.527  20
   3  -1  -9 20700.2 767.044  20
   3   1  -9 19844.4 763.563  20
   3  -1  -9 20035.6 601.333   2
   3   1 -10 36495.9 1101.52  20
   3  -1 -10 35276.2 1105.19  20
   3   1 -11 1333.66 292.038  20
   3  -1 -11 1560.48 303.909  20
   3   1 -12 38189.7 1286.03  20
   3  -1 -12 40452.8 1316.07  20
   3  -1 -13 8112.05 666.399  20
   3   1 -13 8443.38 657.639  20
   3   1 -14 97.0468 213.296  20
   3  -1 -14 273.162 241.525   5
  -3   1 -14 330.125 207.871  11
   3  -1 -14-512.669 242.073  11
  -3  -1 -14-379.977 230.898  11
   3  -1 -14-156.652 236.201  20
   3   1 -15 2322.84 430.946   5
   3  -1 -15 2781.52 422.696   5
   3  -1 -15 2065.82 330.218  11
  -3   1 -15 2332.42 339.503  11
  -3  -1 -15 2270.05 335.062  11
   3  -1 -16 650.081 314.136   5
  -3   1 -16 1063.71 298.484  11
  -3  -1 -16 898.340 279.679  11
   3  -1 -16 815.127 262.977  11
   3  -1 -17 788.348 308.756   5
  -3   1 -17 1036.51 266.208  11
   3  -1 -17 1443.28 287.366  11
  -3  -1 -17 780.124 261.076  11
   3  -1 -18-260.729 221.687  11
  -3  -1 -18-158.682 215.159  11
  -3   1 -18-171.904 217.323  11
   3  -1 -19 998.726 235.704  11
  -3   1 -19 600.518 216.620  11
  -3  -1 -19 782.846 220.965  11
  -3  -1 -20 859.131 201.141  11
  -3   1 -20 895.589 207.429  11
  -3   2   0 82.3402 171.902  10
  -3   2  -1 10468.0 676.870  10
  -3   2   1 10629.0 699.497  10
   3  -2   1 10911.9 662.923  10
   3   2  -2 35188.9 844.361  10
  -3   2   2 37429.3 1304.54  10
   3  -2   2 34877.7 1183.94  10
   3  -2  -3 65984.1 826.522   1
   3  -2   3 66697.2 1477.90  19
   3  -2   3 65575.5 1688.59  10
  -3  -2  -4 31451.6 572.114   3
   3   2  -4 31769.3 667.093  20
   3  -2   4 32095.2 1257.38  10
   3   2   5 351.996 140.695  19
  -3  -2  -5 66.7975 104.128   3
   3   2  -5 509.037 155.036  20
   3  -2   5 172.430 205.496  10
   3   2  -5 536.315 107.913   1
   3   2  -6-58.3895 148.294  20
  -3   2  -6 171.999 126.539  20
  -3  -2  -6 2.73554 99.9138   3
   3   2  -7 18583.4 630.977  20
  -3   2  -7 18009.2 570.346  20
   3   2  -8 137.578 167.512  20
   3  -2  -9 1535.91 214.108   2
   3   2  -9 2358.04 322.829  20
   3   2 -10 3007.99 353.605  20
   3  -2 -10 2641.85 271.797   2
   3  -2 -11 11190.7 681.267  20
   3   2 -11 10999.4 680.731  20
   3  -2 -12 795.523 265.816  20
   3   2 -12 846.418 285.466  20
   3   2 -13-54.4985 209.974  20
   3  -2 -13 222.538 218.729  20
   3   2 -14 194.966 233.498  20
   3  -2 -14 289.462 239.285   5
  -3   2 -14 60.2269 198.625  11
  -3  -2 -14-126.599 257.707  11
   3  -2 -14-162.092 235.746  20
   3  -2 -14-101.137 193.795  11
  -3   2 -14-76.6020 219.735  15
  -3  -2 -15 400.826 249.730  11
  -3   2 -15 198.216 236.766  15
  -3   2 -15 120.385 226.726  11
   3  -2 -15 30.9681 301.174   5
   3  -2 -15 508.757 241.523  11
  -3  -2 -16 410.053 246.513  11
   3  -2 -16 197.817 218.250  11
   3  -2 -16-8.48297 267.156   5
  -3   2 -16 314.960 225.233  11
   3  -2 -17 185.225 259.045   5
   3  -2 -17 367.234 234.314  11
  -3  -2 -17 152.900 215.396  11
  -3   2 -17 804.774 244.506  11
  -3   2 -18-100.707 200.093  11
   3  -2 -18-323.226 214.236  11
  -3  -2 -18-390.240 228.115  11
   3  -2 -19 222.685 189.625  11
  -3  -2 -19 56.1100 181.400  11
  -3  -2 -20 361.434 173.519  11
   3  -2 -20-15.0951 160.656  11
  -3   3   0 166.843 194.159  10
   3  -3   1 8544.88 525.290  19
  -3   3  -1 8223.78 638.789  10
  -3   3   1 8353.20 674.989  10
   3   3  -2 20433.8 629.878  10
  -3   3  -2 21586.9 1026.19  10
  -3   3  -2 20974.9 494.388   8
   3  -3   2 21104.7 985.275  10
   3  -3   2 22000.4 861.632  19
  -3   3   2 21001.9 1073.97  10
   3  -3   3 149977. 2621.48  10
   3  -3   4 5031.34 520.130  10
  -3  -3  -4 5949.04 273.295   3
   3   3  -4 5579.50 318.509  20
  -3   3  -5 270183. 1936.37  20
  -3  -3  -5 273256. 1793.80   3
   3   3  -5 269961. 2166.75  20
   3   3  -6 132.711 142.625  20
  -3  -3  -6 160.410 106.331   3
  -3   3  -6 372.707 166.076  20
   3   3  -7 230.751 171.716  20
  -3   3  -7 534.286 164.100  20
   3  -3  -8 8094.53 408.875   2
   3   3  -8 7546.50 474.612  20
   3   3  -9 43465.2 1120.21  20
   3  -3  -9 43366.9 957.045   2
   3   3 -10 2414.64 328.818  20
   3  -3 -10 2363.70 264.622   2
   3   3 -11 304.504 215.136  20
   3  -3 -11 429.097 181.917   2
   3   3 -12 1401.90 293.148  20
   3  -3 -12 1506.91 323.141  20
   3  -3 -13 10408.0 733.832  20
   3   3 -13 10404.8 733.466  20
   3  -3 -14 1462.32 359.918   5
  -3   3 -14 1127.72 277.923   7
  -3  -3 -14 412.077 240.823  11
  -3   3 -14 387.655 241.073  15
   3  -3 -14 956.488 237.808  11
  -3   3 -15 3476.54 405.496  15
   3  -3 -15 3489.36 374.715  11
  -3  -3 -15 3971.52 406.089  11
   3  -3 -15 3293.99 446.400   5
   3  -3 -16 212.329 204.405  11
  -3   3 -16 382.736 255.950  15
  -3  -3 -16 506.562 257.808  11
   3  -3 -16 153.124 260.859   5
  -3  -3 -17 2104.08 329.446  11
   3  -3 -17 2308.06 331.985  11
   3  -3 -17 2453.29 402.995   5
  -3   3 -17 2683.55 355.087  15
   3  -3 -18 118.480 231.933   5
  -3  -3 -18-187.747 221.545  11
   3  -3 -18 506.472 221.216  11
  -3  -3 -19 1240.25 244.160  11
   3  -3 -19 1590.29 249.514  11
   3  -3 -20 88.3815 152.407  11
  -3  -3 -20-222.145 157.200  11
  -3   4   0-40.4157 124.228   8
   3  -4   0-12.4471 132.799  19
   3  -4   1 379.262 160.843  19
  -3   4  -1 476.978 138.815  20
  -3   4   1 407.002 134.071   9
  -3   4   1 334.169 137.870   8
  -3   4  -1 376.757 131.861   8
  -3   4  -2 120373. 1289.90   8
  -3   4  -2 121007. 2551.78  10
  -3   4   2 124340. 1248.14   8
   3   4  -2 122906. 1275.11  20
  -3   4  -2 124396. 1225.23  20
  -3   4   2 122850. 1325.48   9
   3  -4   3 14.6463 181.816  10
   3   4  -3 296.207 174.271  20
  -3   4  -3 30.0765 133.411  20
  -3   4  -3 212.493 145.307   8
  -3   4   3 174.603 133.669   8
   3   4  -4 4901.94 326.479  20
  -3   4  -4 4531.78 287.887  20
  -3  -4  -5 11484.3 401.710   3
  -3   4  -5 11774.7 440.468  20
   3   4  -5 12191.5 505.050  20
   3  -4  -6 30888.8 722.529   2
   3   4  -6 31143.4 829.779  20
  -3  -4  -6 29469.0 658.978   3
  -3   4  -6 30243.8 745.505  20
   3  -4  -7 1934.81 225.853   2
  -3   4  -7 2274.51 257.092  20
   3   4  -7 1930.69 252.848  20
  -3   4  -8 871.697 200.184  20
   3   4  -8 1144.48 235.495  20
   3  -4  -8 1212.31 195.041   2
   3   4  -9 6876.55 474.825  20
   3  -4  -9 5964.61 414.795   2
   3  -4 -10 4992.55 384.401   2
   3   4 -10 5305.19 451.884  20
   3   4 -11 1891.48 326.954  20
   3  -4 -11 1512.56 255.965   2
   3   4 -12 1026.14 271.927  20
   3  -4 -13-68.0222 196.249  20
   3   4 -13 108.486 209.749  20
   3  -4 -14-477.184 317.379   5
  -3   4 -14-49.4342 268.192  15
  -3   4 -14-450.239 286.197   7
  -3  -4 -14-572.586 273.085  11
   3  -4 -14 25.5138 208.461  11
   3  -4 -15 924.524 315.147   5
  -3   4 -15 631.854 274.191   7
   3  -4 -15 809.384 230.475  11
  -3   4 -15 1124.73 309.840  15
  -3  -4 -15 976.876 275.705  11
  -3   4 -16 34.0618 237.706  15
   3  -4 -16 112.849 275.402   5
  -3  -4 -16-2.83608 227.173  11
   3  -4 -16-65.0961 211.396  11
  -3  -4 -17-383.961 228.451  11
   3  -4 -17 33.5812 190.268  11
   3  -4 -17-179.811 263.480   5
  -3   4 -17-34.8860 206.725  15
   3  -4 -18 216.585 243.788   5
  -3  -4 -18 240.678 205.856  11
   3  -4 -18 269.799 206.033  11
  -3   4 -18 288.139 200.487  15
   3  -4 -19 17.8698 161.222  11
  -3  -4 -19 47.9875 170.952  11
  -3  -4 -20 54.7282 138.596  11
   3  -4 -20 284.206 153.223  11
   3   5   0 111.907 134.836  20
  -3   5   0 82.8625 102.005   9
   3  -5   0 179.569 144.573  19
  -3   5   0-14.6453 122.841   8
   3   5  -1 22871.3 605.136  20
  -3   5  -1 21522.5 567.996  20
  -3   5   1 22216.1 576.123   9
   3   5   1 21715.0 547.141  20
  -3   5  -1 22082.6 596.086   8
  -3   5   1 22413.0 601.620   8
  -3   5   2 194777. 1751.47   8
  -3   5   2 198970. 1750.37   9
  -3   5  -2 196687. 1719.90  20
   3   5  -2 196933. 1759.32  20
  -3   5  -2 202788. 1788.38   8
   3   5  -3 2682.88 251.574  20
  -3   5   3 2988.17 253.790   9
   3  -5  -3 2851.02 224.357   2
  -3   5  -3 2908.83 238.270   8
  -3   5  -3 2908.68 242.013  20
  -3   5   3 2931.21 252.508   8
   3  -5  -4 2856.63 239.017   2
  -3   5  -4 2875.95 253.009  20
   3   5  -4 2919.11 280.546  20
  -3   5  -4 2591.01 250.039   8
   3   5  -5 433.679 204.097  20
   3  -5  -5 337.804 142.792   2
  -3   5  -5 560.652 163.490  20
  -3  -5  -5 246.797 123.848   3
  -3   5  -6 5309.78 356.206  20
   3  -5  -6 5472.78 338.773   2
   3   5  -6 5332.96 396.910  20
   3  -5  -7 526.167 179.146   2
  -3   5  -7 341.675 155.921  20
   3   5  -7 737.670 195.680  20
  -3   5  -8 41388.6 1026.50  20
   3   5  -8 42182.5 1105.79  20
   3  -5  -8 41412.3 974.722   2
   3   5  -9 455.265 215.050  20
  -3   5  -9 401.229 173.086  20
   3  -5  -9 200.768 149.419   2
   3  -5 -10 25951.6 862.224   2
   3   5 -10 26990.8 984.192  20
   3  -5 -11 6762.55 487.924   2
   3   5 -11 7245.54 561.273  20
   3  -5 -12 38578.6 1129.13   2
   3   5 -12 39586.0 1318.98  20
   3  -5 -13 1314.20 327.509   5
  -3   5 -13 1543.11 297.048   7
   3   5 -13 1197.25 310.491  20
   3  -5 -13 1472.94 266.366  11
  -3  -5 -13 1470.38 277.745  11
   3  -5 -13 1314.52 331.339  20
  -3   5 -14 402.654 250.693   7
   3  -5 -14 496.063 289.397   5
   3  -5 -14 399.720 229.632  11
  -3  -5 -14-227.538 250.581  11
   3  -5 -15 91.4467 257.451   5
  -3   5 -15 252.811 251.254  15
  -3   5 -15-55.3227 221.571   7
   3  -5 -15-129.382 221.875  11
  -3  -5 -15-147.835 227.603  11
  -3   5 -16 840.576 268.694   7
  -3  -5 -16 574.195 254.664  11
  -3   5 -16 518.106 254.435  15
   3  -5 -16 783.867 246.465  11
   3  -5 -16 775.534 304.518   5
  -3  -5 -17-75.5180 211.543  11
  -3   5 -17 183.425 203.943  15
   3  -5 -17 294.750 209.557  11
   3  -5 -17-188.228 252.728   5
  -3   5 -18-225.678 189.201  15
  -3  -5 -18-104.630 196.116  11
   3  -5 -18-83.4794 183.651  11
  -3  -5 -19 117.306 170.036  11
  -3   5 -19 5.15402 154.769  15
   3  -5 -19-4.25482 148.605  11
   3   6   0 93.7093 143.087  20
  -3   6   0-9.73370 129.084   8
  -3   6  -1 767.178 174.260   8
   3   6  -1 802.380 203.983  20
  -3   6  -1 882.627 188.088  20
   3  -6  -1 724.819 144.829   2
  -3   6   1 788.916 181.083   8
   3   6   1 769.315 176.870  20
   3   6  -2 30668.4 768.125  20
  -3   6  -2 30161.2 749.878  20
   3  -6  -2 29867.1 650.008   2
  -3   6  -2 30098.3 756.619   8
  -3   6   2 30906.6 754.783   8
  -3   6  -3 1565.47 210.581  20
  -3   6   3 1410.28 191.834   9
  -3   6  -3 1638.31 210.360   8
   3   6  -3 1387.17 206.366  20
  -3   6   3 1866.41 233.732   8
   3  -6  -3 1440.08 184.431   2
  -3   6  -4 621.668 167.272   8
   3  -6  -4 428.508 137.867   2
   3   6  -4 719.437 185.932  20
  -3   6  -4 352.685 151.046  20
  -3   6   4 543.015 153.068   9
   3   6  -5 4427.48 361.001  20
   3  -6  -5 4328.59 317.008   2
  -3   6  -5 4840.86 357.681  20
   3  -6  -6 267.911 162.097   2
   3   6  -6 238.471 180.356  20
  -3   6  -6 14.8866 146.126  20
  -3   6  -7 471.993 178.553  20
   3   6  -7 373.815 196.053  20
   3  -6  -7 508.548 176.793   2
  -3   6  -8 546.500 182.422  20
   3  -6  -8 549.532 184.936   2
   3   6  -8 555.168 213.040  20
  -3   6  -9 591.826 199.821  20
   3   6  -9 507.608 227.798  20
   3  -6  -9 325.452 173.245   2
   3   6 -10-36.0914 200.118  20
   3  -6 -10 63.5063 168.873   2
   3  -6 -11 1860.97 292.733   2
   3   6 -11 1961.74 342.725  20
   3   6 -12-27.0661 202.738  20
  -3   6 -13 506.426 252.859   7
  -3  -6 -13 4.41361 232.588  11
   3  -6 -13 468.058 209.779  11
   3  -6 -13 818.143 323.288   5
  -3   6 -14-237.737 263.930   7
   3  -6 -14-74.9844 218.260  11
  -3  -6 -14-287.424 251.933  11
   3  -6 -14 220.669 285.814   5
  -3   6 -15 271.938 237.235   7
   3  -6 -15-196.508 226.206  11
  -3  -6 -15 590.694 262.705  11
  -3   6 -15 721.365 289.187  15
   3  -6 -15 804.675 327.613   5
  -3   6 -16 248.342 242.892  15
   3  -6 -16 99.9699 204.717  11
  -3   6 -16 48.4578 231.578   7
  -3  -6 -16 139.600 224.416  11
  -3   6 -17 111.588 204.322  15
   3  -6 -17-61.5996 194.322  11
  -3  -6 -17 29.4719 198.464  11
  -3   6 -17 29.1143 192.070   7
  -3  -6 -18-230.807 200.491  11
   3  -6 -18 110.904 173.081  11
  -3   6 -18 331.325 193.605  15
  -3  -6 -19 268.561 175.662  11
   3  -6 -19 71.9965 147.682  11
  -3   6 -19 87.3417 150.066  15
   3   7   0 13.6268 144.548  20
  -3   7   0-70.6248 146.096   8
  -3   7  -1 21266.7 673.821   8
  -3   7   1 21030.5 670.494   8
  -3   7  -1 21158.3 669.280  20
   3   7  -1 21886.5 715.209  20
  -3   7  -2 34256.3 857.410  20
  -3   7   2 34290.0 861.623   8
   3   7  -2 34155.4 881.180  20
   3  -7  -2 34556.4 746.327   2
  -3   7  -2 34316.6 852.912   8
   3   7  -3 26009.4 796.840  20
   3  -7  -3 26044.4 704.994   2
  -3   7  -3 26473.3 774.830  20
  -3   7  -3 27388.0 776.978   8
  -3   7   3 26994.1 778.463   8
  -3   7  -4 38587.2 962.600  20
   3   7  -4 39260.6 1012.57  20
   3  -7  -4 39874.5 890.972   2
  -3   7  -4 38313.7 921.642   8
  -3   7   4 37688.3 930.214   8
  -3   7  -5 112462. 1688.56  20
   3   7  -5 113613. 1767.17  20
  -3   7  -5 110630. 1634.66   8
   3  -7  -5 112989. 1573.81   2
  -3   7  -6 7947.05 484.151  20
   3   7  -6 8039.28 505.808  20
   3  -7  -6 7928.60 460.386   2
   3  -7  -7 60.0048 159.168   2
  -3   7  -7 21.3410 172.342  20
   3   7  -7 43.0033 176.569  20
  -3   7  -8 834.771 233.342  20
   3  -7  -8 944.726 231.417   2
   3   7  -8 1105.35 255.564  20
   3   7  -9 19495.2 874.705  20
   3  -7  -9 18931.7 772.278   2
  -3   7  -9 19932.6 830.164  20
   3   7 -10 8255.19 606.026  20
   3  -7 -10 8464.49 545.886   2
   3   7 -11 115.925 200.909  20
   3  -7 -12 3319.12 351.951  11
   3  -7 -12 4319.66 496.859   5
   3   7 -12 3447.06 351.319   7
  -3   7 -12 4486.49 436.075   7
   3  -7 -13 2536.90 449.089   5
  -3   7 -13 2224.07 368.263   7
   3  -7 -13 2463.69 338.240  11
  -3   7 -14-43.9635 236.706   7
   3  -7 -14-17.9701 217.772  11
  -3   7 -15 2883.20 376.328   7
  -3   7 -15 3628.06 413.498  15
  -3  -7 -15 2887.43 365.538  11
   3  -7 -15 2623.54 351.236  11
  -3  -7 -16-28.5200 197.254  11
   3  -7 -16 148.965 198.813  11
  -3   7 -16 0.66458 205.393   7
  -3   7 -16 1.95939 216.021  15
  -3   7 -17 653.686 252.422   7
  -3  -7 -17 1362.59 253.478  11
   3  -7 -17 876.903 254.719  11
  -3   7 -17 905.985 251.078  15
  -3   7 -18 376.270 178.728  15
  -3  -7 -18 697.575 208.546  11
  -3   7 -18 492.835 191.532   7
   3  -7 -18 476.781 191.915  11
   3  -7 -19 757.593 175.790  11
   3   8   0 10.4909 176.767  20
  -3   8   0 46.7568 137.832   8
   3   8  -1 10874.0 547.270  20
  -3   8   1 9975.41 519.449   8
  -3   8  -1 9834.03 502.768   8
  -3   8  -2-111.854 150.775   8
   3   8  -2 20.1808 159.489  20
  -3   8  -2 339.233 174.843  20
  -3   8   2 379.009 175.917   8
  -3   8   3 14494.6 640.582   8
   3  -8  -3 13987.4 541.175   2
  -3   8  -3 14243.8 622.258  20
   3   8  -3 14749.7 650.531  20
  -3   8  -3 14504.0 619.752   8
   3  -8  -4 2699.12 285.540   2
  -3   8  -4 3047.17 305.105   8
  -3   8  -4 3376.69 346.495  20
  -3   8   4 3557.75 382.959   8
   3   8  -4 3198.06 350.970  20
   3   8  -5 2535.68 321.806  20
   3  -8  -5 2423.18 280.692   2
  -3   8  -5 2816.89 312.290  20
  -3   8  -5 2386.78 281.330   8
   3   8  -6 2814.59 363.135  20
   3  -8  -6 2936.26 314.379   2
  -3   8  -6 3571.61 366.085  20
   3  -8  -7-73.7399 152.545   2
  -3   8  -7 328.485 179.662  20
   3   8  -7 77.1811 180.648  20
  -3   8  -8 12521.1 681.740  20
   3   8  -8 12458.8 717.697  20
   3  -8  -8 11094.2 611.443   2
   3   8  -9 856.017 265.969  20
  -3   8  -9 746.175 255.115  20
   3   8 -10 289.580 214.398  20
   3   8 -11 1549.44 261.004   7
  -3   8 -11 2214.67 325.824   7
   3  -8 -11 1918.20 272.133  11
  -3   8 -12 3216.71 406.284   7
   3   8 -12 2894.35 343.040   7
   3  -8 -12 3555.83 363.574  11
  -3   8 -13 184.224 233.068   7
   3   8 -13 279.066 203.749   7
   3  -8 -13 145.493 234.688  11
  -3   8 -14-193.664 218.080   7
   3  -8 -14 68.5732 207.073  11
  -3   8 -15 20.3320 216.075  15
  -3   8 -15-5.97727 205.424   7
   3  -8 -15 386.902 216.744  11
  -3   8 -16 440.007 233.843   7
   3  -8 -16 494.506 233.080  11
  -3   8 -16 343.448 202.490  15
  -3   8 -17 91.6112 183.320   7
  -3   8 -17 39.2052 182.715  15
   3  -8 -17 489.775 196.617  11
   3  -8 -18-106.309 160.566  11
  -3   8 -18 254.529 161.659   7
  -3   8 -18 69.6674 148.258  15
  -3   9   0 18.8804 164.876   8
  -3   9   1 1850.94 265.542   8
   3   9  -1 1842.29 289.297  20
  -3   9  -1 1735.96 268.575   8
   3   9  -2 51718.7 1243.32  20
  -3   9  -2 49767.0 1174.95   8
  -3   9   2 51108.5 1214.56   8
  -3   9  -3 18945.1 735.009   8
   3   9  -3 19388.0 791.484  20
  -3   9  -3 19566.2 772.717  20
  -3   9   3 19293.1 766.431   8
   3   9  -4 414.463 191.931  20
   3  -9  -4 385.972 157.960   2
  -3   9  -4 391.470 199.318  20
  -3   9  -4 243.537 162.076   8
  -3   9   4 754.753 231.111   8
  -3   9  -5 32326.3 966.687   8
  -3   9  -5 31991.0 1019.72  20
  -3   9   5 31336.7 985.185   8
   3   9  -5 31802.0 1060.12  20
  -3   9  -6 341.646 209.861  20
   3   9  -6 375.840 197.663  20
   3   9  -7-185.406 218.674  20
  -3   9  -7 16.6578 190.003  20
  -3   9  -8 15578.2 785.450  20
   3   9  -8 15748.1 835.419  20
  -3   9  -9 1444.59 296.448  20
   3   9  -9 1346.19 315.930  20
   3   9 -10 815.316 226.826   7
  -3   9 -10 939.928 214.639   7
  -3   9 -11 2977.37 349.275   7
   3   9 -11 2793.74 341.469   7
   3   9 -12 4159.46 393.481   7
  -3   9 -12 3848.35 433.244   7
  -3   9 -13 4736.32 459.126   7
   3  -9 -13 5044.39 408.477  11
   3   9 -13 4587.04 396.771   7
  -3   9 -14 235.735 227.194   7
   3   9 -14 311.692 199.942   7
   3  -9 -14 299.653 208.168  11
  -3   9 -15 378.940 236.699   7
   3  -9 -15 551.325 225.562  11
  -3   9 -15 656.514 245.892  15
   3  -9 -16 255.802 186.082  11
  -3   9 -16 116.147 185.195  15
  -3   9 -17 277.538 192.429   7
   3  -9 -17 557.746 188.757  11
  -3   9 -17 470.479 180.885  15
  -3  10   0-34.5238 175.568   8
   3  10  -1 1395.43 275.817  20
  -3  10  -1 1026.91 219.818   8
  -3  10   1 740.929 206.389   8
   3  10  -2 845.763 242.315  20
  -3  10  -2 874.938 220.885   8
  -3  10   2 1066.82 244.436   8
  -3  10   3 1679.93 276.090   8
  -3  10  -3 1939.73 287.477   8
  -3  10  -3 2053.50 305.899  20
   3  10  -3 2183.04 330.128  20
   3  10  -4 14997.3 759.529  20
  -3  10  -4 15247.2 755.600  20
  -3  10  -4 13670.3 677.150   8
  -3  10   4 14361.8 721.592   8
   3  10  -5 1313.28 290.849  20
  -3  10  -5 1455.91 249.573   8
  -3  10   5 1947.54 313.599   8
  -3  10  -5 1746.98 305.287  20
   3  10  -6 552.395 225.709  20
  -3  10  -6 559.546 221.305  20
  -3  10  -7 626.621 230.776  20
   3  10  -7 431.661 237.381  20
   3  10  -8 3626.86 453.156  20
  -3  10  -8 3713.64 429.685  20
  -3  10  -9 148.773 218.245   7
   3  10  -9 359.591 207.156   7
   3  10 -10-117.447 216.382   7
  -3  10 -10 118.882 204.975   7
   3  10 -11-26.1941 187.517   7
  -3  10 -11 272.954 221.412   7
   3  10 -12 248.372 203.104   7
  -3  10 -12 223.025 217.321   7
  -3  10 -13 170.984 212.032   7
   3  10 -13 236.933 196.450   7
  -3  10 -14 707.148 242.047   7
  -3  10 -14 352.090 203.990  15
   3  10 -14 526.039 211.732   7
   3  10 -15 330.703 197.484   7
  -3  10 -15 280.464 203.101   7
  -3  10 -15-57.7530 197.820  15
  -3  10 -16 131.580 171.522   7
  -3  10 -16 370.311 186.853  15
  -3  10 -17 198.776 151.920   7
  -3  10 -17-11.7698 138.853  15
  -3  11   0 37.6260 170.518   8
  -3  11   1 17226.1 812.289   8
  -3  11  -1 17800.5 811.274   8
   3  11  -2 27466.9 1036.78  20
  -3  11  -2 28056.3 995.580   8
  -3  11   2 28543.3 1030.76   8
   3  11  -3 2674.98 371.531  20
  -3  11   3 2601.69 336.247   8
  -3  11  -3 2641.79 330.758   8
   3  11  -4 7065.80 549.634  20
  -3  11   4 6811.63 531.778   8
  -3  11  -4 6663.61 520.375   8
  -3  11   5 7795.49 576.169   8
  -3  11  -5 8030.21 583.408  20
   3  11  -5 8519.41 619.593  20
  -3  11  -5 8044.73 565.010   8
  -3  11   6 2224.17 341.222   8
   3  11  -6 2551.16 391.638  20
  -3  11  -6 2254.06 341.770  20
   3  11  -7-372.414 216.228   7
  -3  11  -7-152.031 174.200   7
  -3  11  -7 175.529 199.895  20
   3  11  -7-207.150 220.882  12
   3  11  -7-5.81555 204.182  20
  -3  11   7-89.4459 196.949   8
   3  11   7-340.602 277.449   6
   3  11  -8 540.866 226.249   7
  -3  11  -8 912.481 242.451   7
  -3  11  -9 1617.38 298.316   7
   3  11  -9 1473.74 297.893   7
  -3  11 -10 4991.78 398.670   7
   3  11 -10 5694.40 463.692   7
  -3  11 -11 3099.07 367.640   7
  -3  11  11 2938.77 480.941   6
   3  11 -11 3603.03 381.745   7
   3  11 -12 3417.00 420.469   7
  -3  11  12 4037.09 512.575   6
  -3  11 -13 29.4693 183.101   7
   3  11 -13 99.9522 175.765   7
  -3  11  13-36.0210 234.062   6
  -3  11 -14 4.79850 190.363   7
  -3  11 -14 117.177 188.282  15
   3  11 -14 390.770 202.972   7
  -3  11  14 392.618 235.624   6
  -3  11 -15 970.072 230.282  15
  -3  11 -15 798.278 219.374   7
   3  11 -15 526.069 201.041   7
  -3  11 -16 79.6421 150.204   7
   3  11 -16 28.7491 138.930   7
  -3  11 -16-41.3641 150.647  15
  -3  12   0-244.000 219.699   8
  -3  12  -1 207.575 191.535   8
  -3  12   1 74.9452 180.974   8
  -3  12   2 3592.99 423.045   8
  -3  12  -2 3917.12 424.872   8
  -3  12   3 265.267 216.177   8
   3  12  -3 75.5798 191.755  20
  -3  12  -3-211.023 194.191   8
   3  12  -4 692.503 248.849  20
   3  12  -4 708.273 250.017   6
   3  12   4 822.060 257.375   6
   3  12  -4 823.319 263.015  12
   3  12  -4 607.537 170.009   7
  -3  12  -4 583.379 215.579   8
  -3  12   4 423.865 220.058   8
  -3  12   4 1048.78 317.162   6
  -3  12   5 520.410 327.471   6
   3  12  -5 168.349 157.304   7
   3  12  -5 651.819 280.590   6
   3  12  -5 856.891 282.344  12
   3  12   5 593.220 302.974   6
   3  12  -6 485.958 243.006  12
   3  12  -6 153.413 203.007   7
  -3  12   6 645.915 316.692   6
   3  12   6 546.392 277.550   6
  -3  12   7 544.913 296.062   6
   3  12  -7 546.896 256.423  12
   3  12   7 901.371 335.416   6
   3  12  -7 173.161 177.749   7
  -3  12  -8 95.1754 191.100   7
   3  12  -8 4.91654 202.469   7
  -3  12   8 178.901 301.636   6
   3  12   8-27.1942 284.321   6
  -3  12  -9 349.906 223.000   7
  -3  12   9-46.0577 306.292   6
   3  12  -9 83.0194 199.245   7
  -3  12 -10 521.654 246.968   7
   3  12 -10 373.389 219.297   7
  -3  12  10 392.257 306.692   6
  -3  12  11 2188.06 410.490   6
   3  12 -11 2480.74 316.861   7
  -3  12 -11 1498.24 342.789   7
   3  12 -12 75.0192 171.484   7
  -3  12  12-17.2806 233.693   6
  -3  12 -12-196.636 206.765   7
  -3  12 -13 178.698 204.239  15
  -3  12 -13-122.290 198.631   7
   3  12 -13-120.245 176.673   7
  -3  12  13-142.764 208.017   6
  -3  12 -14 107.332 174.200   7
   3  12 -14 111.490 157.685   7
  -3  12  14 248.361 200.375   6
  -3  12 -14 58.1940 176.567  15
   3  12 -15 16.9366 142.705   7
  -3  12 -15 440.579 171.257  15
  -3  12 -15 374.319 173.250   7
   3  13   0-70.2210 267.456   6
   3  13  -1 64.6342 278.220   6
   3  13   1 307.804 273.880   6
   3  13   2 327.990 291.586   6
  -3  13   2 291.275 321.990   6
   3  13  -2 602.614 294.051   6
   3  13  -3 4494.68 480.964  12
   3  13  -3 4254.96 507.866   6
   3  13   3 4130.15 509.339   6
  -3  13   3 4667.19 553.948   6
   3  13  -3 2802.49 276.267   7
   3  13   4 5001.08 519.270   6
  -3  13   4 6152.45 635.300   6
   3  13  -4 5399.68 517.618  12
   3  13  -4 4884.42 523.680   6
   3  13  -5 18123.1 878.931  12
  -3  13   5 18904.9 1016.19   6
   3  13   5 16316.6 905.942   6
   3  13  -5 15795.6 662.051   7
   3  13  -5 17915.9 895.133   6
   3  13  -6 3658.02 440.480  12
   3  13   6 3955.30 502.008   6
  -3  13   6 4197.80 516.576   6
   3  13  -6 4023.97 378.736   7
  -3  13   7 217.046 250.202   6
   3  13  -7 215.185 201.855   7
   3  13   7 450.545 290.730   6
   3  13  -8 1752.58 302.702   7
   3  13   8 2117.03 439.754   6
  -3  13   8 1408.26 366.722   6
  -3  13  -9 1658.94 285.640   7
   3  13  -9 1721.13 293.893   7
  -3  13   9 1621.29 364.499   6
   3  13 -10 252.618 193.397   7
  -3  13  10 170.200 265.977   6
  -3  13 -10 21.2490 188.922   7
  -3  13 -11-206.678 197.901   7
   3  13 -11 91.3008 178.853   7
  -3  13  11-39.0695 243.130   6
   3  13 -12-366.614 191.973   7
  -3  13 -12-84.2260 188.680   7
  -3  13  12 122.356 231.219   6
  -3  13  13 179.349 218.955   6
  -3  13 -13 252.917 193.855   7
   3  13 -13 277.712 174.600   7
  -3  13 -14 233.199 169.620   7
   3  13 -14 76.3670 142.616   7
   3  14   0-45.6919 274.008   6
   3  14   1 324.340 311.895   6
   3  14  -1-191.382 286.597   6
   3  14   2 2474.82 406.504   6
   3  14  -2 2569.19 436.698   6
   3  14  -2 2224.86 399.301  12
  -3  14   2 2213.01 431.370   6
  -3  14   3 527.715 343.895   6
   3  14  -3 146.245 254.945  12
   3  14  -3 304.419 266.674   6
   3  14   3 190.369 260.098   6
   3  14  -4 998.099 291.694  12
   3  14  -4 297.165 194.778   7
   3  14   4 666.994 312.801   6
  -3  14   4 1010.69 350.853   6
   3  14  -4 1122.36 330.645   6
  -3  14   5 245.466 260.569   6
   3  14  -5 43.4143 205.910  12
   3  14   5 70.5791 254.949   6
   3  14  -5 163.186 177.480   7
   3  14   6-183.853 258.345   6
   3  14  -6 218.041 221.961  12
   3  14  -6 339.740 220.041   7
  -3  14   6 440.356 267.333   6
   3  14  -7-92.4223 194.377   7
  -3  14   7-95.4406 250.863   6
   3  14   7-642.061 302.590   6
  -3  14   8 827.863 299.539   6
   3  14   8 814.418 310.462   6
   3  14  -8 369.800 206.786   7
   3  14   9-61.8421 255.936   6
   3  14  -9-126.959 178.745   7
  -3  14   9 57.1135 258.452   6
  -3  14 -10-264.581 197.943   7
   3  14 -10-49.0494 161.290   7
  -3  14  10-77.0360 233.382   6
  -3  14 -11-187.561 176.420   7
   3  14 -11-28.9746 157.950   7
  -3  14  11-9.20647 200.107   6
  -3  14 -12 112.943 163.332   7
  -3  14  12-3.46912 187.401   6
   3  14 -12 207.811 152.228   7
  -3  14 -13 226.026 155.469   7
   3  14 -13 73.5802 133.850   7
  -3  14  13 122.026 186.454   6
   3  15   0 339.553 275.327   6
   3  15  -1 2226.09 396.575  12
   3  15  -1 2494.01 429.630   6
   3  15   1 2073.85 396.847   6
   3  15  -2 3811.80 477.975  12
   3  15  -2 3832.51 489.675   6
  -3  15   2 3676.45 504.053   6
   3  15   2 3890.85 508.673   6
   3  15  -3 3033.51 408.893  12
   3  15  -3 3725.36 471.114   6
   3  15   3 2685.29 412.676   6
  -3  15   3 3294.50 473.602   6
   3  15  -4-70.2467 211.232  12
  -3  15   4 94.7718 256.708   6
   3  15   4 165.802 252.831   6
   3  15  -5 227.287 203.024  12
  -3  15   5-171.881 251.359   6
   3  15   5-6.73575 242.925   6
   3  15  -5 132.456 171.988   7
   3  15  -6 140.174 186.129   7
   3  15   6-92.6895 225.241   6
  -3  15   6-26.2312 245.877   6
   3  15  -7 58.0717 168.518   7
   3  15   7 182.119 226.509   6
  -3  15   7 713.432 290.638   6
   3  15  -8 805.226 240.334   7
   3  15   8 1147.54 316.793   6
  -3  15   8 1501.63 327.614   6
  -3  15   9-282.440 226.332   6
   3  15   9 180.298 215.637   6
   3  15  -9-137.300 165.053   7
   3  15 -10 57.1837 143.173   7
  -3  15  10 455.266 233.503   6
   3  15 -11 368.303 182.699   7
  -3  15  11 1055.71 260.479   6
   3  16   0 107.240 260.610  12
   3  16   0 88.1157 231.274   6
   3  16  -1 1074.21 319.802  12
   3  16  -1 838.197 300.214   6
   3  16   1 1734.16 367.577   6
   3  16   2 1026.17 314.786   6
   3  16  -2 837.930 287.913  12
   3  16  -2 1097.22 326.341   6
  -3  16   2 1110.67 316.234   6
   3  16   3 680.209 257.695   6
   3  16  -3 425.661 259.345  12
  -3  16   3 743.532 286.494   6
   3  16  -4-188.230 215.858  12
  -3  16   4 278.114 255.761   6
   3  16   4-27.6276 218.723   6
  -3  16   5 508.673 268.643   6
   3  16   5 430.318 231.645   6
   3  16  -6-103.559 154.798   7
  -3  16   6 219.229 219.404   6
   3  16   6-243.080 217.913   6
  -3  16   7 60.9133 214.327   6
   3  16  -7 249.645 160.951   7
   3  16   7 13.2129 209.781   6
   3  16  -8 147.152 146.138   7
   3  16   8 99.1472 190.649   6
  -3  16   8 136.603 206.549   6
   3  16   9-88.2898 184.101   6
   3  16  -9 23.9921 127.223   7
  -3  16   9 201.120 187.868   6
  -3  16  10-268.034 178.368   6
   3  17   0-48.8963 216.321  12
   3  17   0 297.994 248.883   6
   3  17  -1 949.035 274.781  12
   3  17   1 734.988 280.813  12
   3  17  -1 1162.05 316.055   6
   3  17   1 1128.54 295.244   6
   3  17  -2 417.532 231.506  12
   3  17   2 403.334 224.102  12
   3  17   2 591.328 253.909   6
   3  17  -3 261.360 215.586  12
   3  17   3 7.72771 196.769   6
  -3  17   3 223.768 206.811   6
   3  17   4 2393.11 351.872   6
  -3  17   4 2169.39 335.007   6
   3  17   5 1154.84 256.965   6
  -3  17   5 1094.65 266.524   6
  -3  17   6 711.437 221.086   6
   3  17   6 577.676 219.685   6
   3  17   7-70.8868 168.106   6
  -3  17   7-46.3833 152.588   6
   3  18   0-168.104 191.170  12
   3  18   1 375.567 204.403   6
   3  18  -1 366.612 199.598  12
   3  18   1 124.065 175.296  12
   3  18   2 291.039 180.654  12
   3  18   2 393.349 203.379   6
   3  18   3 120.816 156.422  12
   3  18   3-86.9754 144.797   6
   3  18   4 265.763 156.473  12
   3  18   4 140.256 147.687   6
   4   0   0 140592. 2417.78  10
   4   0  -1 67.2911 169.952  10
  -4   0   1-0.83726 164.859  10
   4   0   1 78.3528 212.546  10
   4   0   2 51772.3 1571.84  10
   4   0  -2 48857.4 705.985   1
  -4   0   2 51293.5 1392.06  10
   4   0  -2 50956.4 1428.71  10
  -4   0   3-84.0873 181.142  10
   4   0  -3-16.8158 95.7742   1
   4   0  -4 51802.0 811.053   1
  -4   0   4 53973.3 1485.14  10
   4   0  -5 108.345 105.218   1
   4   0  -6 9825.58 412.108   1
   4   0  -6 10203.7 447.264  20
   4   0  -7 79.6166 109.272   1
   4   0  -7-157.309 157.689  20
   4   0  -8 153049. 1971.51  20
   4   0  -9-104.184 181.537  20
   4   0 -10 45631.7 1280.63  20
   4   0 -11-50.7905 219.420  20
   4   0 -12 1653.40 334.439  20
   4   0 -13 151.343 240.629  20
  -4   0 -14 6357.23 477.881  11
   4   0 -14 6054.90 560.262   5
   4   0 -15-195.684 291.662   5
  -4   0 -15-125.786 233.668  11
   4   0 -16 1873.52 382.690   5
  -4   0 -16 1888.57 323.846  11
  -4   0 -17 47.0998 219.536  11
   4   0 -17-114.328 274.944   5
   4   0 -18 487.244 269.991   5
  -4   0 -18-67.2709 205.330  11
  -4   0 -19-35.3924 177.675  11
  -4   0 -20 48.2012 158.889  11
   4   1   0 37300.5 1217.44  10
   4  -1   0 37908.7 1320.87  10
  -4   1   0 37689.1 1295.23  10
   4   1  -1 69762.0 1606.03  10
   4  -1  -1 70206.7 1807.90  10
  -4   1   1 71323.2 1769.16  10
  -4   1   2 32595.9 663.504   9
  -4  -1  -2 32230.3 570.340   3
   4  -1  -2 31755.9 570.003   1
  -4   1   2 34301.9 1250.79  10
   4   1  -2 33433.4 1093.56  10
   4  -1   2 34013.7 1298.56  10
  -4  -1   3 22438.2 831.931  10
   4  -1  -3 21215.8 496.293   1
  -4   1   3 23696.7 1075.79  10
  -4  -1  -3 23025.2 498.371   3
   4   1  -3 21833.8 505.139   1
  -4  -1  -4 44645.5 728.256   3
  -4  -1   4 42811.6 1176.55  10
   4  -1  -4 43974.6 739.583   1
   4   1  -4 42155.6 746.206  20
  -4   1   4 43572.3 1500.30  10
   4   1  -4 43872.4 722.970   1
   4   1  -5 1177.87 186.693  20
   4  -1  -5 1039.04 156.453   1
   4   1  -5 1051.81 147.337   1
   4   1  -6 10695.1 396.987   1
   4   1  -6 9908.02 453.611  20
   4  -1  -6 10494.9 426.563   1
   4   1  -7 46448.1 872.918   1
   4   1  -7 46893.1 1005.65  20
   4   1  -8-74.5724 167.527  20
   4  -1  -9 830.499 242.396  20
   4   1  -9 936.186 260.648  20
   4  -1 -10 13934.5 711.777  20
   4   1 -10 13846.3 712.411  20
   4  -1 -11 188.949 219.814  20
   4   1 -11 18.5306 183.360  20
   4   1 -12 9221.68 670.920  20
   4  -1 -12 9471.25 685.341  20
   4  -1 -13 5469.09 549.814  20
   4   1 -13 4852.37 546.131  20
   4  -1 -14 385.358 226.848  11
   4  -1 -14 532.590 315.935   5
   4   1 -14 999.373 337.075   5
  -4   1 -14 524.412 236.647  11
  -4  -1 -14 367.545 233.992  11
  -4   1 -14 388.597 234.627  15
  -4   1 -15 712.976 252.647  15
   4  -1 -15 126.631 281.165   5
  -4   1 -15 229.069 250.052  11
  -4  -1 -15 134.696 229.545  11
   4  -1 -15 245.045 212.907  11
   4   1 -15 899.062 356.038   5
   4  -1 -16 769.613 318.154   5
   4  -1 -16 731.099 256.951  11
  -4   1 -16 996.062 288.511  11
  -4  -1 -16 1188.16 296.852  11
   4   1 -16 814.125 327.317   5
  -4   1 -17 3136.85 354.357  11
   4  -1 -17 2228.49 402.738   5
   4   1 -17 2274.69 391.858   5
   4  -1 -17 3273.31 356.448  11
  -4  -1 -17 2723.64 358.712  11
   4  -1 -18 705.914 274.498   5
   4  -1 -18 532.647 227.340  11
  -4   1 -18 348.614 223.107  11
  -4  -1 -18 486.220 242.280  11
   4  -1 -19 146.302 175.951  11
  -4   1 -19-274.559 194.417  11
  -4  -1 -19 331.308 193.344  11
  -4   1 -20 42.3356 148.355  11
  -4  -1 -20 51.8579 142.243  11
   4  -2   0 56763.7 1691.23  10
  -4   2   0 55869.3 857.410   9
  -4   2   0 58431.9 1731.57  10
  -4  -2  -1 64599.9 813.111   3
  -4   2   1 69425.7 1906.88  10
  -4   2  -1 64589.5 947.278   9
  -4   2  -1 66113.9 1832.51  10
   4  -2   1 65157.6 1815.51  10
  -4   2   1 65540.7 932.958   9
   4   2  -1 66097.9 1514.80  10
  -4  -2  -2 44092.7 689.664   3
   4  -2  -2 44844.4 692.051   1
   4  -2   2 44402.0 1507.81  10
  -4   2   2 45736.6 1579.48  10
  -4   2   2 43582.8 800.503   9
   4   2  -2 43212.4 1164.22  10
   4  -2  -3 47021.3 753.804   1
  -4  -2  -3 47384.4 734.602   3
   4   2  -4 6388.09 288.148   1
   4  -2  -4 6463.01 309.863   1
  -4  -2  -4 6075.71 292.881   3
   4   2  -4 6533.22 326.178  20
   4   2  -5 24700.5 665.041  20
   4  -2  -5 23982.5 606.490   1
   4   2  -5 25129.4 571.108   1
  -4  -2  -5 25802.4 592.622   3
   4   2  -6 3929.85 252.719   1
   4   2  -6 4040.17 302.762  20
  -4  -2  -6 3774.11 255.308   3
   4   2  -7 82078.3 1347.94  20
   4   2  -8 19140.2 713.363  20
   4   2  -9 35323.7 1039.33  20
   4   2 -10 1377.93 266.783  20
   4  -2 -10 1387.38 223.299   2
   4  -2 -11 346.045 237.359  20
   4   2 -11 389.317 250.555  20
   4  -2 -12 1502.52 310.670  20
   4   2 -12 1752.68 332.506  20
   4   2 -13 332.907 226.584  20
   4  -2 -13 135.320 204.628  20
  -4   2 -14 1438.77 305.876   7
   4  -2 -14 2017.31 393.148   5
  -4   2 -14 2406.33 327.577  11
  -4  -2 -14 2056.86 331.563  11
  -4   2 -14 1989.02 326.012  15
   4  -2 -14 2170.17 307.223  11
   4  -2 -15 1306.15 282.301  11
   4  -2 -15 1366.32 361.830   5
  -4  -2 -15 1557.57 305.887  11
  -4   2 -15 1744.62 311.330  15
  -4   2 -15 2081.07 341.606  11
   4   2 -15 1768.16 397.814   5
   4  -2 -16 92.9332 276.743   5
  -4   2 -16 760.335 275.209  15
   4   2 -16 805.517 326.296   5
  -4   2 -16 31.6907 217.458  11
  -4  -2 -16 780.132 274.889  11
   4  -2 -16 181.381 217.782  11
   4  -2 -17 1805.94 379.059   5
  -4  -2 -17 1516.88 291.940  11
  -4   2 -17 2610.35 332.037  11
   4  -2 -17 2130.03 309.892  11
  -4   2 -18-10.5709 192.271  11
  -4  -2 -18 72.0432 199.081  11
   4  -2 -18 109.328 198.758  11
   4  -2 -18-132.007 240.891   5
   4  -2 -19 51.1199 210.582   5
   4  -2 -19 291.472 193.305  11
  -4   2 -19 678.363 202.505  11
  -4  -2 -19 175.993 180.991  11
  -4  -2 -20 76.4862 145.875  11
  -4   3   0 153280. 1471.55   9
  -4   3   0 149959. 1326.07   8
  -4   3  -1 38725.5 680.300   8
   4  -3  -1 39016.1 646.976   1
  -4   3   1 37455.0 648.473   8
  -4   3  -1 38085.8 756.229   9
  -4   3   1 38785.9 755.645   9
   4  -3  -2 3110.26 215.955   1
  -4   3   2 3322.37 257.268   9
  -4   3   2 2923.01 195.966   8
  -4   3   3 154978. 1299.90   8
  -4  -3  -3 158612. 1408.83   3
   4  -3  -3 158192. 1449.58   1
  -4   3   3 158478. 1662.19   9
   4   3  -3 157385. 1458.22  20
  -4  -3  -4 641.211 132.520   3
   4   3  -4 706.522 175.463  20
   4   3  -5 1786.92 174.347   1
  -4  -3  -5 1561.76 178.379   3
   4   3  -5 2153.00 246.715  20
   4   3  -6 2626.09 268.998  20
  -4  -3  -6 2988.46 250.717   3
   4   3  -7 39974.8 983.873  20
  -4  -3  -7 41227.9 827.038   3
   4   3  -8 1743.22 282.430  20
   4   3  -9 11657.6 619.130  20
   4  -3  -9 10483.0 512.173   2
   4  -3 -10 13217.3 609.765   2
   4   3 -10 14621.4 740.774  20
   4  -3 -11 1424.20 249.221   2
   4   3 -11 1097.70 271.449  20
   4   3 -12 48.5126 207.321  20
   4  -3 -12-138.976 196.533  20
   4   3 -13 3808.87 489.780  20
   4  -3 -13 4001.49 473.390  20
  -4   3 -14-354.452 252.280   7
   4  -3 -14-279.738 305.718   5
  -4   3 -14-8.43427 255.694  15
  -4   3 -14-69.4196 214.600  11
   4  -3 -14-104.218 221.711  11
  -4  -3 -14-361.375 279.793  11
  -4   3 -15 1011.27 283.732  11
  -4   3 -15 774.403 276.775   7
   4  -3 -15 670.297 290.466   5
  -4   3 -15 898.828 294.430  15
  -4  -3 -15 1029.32 282.953  11
   4  -3 -15 890.394 247.534  11
   4  -3 -16 318.034 279.621   5
  -4  -3 -16 348.912 241.394  11
  -4   3 -16 188.587 222.608  15
   4  -3 -16 142.812 211.495  11
  -4   3 -16 61.1842 216.665  11
   4  -3 -17 1987.80 375.526   5
  -4   3 -17 2049.56 329.495  15
  -4  -3 -17 1906.33 313.262  11
   4  -3 -17 2570.41 325.932  11
   4  -3 -18-158.158 248.915   5
   4  -3 -18-37.9402 192.359  11
  -4  -3 -18 171.270 212.379  11
  -4   3 -18 147.571 201.396  15
  -4  -3 -19 535.845 192.020  11
   4  -3 -19 194.604 190.080  11
   4  -3 -19 462.049 242.369   5
  -4  -3 -20-188.375 147.839  11
   4  -4   0 157151. 1310.04   1
  -4   4   0 154645. 1485.06   8
  -4   4   0 158009. 1575.51   9
  -4   4  -1 104823. 1288.59   9
  -4   4   1 103542. 1317.58   9
  -4   4   1 104924. 1212.06   8
  -4   4  -1 103250. 1237.69   8
   4   4  -2 81926.7 1074.74  20
  -4   4  -2 81118.5 1002.24  20
  -4   4   2 83896.3 1187.88   9
  -4   4   2 85530.6 1085.01   8
  -4   4  -2 82955.0 1118.10   8
  -4   4   3 88791.0 1276.08   9
  -4   4   3 90248.7 1108.49   8
  -4   4  -3 86695.2 1074.29  20
   4   4  -3 86037.7 1188.14  20
   4   4  -4 25990.0 706.560  20
  -4  -4  -4 25385.1 628.915   3
  -4   4  -4 25894.3 625.189  20
  -4   4   4 25464.8 606.788   8
  -4  -4  -5 7048.11 343.356   3
   4   4  -5 7233.81 403.736  20
  -4  -4  -6 14101.1 495.004   3
   4   4  -6 14687.6 592.619  20
   4   4  -7 32687.5 926.294  20
   4   4  -8 11108.0 575.171  20
   4  -4  -8 10273.7 498.125   2
   4  -4  -9 22195.9 739.358   2
   4   4  -9 21704.1 835.099  20
   4  -4 -10 255.240 177.891   2
   4   4 -10 398.115 227.455  20
   4  -4 -11 632.954 216.684   2
   4   4 -11 900.671 276.601  20
   4  -4 -12 96.1187 174.554   2
   4   4 -12 242.951 220.613  20
   4   4 -13 700.984 266.596  20
  -4   4 -13 648.519 225.098   7
   4  -4 -13 1032.13 288.537   5
  -4  -4 -13 440.437 217.658  11
   4  -4 -13 1062.64 224.930  11
   4  -4 -13 418.598 222.371  20
  -4   4 -13 877.653 230.789  15
   4  -4 -14 24.7231 284.935   5
  -4  -4 -14-114.205 245.124  11
   4  -4 -14 180.486 220.976  11
  -4   4 -14-173.418 236.399   7
  -4   4 -14 397.789 263.883  15
  -4   4 -15 2379.15 366.703   7
   4  -4 -15 2315.62 397.956   5
  -4   4 -15 2084.31 356.828  15
   4  -4 -15 2250.49 320.236  11
  -4  -4 -15 2725.21 369.450  11
  -4  -4 -16 995.999 273.053  11
   4  -4 -16 785.020 246.893  11
   4  -4 -16 801.067 315.201   5
  -4   4 -16 1458.06 310.760   7
  -4   4 -16 1025.47 267.075  15
  -4   4 -17 2055.60 323.722  15
   4  -4 -17 1462.72 341.123   5
   4  -4 -17 1875.49 302.969  11
  -4  -4 -17 1770.57 314.585  11
  -4   4 -18 777.659 251.634  15
  -4  -4 -18 923.938 249.541  11
   4  -4 -18 671.800 242.750  11
   4  -4 -18 1066.85 303.509   5
   4  -4 -19 306.562 186.010  11
  -4  -4 -19 53.8402 168.956  11
  -4   5   0 20117.9 596.420   9
  -4   5   0 20711.9 592.768   8
  -4   5   1 274.754 128.676   9
  -4   5  -1-24.0360 125.736   9
  -4   5  -1 40.1558 122.514   8
  -4   5   1 169.063 146.075   8
   4   5  -2 29146.0 712.276  20
  -4   5  -2 29883.1 734.335   8
  -4   5   2 29148.1 744.759   9
  -4   5   2 29086.0 703.240   8
  -4   5  -2 29478.8 674.431  20
   4   5  -3 18805.0 598.192  20
  -4   5  -3 19663.0 571.926  20
  -4   5   3 18196.8 612.944   9
  -4   5   3 18549.4 574.494   8
  -4   5  -3 18822.6 613.124   8
   4   5  -4 8902.26 444.138  20
  -4   5  -4 9135.64 408.408  20
  -4   5   4 8537.10 443.444   9
  -4   5   4 8650.82 397.425   8
  -4   5  -5 5658.89 343.114  20
   4   5  -5 5663.80 393.014  20
  -4  -5  -5 5328.29 323.581   3
   4   5  -6 49469.4 1130.94  20
   4  -5  -6 48418.4 977.904   2
  -4  -5  -6 47377.9 944.542   3
   4   5  -7 2515.82 307.694  20
   4  -5  -7 2376.38 264.769   2
   4   5  -8 157.266 182.222  20
   4  -5  -8 1.28322 149.627   2
   4   5  -9-48.2063 176.964  20
   4  -5  -9-51.7265 146.071   2
   4  -5 -10 36811.7 1044.12   2
   4   5 -10 37580.5 1172.89  20
   4  -5 -11 386.242 207.257   2
   4   5 -11 211.432 203.903  20
   4  -5 -12 4467.36 439.383   2
   4   5 -12 5113.29 535.578  20
  -4   5 -13 1198.56 303.288   7
  -4  -5 -13 445.862 240.417  11
   4  -5 -13 350.317 204.554  11
  -4   5 -13 1162.58 307.662  15
   4  -5 -13 773.877 295.872   5
   4  -5 -14 680.281 305.703   5
  -4   5 -14 1259.79 298.836  15
  -4  -5 -14 600.393 255.207  11
   4  -5 -14 725.954 240.677  11
  -4   5 -14 379.706 262.645   7
   4  -5 -15 115.440 284.493   5
   4  -5 -15-375.207 231.849  11
  -4   5 -15 522.223 290.547  15
  -4   5 -15 780.407 297.906   7
  -4  -5 -15 633.582 273.650  11
  -4  -5 -16 562.324 249.028  11
  -4   5 -16 379.822 238.089   7
  -4   5 -16 469.942 248.034  15
   4  -5 -16 462.260 221.384  11
   4  -5 -16 493.851 296.744   5
  -4   5 -17 202.740 211.530   7
  -4   5 -17 124.627 207.845  15
   4  -5 -17 42.0134 230.754   5
  -4  -5 -17-72.2824 206.542  11
   4  -5 -17 23.8156 182.480  11
  -4  -5 -18 424.018 230.766  11
   4  -5 -18 570.067 216.996  11
  -4   5 -18 572.237 221.603  15
  -4   5 -19-174.339 161.632  15
  -4  -5 -19 15.8148 153.674  11
  -4   6   0 185502. 1883.91   9
  -4   6   0 188324. 1928.74   8
  -4   6  -1 830.504 182.011   8
   4  -6  -1 1233.97 192.322   2
  -4   6   1 890.590 178.938   9
  -4   6   1 1462.53 240.319   8
  -4   6   2 82558.9 1254.30   8
   4   6  -2 81263.2 1274.38  20
  -4   6  -2 80547.4 1221.31  20
  -4   6  -2 82083.4 1289.95   8
   4  -6  -2 79253.6 1120.13   2
  -4   6   2 80682.7 1266.77   9
   4  -6  -3 5756.36 346.138   2
   4   6  -3 6188.83 391.660  20
  -4   6   3 5708.59 377.132   9
  -4   6  -3 6126.92 367.289  20
  -4   6  -3 6454.02 389.902   8
  -4   6   3 6240.75 375.597   8
   4  -6  -4 2834.02 252.210   2
  -4   6  -4 2704.62 266.921  20
  -4   6   4 2292.57 271.808   9
  -4   6  -4 3010.10 285.241   8
   4   6  -4 2533.24 269.090  20
  -4   6   4 2712.20 261.461   8
  -4   6  -5 721.388 179.986  20
  -4   6   5 864.333 196.000   9
  -4  -6  -5 863.671 169.701   3
   4   6  -5 1286.28 251.924  20
  -4   6   5 960.755 193.408   8
   4  -6  -5 617.567 172.049   2
  -4  -6  -6 39257.5 898.358   3
  -4   6  -6 40311.6 974.359  20
   4  -6  -6 38229.9 929.296   2
   4   6  -6 40681.5 1078.17  20
   4  -6  -7 93.0060 141.385   2
   4   6  -7 251.244 185.259  20
   4   6  -8 26643.1 955.762  20
   4  -6  -8 26705.9 844.311   2
   4   6  -9 3196.15 397.720  20
   4  -6  -9 3403.07 347.222   2
   4  -6 -10 12355.2 644.915   2
   4   6 -10 11641.4 696.129  20
   4   6 -11 104.327 213.968  20
   4  -6 -11 344.574 210.638   2
   4  -6 -12 129.201 255.237   5
  -4   6 -12 287.440 215.984   7
   4  -6 -12 200.661 210.029   2
   4  -6 -12 239.932 224.729   4
   4  -6 -12 236.160 214.557  11
   4   6 -12-95.8066 212.814  20
  -4   6 -13 157.054 235.352   7
   4  -6 -13 414.387 269.998   5
   4  -6 -13-72.9747 233.095  11
  -4   6 -13 110.301 245.014  15
   4  -6 -14 1063.56 333.050   5
  -4  -6 -14 983.000 280.876  11
   4  -6 -14 1401.82 285.053  11
  -4   6 -14 1285.11 303.476  15
  -4   6 -14 1114.92 311.287   7
  -4   6 -15 190.444 240.355   7
  -4   6 -15 864.577 309.548  15
  -4  -6 -15 539.168 255.599  11
   4  -6 -15 183.011 207.460  11
   4  -6 -15 633.384 321.463   5
  -4   6 -16 1484.56 327.717   7
   4  -6 -16 1894.06 376.811   5
  -4  -6 -16 2000.93 310.747  11
   4  -6 -16 2159.00 311.550  11
  -4   6 -16 2271.01 334.066  15
  -4   6 -17 71.9068 190.519   7
  -4  -6 -17 461.226 226.353  11
   4  -6 -17 322.785 199.731  11
  -4   6 -17 229.890 204.631  15
  -4   6 -18 581.649 215.130  15
  -4  -6 -18 834.257 225.497  11
   4  -6 -18 783.477 213.977  11
  -4   6 -18 805.328 216.561   7
  -4  -6 -19 167.791 168.088  11
   4  -6 -19 87.1452 135.754  11
  -4   6 -19 109.231 144.902  15
  -4   7   0 1650.72 227.132   8
  -4   7  -1 29626.2 822.928   8
  -4   7   1 29317.3 817.458   8
   4   7  -2 2807.25 290.017  20
  -4   7  -2 2703.90 264.227  20
   4  -7  -2 2447.68 225.811   2
  -4   7  -2 2920.55 296.470   8
  -4   7   2 2601.02 270.293   8
   4  -7  -3 66030.5 1126.31   2
   4   7  -3 66848.0 1274.43  20
  -4   7  -3 68836.1 1247.24  20
  -4   7  -3 68121.0 1263.29   8
  -4   7   3 67855.0 1246.77   8
   4  -7  -4 1457.13 212.047   2
  -4   7  -4 1424.56 231.501   8
  -4   7  -4 1299.33 228.873  20
   4   7  -4 1503.79 240.647  20
  -4   7   4 1582.40 230.359   8
   4   7  -5 2622.53 318.943  20
  -4   7  -5 2278.51 273.244  20
  -4   7   5 2142.66 276.842   8
   4  -7  -5 1807.71 237.316   2
   4   7  -6 632.847 196.666  20
   4  -7  -6 840.614 191.399   2
  -4   7  -6 644.645 183.452  20
   4  -7  -7 19552.4 753.869   2
   4   7  -7 21410.3 855.190  20
   4   7  -8 3611.22 415.497  20
   4  -7  -8 3531.64 360.163   2
   4   7  -9 13204.1 750.514  20
   4  -7  -9 13264.8 655.305   2
   4  -7 -10-40.9384 177.712   2
   4   7 -10-260.707 220.410  20
   4   7 -11 1540.71 324.589  20
   4  -7 -11 1504.31 286.481   2
  -4   7 -12 22.4917 224.522   7
   4  -7 -12-323.905 242.134  11
   4  -7 -12 177.806 288.866   5
   4  -7 -13 4815.06 517.789   5
   4  -7 -13 3880.13 394.640  11
  -4   7 -13 3811.12 429.999  15
  -4   7 -13 4104.23 443.338   7
  -4   7 -14 151.425 240.641   7
   4  -7 -14 82.8844 207.063  11
   4  -7 -14-29.7725 250.388   5
  -4   7 -14 82.0810 241.421  15
  -4   7 -15-4.71070 211.158   7
   4  -7 -15-77.8797 227.319  11
  -4   7 -15 167.847 224.769  15
  -4   7 -16-33.0453 193.880   7
  -4   7 -16-52.5046 212.830  15
   4  -7 -16 114.542 199.804  11
  -4   7 -17 1084.25 249.185   7
  -4  -7 -17 733.277 219.979  11
   4  -7 -17 518.034 206.721  11
  -4   7 -17 671.511 229.840  15
  -4   7 -18 347.817 178.773   7
  -4  -7 -18 303.335 184.598  11
   4  -7 -18 128.344 146.206  11
  -4   7 -18 271.753 175.528  15
  -4   8   0 16270.4 653.061   8
  -4   8   1 16270.8 664.015   8
  -4   8  -1 15779.3 653.611   8
   4   8  -2 235.080 158.575  20
  -4   8  -2 247.998 156.304   8
  -4   8   2 185.168 144.983   8
   4  -8  -3 20353.2 676.902   2
   4   8  -3 20227.7 769.843  20
  -4   8  -3 20274.2 743.755  20
  -4   8  -3 19273.2 732.750   8
  -4   8   3 19215.9 733.872   8
  -4   8   4 2006.62 267.296   8
   4  -8  -4 1847.83 252.242   2
   4   8  -4 2046.76 292.656  20
  -4   8  -4 1933.46 257.921   8
  -4   8  -4 1963.30 266.636  20
   4  -8  -5 5385.84 396.490   2
   4   8  -5 5396.70 449.147  20
  -4   8  -5 5805.28 435.098  20
  -4   8   5 5411.98 414.090   8
   4  -8  -6 5433.45 419.923   2
   4   8  -6 4974.26 430.976  20
  -4   8  -6 5404.52 431.284  20
  -4   8   6 5015.61 404.407   8
   4  -8  -7 34710.0 1019.31   2
   4   8  -7 34901.9 1144.25  20
  -4   8  -7 34809.9 1058.75  20
   4   8  -8 198.857 212.416  20
   4  -8  -8 374.233 193.849   2
   4  -8  -9 18212.5 794.428   2
   4   8  -9 18636.5 896.528  20
   4   8 -10 220.979 198.982  20
   4  -8 -10 6.49662 180.733   2
  -4   8 -11-100.790 234.409   7
   4   8 -11 43.0717 176.415   7
   4  -8 -11 378.089 219.742  11
  -4   8 -12 626.335 264.293   7
   4   8 -12 647.813 226.893   7
  -4   8 -13 1203.74 310.577   7
   4  -8 -13 1021.15 260.220  11
  -4   8 -13 800.856 277.621  15
  -4   8 -14 537.376 256.304   7
  -4   8 -14 386.834 267.501  15
   4  -8 -14 152.807 211.744  11
  -4   8 -15 1696.51 307.017  15
  -4   8 -15 1606.03 309.295   7
  -4   8 -16 46.0026 204.861   7
  -4   8 -16 304.613 207.814  15
   4  -8 -16 137.793 181.127  11
   4  -8 -17 881.960 210.228  11
  -4   8 -17 359.285 203.519   7
  -4   8 -17 583.690 203.521  15
  -4   8 -18 310.243 164.986   7
   4  -8 -18-18.6324 140.194  11
  -4   8 -18 170.068 140.329  15
  -4   9   0 59510.3 1315.04   8
  -4   9  -1 411.711 181.973   8
  -4   9   1 1186.09 250.052   8
  -4   9   2 1681.49 265.237   8
  -4   9  -2 1957.42 275.666   8
   4   9  -3 3320.62 350.648  20
  -4   9  -3 3291.47 346.477   8
  -4   9   3 3062.95 324.614   8
   4  -9  -4 10232.5 525.647   2
   4   9  -4 10596.6 613.789  20
  -4   9  -4 10707.5 594.079  20
  -4   9  -4 9769.36 562.884   8
  -4   9   4 10150.9 574.305   8
  -4   9   5 112.500 180.317   8
   4  -9  -5 27.1774 157.306   2
   4   9  -5 138.587 185.848  20
  -4   9  -5 283.112 166.476  20
   4  -9  -6 14452.2 669.162   2
   4   9  -6 15298.8 777.431  20
  -4   9  -6 14820.0 717.559  20
  -4   9   6 13917.2 671.483   8
   4   9  -7 1409.83 302.397  20
   4  -9  -7 1231.82 241.129   2
  -4   9  -7 1476.56 287.054  20
   4  -9  -8 988.629 237.601   2
   4   9  -8 985.360 274.074  20
   4   9  -9 137.995 212.193  20
  -4   9 -10 6130.42 477.556   7
   4   9 -10 5243.19 429.698   7
  -4   9 -11 1016.29 273.664   7
   4   9 -11 764.616 239.072   7
  -4   9 -12 2407.24 373.288   7
   4   9 -12 2289.80 322.425   7
   4  -9 -12 2156.61 300.734  11
  -4   9 -13 225.353 233.520   7
   4   9 -13 75.4356 184.334   7
  -4   9 -13-93.1472 226.242  15
   4  -9 -13-239.483 224.911  11
  -4   9 -14 311.496 235.694   7
   4  -9 -14-330.896 232.632  11
  -4   9 -14-123.867 208.717  15
   4  -9 -15 720.053 223.124  11
  -4   9 -15 781.695 247.813   7
  -4   9 -15 314.839 205.490  15
  -4   9 -16 1638.18 287.349   7
  -4   9 -16 1745.71 276.626  15
   4  -9 -16 1305.29 268.079  11
  -4   9 -17 139.659 161.154  15
   4  -9 -17 78.8376 156.445  11
  -4   9 -17 93.9009 156.414   7
  -4  10   0 2435.55 323.130   8
  -4  10  -1 4269.56 402.922   8
  -4  10   1 4403.24 400.186   8
  -4  10  -2 3350.16 365.174   8
  -4  10   2 3281.40 364.296   8
  -4  10  -3 3137.35 350.237   8
  -4  10   3 3184.72 346.941   8
  -4  10   4-1.97459 170.801   8
   4  10  -4 216.722 185.644  20
  -4  10  -4 252.579 168.519   8
   4  10  -5 238.752 210.783  20
  -4  10   5 168.997 169.229   8
  -4  10  -5 220.808 182.960  20
  -4  10  -6 2736.89 351.781  20
   4  10  -6 2603.71 369.442  20
  -4  10   6 2608.91 332.787   8
   4  10  -7 5311.06 504.910  20
  -4  10  -7 4922.56 465.549  20
   4  10  -8 4162.49 361.625   7
   4  10  -8 4851.46 484.814  12
   4  10  -8 4367.08 501.045  20
  -4  10  -8 5336.43 419.865   7
  -4  10  -9 2326.12 321.005   7
   4  10  -9 1785.60 295.745   7
   4  10  -9 1753.04 349.208  12
   4  10 -10 5621.73 458.867   7
  -4  10 -10 5524.04 465.372   7
  -4  10 -11 301.950 227.130   7
   4  10 -11 155.345 199.743   7
  -4  10 -12 674.980 262.635   7
   4  10 -12 367.950 222.376   7
  -4  10 -13 690.981 254.908   7
   4  10 -13 865.178 237.171   7
  -4  10 -13 783.634 265.544  15
  -4  10 -14 899.563 265.071   7
   4  10 -14 603.087 218.442   7
  -4  10 -14 853.186 256.467  15
  -4  10 -15 647.989 218.174  15
  -4  10 -15 303.941 202.894   7
  -4  10 -16 296.678 172.652  15
  -4  10 -16 402.414 186.129   7
  -4  11   0 5919.41 493.072   8
  -4  11  -1 8260.63 563.884   8
  -4  11   1 7982.29 567.846   8
  -4  11  -2 21.6311 165.160   8
  -4  11   2-141.154 199.702   8
  -4  11   3 21159.5 913.052   8
  -4  11  -3 20884.1 880.254   8
  -4  11  -4 3052.28 371.770   8
  -4  11   4 2929.01 387.403   8
   4  11  -5 983.658 282.081  20
  -4  11   5 151.118 193.997   8
   4  11  -6 1681.83 323.462  12
   4  11  -6 1260.54 205.049   7
   4  11  -6 1427.51 313.330  20
  -4  11  -6 1451.93 294.539  20
  -4  11   6 886.672 214.939   8
   4  11  -7 5773.95 538.638  12
   4  11  -7 3800.51 351.780   7
   4  11  -8 37.2009 238.444  12
   4  11  -8 61.0958 190.999   7
  -4  11  -8 627.631 226.915   7
   4  11  -9 631.565 236.750   7
  -4  11  -9 561.507 239.487   7
   4  11  -9 132.882 231.850  12
  -4  11 -10 1274.13 294.336   7
   4  11 -10 1882.56 315.533   7
  -4  11 -11-134.971 207.404   7
   4  11 -11-422.004 230.038   7
  -4  11 -12 439.709 239.058   7
   4  11 -12 281.890 201.928   7
  -4  11 -12-39.1617 212.608  15
  -4  11 -13 1175.54 296.969   7
  -4  11  13 1264.14 316.940   6
  -4  11 -13 1692.30 292.167  15
   4  11 -13 611.456 230.153   7
  -4  11 -14-2.68131 183.342   7
   4  11 -14 38.4003 158.887   7
  -4  11  14 440.452 258.354   6
  -4  11 -14 275.687 207.467  15
  -4  11 -15 223.130 175.801   7
   4  11 -15-100.479 153.298   7
  -4  11 -15 54.5048 173.419  15
  -4  11 -16 70.1410 138.516   7
  -4  11 -16 6.37751 142.939  15
  -4  12   0 10831.5 680.769   8
  -4  12  -1 2734.35 363.851   8
  -4  12   1 2177.23 339.000   8
   4  12  -2 4148.55 472.112   6
   4  12   2 3762.59 430.173   6
  -4  12  -2 3860.33 425.896   8
  -4  12   2 3310.36 408.001   8
  -4  12   3-63.3772 242.774   6
   4  12  -3 86.5683 217.020   6
   4  12  -3 12.2867 219.147  12
  -4  12   3-293.311 230.891   8
   4  12   3 69.6261 211.787   6
  -4  12  -3-139.402 188.125   8
   4  12  -4 494.251 272.505  12
   4  12  -4 454.797 155.968   7
   4  12  -4 346.234 262.337   6
  -4  12   4 558.803 341.646   6
   4  12   4 556.867 293.475   6
   4  12   5 1683.52 366.270   6
   4  12  -5 1654.69 318.487  12
   4  12  -5 1091.29 215.033   7
  -4  12   5 1972.83 411.955   6
   4  12  -6 1446.55 324.148  12
   4  12  -6 900.199 209.273   7
  -4  12   6 1872.13 398.402   6
   4  12   6 1731.26 387.590   6
  -4  12   7 659.056 285.909   6
   4  12  -7 822.935 305.275  12
   4  12  -7 615.305 216.359   7
   4  12   7 1419.23 355.309   6
   4  12  -8 4454.62 490.601  12
  -4  12   8 5573.23 593.575   6
   4  12  -8 5482.77 441.522   7
  -4  12  -9-179.362 219.311   7
   4  12  -9 255.782 215.107   7
  -4  12   9 42.9471 260.393   6
  -4  12 -10 1125.37 261.549   7
  -4  12  10 1043.13 352.684   6
   4  12 -10 1336.31 273.606   7
  -4  12 -11 456.170 223.336   7
   4  12 -11-19.8508 184.709   7
  -4  12  11 4.55066 268.090   6
  -4  12 -12 463.756 218.792   7
  -4  12  12 542.345 274.495   6
   4  12 -12 140.029 178.228   7
   4  12 -13-101.862 163.382   7
  -4  12 -13 99.4380 184.598   7
  -4  12  13 196.088 229.094   6
  -4  12 -13-43.1389 187.264  15
  -4  12 -14 1322.95 241.333   7
  -4  12 -14 1073.72 219.458  15
   4  12 -14 977.905 210.331   7
  -4  12  14 721.629 233.048   6
  -4  12 -15 101.163 148.449   7
   4  13   0 3471.99 483.575   6
   4  13  -1 502.911 322.077   6
   4  13   1 263.032 249.001   6
   4  13   2 456.547 249.588   6
   4  13  -2 477.273 253.796  12
   4  13  -2 872.918 186.042   7
   4  13  -2 774.458 351.399   6
   4  13  -3 5110.68 529.068  12
   4  13  -3 5536.54 565.890   6
   4  13   3 4679.50 486.993   6
  -4  13   3 5189.85 627.676   6
   4  13  -3 3599.55 296.489   7
   4  13  -4 552.277 171.968   7
   4  13  -4 1266.94 341.221   6
   4  13  -4 1632.69 339.495  12
   4  13   4 735.985 303.214   6
  -4  13   4 1179.52 388.290   6
   4  13  -5 486.122 242.174  12
   4  13  -5-8.48416 187.111   7
   4  13   5 204.158 284.998   6
  -4  13   5 529.023 286.069   6
   4  13  -6 1649.82 260.712   7
   4  13  -6 2109.00 370.885  12
   4  13   6 2144.75 422.508   6
  -4  13   6 2407.76 418.652   6
   4  13  -7 721.627 270.466   7
   4  13   7 1082.09 354.402   6
   4  13  -7 1051.02 291.452  12
  -4  13   7 1781.64 406.538   6
   4  13  -8-139.394 196.852   7
   4  13  -8-127.030 207.242  12
  -4  13   8 190.155 266.156   6
   4  13  -9-112.543 192.826   7
  -4  13   9 62.4595 255.525   6
  -4  13 -10 1948.33 305.116   7
   4  13 -10 2111.62 317.950   7
  -4  13  10 2107.44 394.389   6
  -4  13 -11 37.4210 174.594   7
  -4  13  11 83.5033 224.570   6
   4  13 -11-106.376 174.629   7
  -4  13 -12 34.2152 168.470   7
   4  13 -12-39.7927 160.583   7
  -4  13  12-136.871 231.156   6
  -4  13 -13 460.942 190.910   7
   4  13 -13 559.610 178.885   7
  -4  13  13 538.475 223.730   6
  -4  13 -14 9.41321 134.114   7
   4  13 -14-107.635 139.301   7
   4  14   0 1299.17 361.873   6
   4  14  -1 5896.56 589.053  12
   4  14  -1 6097.38 593.249   6
   4  14   1 5683.11 560.664   6
   4  14   2 47.0222 244.455   6
   4  14  -2 212.710 258.933  12
   4  14  -2 242.708 295.656   6
   4  14  -3 912.368 341.445   6
   4  14  -3 1069.63 315.048  12
   4  14  -3 356.453 158.709   7
   4  14   3 994.966 322.450   6
  -4  14   3 1128.10 343.755   6
   4  14  -4 637.886 300.113  12
   4  14  -4 43.9022 180.288   7
   4  14   4 579.603 286.582   6
  -4  14   4 714.896 313.874   6
   4  14  -5 1413.15 301.634  12
   4  14  -5 421.649 195.862   7
  -4  14   5 1757.46 382.476   6
   4  14   5 1479.46 326.720   6
   4  14  -6 248.164 205.622  12
   4  14  -6 95.8291 184.293   7
   4  14   6-115.725 254.823   6
  -4  14   6-58.8811 252.110   6
   4  14  -7 1694.87 317.135  12
   4  14  -7 2127.20 304.824   7
   4  14   7 2209.29 400.615   6
  -4  14   7 2067.47 407.391   6
   4  14  -8 517.413 216.967  12
   4  14  -8 163.814 188.331   7
   4  14   8-49.3274 262.849   6
  -4  14   8 286.146 264.954   6
   4  14  -9 1453.35 264.487   7
  -4  14   9 1422.74 331.122   6
   4  14 -10 265.233 173.759   7
  -4  14  10-52.2917 233.324   6
  -4  14 -11-19.6960 156.273   7
   4  14 -11 330.264 169.424   7
  -4  14  11-2.06112 227.147   6
  -4  14 -12-150.696 159.889   7
  -4  14  12-205.581 199.556   6
   4  14 -12 63.9626 136.653   7
   4  15   0 3647.96 487.189  12
   4  15   0 4294.74 525.216   6
   4  15  -1 115.557 252.534  12
   4  15  -1 743.156 295.604   6
   4  15   1 775.231 311.826   6
   4  15  -2-150.401 267.332  12
   4  15  -2 42.0959 231.593   6
   4  15   2-7.44165 253.223   6
   4  15  -3 1050.04 311.825  12
   4  15  -3 228.674 160.044   7
   4  15  -3 899.229 333.543   6
  -4  15   3 592.792 282.879   6
   4  15   3 446.800 271.720   6
   4  15  -4 52.2788 159.544   7
   4  15  -4 367.693 240.396  12
  -4  15   4 279.496 273.573   6
   4  15   4 266.650 259.609   6
   4  15  -5 456.622 250.231  12
   4  15   5-83.3415 244.524   6
  -4  15   5 67.7920 234.249   6
   4  15  -5 181.601 195.993   7
   4  15  -6 1575.13 304.015  12
   4  15  -6 1946.30 275.948   7
   4  15   6 1474.71 341.437   6
  -4  15   6 1372.62 327.631   6
   4  15  -7 355.548 217.364  12
   4  15  -7 459.138 193.798   7
  -4  15   7 483.108 275.879   6
   4  15   7 284.202 250.550   6
  -4  15   8 156.338 229.180   6
   4  15  -8-34.6717 146.023   7
   4  15   8-65.9033 228.508   6
   4  15  -9 267.471 165.253   7
  -4  15   9 343.330 241.392   6
   4  15 -10 1381.89 228.080   7
  -4  15  10 1107.47 285.790   6
   4  15 -11 261.769 143.166   7
  -4  15  11 262.076 195.484   6
   4  16   0 3343.27 461.607  12
   4  16   0 3733.80 473.519   6
   4  16  -1 1494.20 340.341  12
   4  16   1 1773.14 355.745  12
   4  16  -1 2161.56 389.419   6
   4  16   1 1564.30 349.047   6
   4  16  -2 688.491 274.352  12
   4  16  -2 1054.32 332.302   6
   4  16   2 849.156 290.481   6
   4  16  -3-32.5530 208.032  12
  -4  16   3 327.014 257.075   6
   4  16   3 92.2502 209.897   6
   4  16  -4 234.645 218.055  12
   4  16   4 235.495 232.705   6
  -4  16   4 541.110 264.426   6
   4  16  -5 268.451 170.727   7
   4  16   5 401.516 230.146   6
  -4  16   5 311.992 246.300   6
   4  16  -5 347.922 220.765  12
   4  16  -6 577.760 229.488  12
   4  16   6 918.562 275.987   6
  -4  16   6 770.287 257.830   6
   4  16  -6 738.672 191.160   7
   4  16  -7 755.688 189.898   7
   4  16   7 395.706 226.011   6
  -4  16   7 745.579 251.914   6
   4  16  -8 608.320 171.313   7
   4  16   8 661.335 225.463   6
  -4  16   8 894.559 253.143   6
   4  16  -9 85.2960 130.166   7
  -4  16   9-135.431 168.473   6
   4  17   0-148.432 214.633  12
   4  17   0 162.654 233.419   6
   4  17  -1 581.538 252.085  12
   4  17   1 508.682 235.244  12
   4  17   1 410.201 226.513   6
   4  17  -2 418.885 222.302  12
   4  17   2-130.298 210.151  12
   4  17   2-72.2285 194.198   6
   4  17  -3 950.617 276.007  12
   4  17   3 1082.33 264.141  12
   4  17   3 559.371 221.280   6
   4  17  -4 308.504 190.382  12
   4  17   4-123.183 194.728  12
   4  17   4-141.948 193.657   6
  -4  17   4 437.523 211.159   6
   4  17  -5-51.9270 176.741  12
   4  17   5-95.4272 181.516   6
  -4  17   5 201.499 202.331   6
   4  17  -6 222.674 135.175   7
   4  17   6-55.8144 168.449   6
  -4  17   6 407.634 214.101   6
   4  18   0 235.512 185.774  12
   4  18  -1 286.904 179.961  12
   4  18   1 97.9159 161.738  12
   4  18   2 296.833 178.077  12
  -5   0   0 30.7793 92.7141   3
   5   0   0 28.1171 184.515  10
  -5   0   0 80.8974 117.213   9
   5   0  -1 53.4296 198.794  10
  -5   0   1-13.2362 128.978   9
  -5   0  -1-0.03068 97.5125   3
  -5   0  -1 18.9280 130.489   9
   5   0  -2 7372.33 315.802   1
  -5   0   2 7198.76 592.679  10
   5   0  -2 7586.60 646.838  10
  -5   0   2 7475.61 351.402   9
   5   0  -3 138.329 108.594   1
  -5   0   3 199.148 150.901   9
  -5   0   3 97.5556 171.316  10
  -5   0   4 72535.7 1926.71  10
   5   0  -4 74319.0 1055.93   1
   5   0  -5-30.9056 110.092   1
   5   0  -5 15.3201 126.925  20
   5   0  -6 61353.8 1034.05   1
   5   0  -6 58808.5 1072.56  20
   5   0  -7 116.486 114.039   1
   5   0  -7-22.3232 152.845  20
   5   0  -8 983.244 211.978  20
   5   0  -9-9.72894 174.223  20
   5   0 -10 347.634 239.336  20
   5   0 -11-211.855 265.399  20
   5   0 -12 826.729 274.749  20
   5   0 -13 303.428 262.376  20
   5   0 -14 1362.20 375.836   5
  -5   0 -14 1169.10 309.356  11
  -5   0 -14 1239.22 297.265  15
   5   0 -15-247.029 317.383   5
  -5   0 -15-113.375 239.854  11
   5   0 -16 392.576 290.960   5
  -5   0 -16 439.759 248.054  11
  -5   0 -17-45.2523 217.608  11
   5   0 -17 113.184 255.816   5
   5   0 -18-21.1613 234.766   5
  -5   0 -18 585.655 242.408  11
  -5   0 -19-99.9166 174.981  11
   5   0 -19-36.0439 198.003   5
  -5  -1   0 66.0042 92.1130   3
  -5  -1   0 29.0095 118.495   9
   5   1   0 96.0980 170.481  10
  -5   1   0 99.8903 124.574   9
   5  -1   0 57.9664 90.9230   1
   5  -1  -1 72812.8 914.588   1
   5   1  -1 74439.5 1901.55  10
  -5   1  -1 72908.7 1069.37   9
  -5  -1   1 72348.8 978.485   9
  -5   1   1 73101.4 1058.74   9
  -5  -1  -1 73010.2 920.464   3
  -5  -1   1 72348.2 864.483   3
  -5  -1  -2 949.001 143.009   3
   5   1  -2 896.872 255.048  10
  -5  -1   2 986.918 160.734   9
  -5   1   2 975.868 168.427   9
   5  -1  -2 998.098 134.047   1
   5   1  -3 17686.1 502.365   1
  -5  -1   3 18233.7 551.010   9
  -5   1   3 17577.4 575.179   9
   5  -1  -3 17759.1 505.893   1
  -5  -1  -3 17658.8 487.319   3
   5   1  -4 300027. 2060.62  20
   5  -1  -4 299521. 2111.28   1
  -5  -1  -4 300502. 2076.21   3
   5   1  -4 301672. 2084.51   1
   5   1  -5 47.0285 106.023   1
   5   1  -5 165.806 136.004  20
   5  -1  -5 72.2081 110.529   1
   5  -1  -6 48339.4 956.618   1
   5   1  -6 49902.2 927.845   1
   5   1  -6 47261.0 973.128  20
   5   1  -7 29618.8 838.110  20
   5   1  -7 29608.1 755.128   1
   5   1  -8 21218.9 675.602   1
   5   1  -8 23400.4 804.644  20
   5  -1  -8 23884.4 833.031  20
   5  -1  -9-66.2604 179.287  20
   5   1  -9 229.601 204.935  20
   5  -1 -10 3953.98 435.909  20
   5   1 -10 3964.46 414.821  20
   5   1 -11 27504.2 1070.49  20
   5  -1 -11 27411.0 1099.54  20
   5   1 -12 2002.07 368.266  20
   5  -1 -12 1841.16 389.275  20
   5   1 -13 64.7979 217.171  20
   5  -1 -13 140.016 222.231  20
  -5   1 -14 12149.3 627.948  15
  -5   1 -14 12357.8 642.183  11
   5  -1 -14 12581.6 582.198  11
  -5  -1 -14 12627.3 655.488  11
  -5   1 -14 11435.6 634.351   7
   5  -1 -14 13289.9 801.814   5
  -5   1 -15 1575.90 290.065  15
   5  -1 -15 1949.91 420.547   5
  -5   1 -15 1748.21 319.924  11
  -5  -1 -15 1548.58 307.104  11
   5  -1 -15 1206.28 276.284  11
   5   1 -15 1379.38 378.044   5
  -5   1 -16 109.357 207.204  15
   5  -1 -16-284.678 303.979   5
  -5   1 -16 93.6477 224.971  11
  -5  -1 -16 28.1578 224.634  11
   5  -1 -16-76.4796 216.776  11
   5   1 -16 165.057 266.805   5
   5   1 -17-54.2023 268.983   5
   5  -1 -17-109.913 262.473   5
  -5   1 -17 94.9551 212.858  11
  -5  -1 -17 297.594 240.225  11
   5  -1 -17 63.3433 196.257  11
   5   1 -18 2825.22 405.962   5
  -5  -1 -18 2829.73 367.887  11
  -5   1 -18 2352.19 353.372  11
   5  -1 -18 3404.92 415.396   5
   5  -1 -19 57.9929 200.798   5
   5   1 -19 135.241 200.390   5
  -5   1 -19-326.695 177.814  11
  -5  -1 -19-155.158 185.313  11
  -5  -1 -20-71.0581 137.117  11
   5  -2   0 50.6384 85.5238   1
   5   2   0 70.1591 195.396  10
  -5   2   0-182.412 141.467   9
  -5  -2   0 163.777 113.215   3
  -5  -2   1 54024.9 801.713   3
  -5  -2  -1 53682.6 827.780   3
   5   2  -1 52385.9 1566.72  10
  -5   2   1 54248.5 940.497   9
   5  -2  -1 54017.7 797.126   1
  -5   2  -1 53739.5 954.907   9
   5  -2   1 52823.5 738.907   1
  -5  -2  -2 204.818 113.824   3
  -5  -2   2 350.397 118.817   3
  -5  -2   2 266.657 109.281   9
  -5   2   2 347.454 134.887   9
   5  -2  -2 221.366 111.178   1
   5  -2  -3 14275.7 451.558   1
  -5  -2  -3 14363.4 450.370   3
  -5  -2   3 13910.9 466.373   9
  -5   2   3 14535.4 529.143   9
   5   2  -4 24260.3 609.915   1
   5  -2  -4 23587.3 614.285   1
  -5   2   4 25694.9 745.867   9
  -5  -2  -4 23917.1 602.764   3
   5   2  -4 24168.4 625.915  20
   5  -2  -5 12819.5 486.573   1
   5   2  -5 12707.4 463.795   1
   5   2  -5 13170.4 502.009  20
  -5  -2  -5 12299.9 464.499   3
   5   2  -6 9169.37 405.064   1
   5   2  -6 8308.47 430.167  20
   5   2  -7 612.933 149.130   1
   5   2  -7 731.614 213.295  20
   5   2  -8 765.889 216.244  20
   5   2  -9 1580.28 270.917  20
   5  -2 -10 447.573 222.733  20
   5   2 -10 546.698 232.504  20
   5   2 -11 3602.61 428.493  20
   5  -2 -11 3805.13 445.022  20
   5   2 -12 334.753 233.534  20
   5  -2 -12-282.583 249.293  20
   5  -2 -13 572.260 247.288   5
  -5  -2 -13 137.001 195.074  11
   5  -2 -13 292.558 252.523  20
   5   2 -13 292.722 229.348  20
  -5   2 -14 307.251 247.587   7
   5  -2 -14 255.389 300.462   5
  -5   2 -14-140.668 239.447  11
  -5  -2 -14 346.703 248.082  11
   5  -2 -14-16.5532 228.544  11
  -5   2 -14 310.666 247.219  15
   5  -2 -15-231.384 299.751   5
   5   2 -15 63.9387 291.774   5
  -5  -2 -15-167.528 246.996  11
  -5   2 -15-125.566 224.751  11
   5  -2 -15-123.838 225.336  11
  -5   2 -15 88.8628 221.956  15
  -5   2 -15-176.391 224.126   7
   5  -2 -16-276.526 293.744   5
   5   2 -16 125.448 295.133   5
  -5   2 -16-17.5835 218.892  11
   5  -2 -16 0.61539 211.966  11
  -5  -2 -16-158.816 236.176  11
  -5   2 -16 53.2677 212.609  15
   5   2 -17 508.052 300.863   5
  -5   2 -17 436.853 251.986  11
  -5  -2 -17 416.734 244.479  11
   5  -2 -17 671.368 251.218  11
   5  -2 -17 65.4520 272.121   5
  -5   2 -17 174.669 221.477  15
   5  -2 -18 75.6329 227.080   5
   5   2 -18-380.266 250.834   5
  -5  -2 -18 86.7326 201.053  11
  -5   2 -18 575.553 230.057  11
   5  -2 -18 388.170 211.062  11
  -5   2 -19-90.9453 177.422  11
  -5  -2 -19-53.6788 165.357  11
   5  -2 -19 91.3614 165.194  11
   5  -2 -19 20.3591 195.610   5
   5  -3   0 212.037 108.190   1
  -5   3   0-38.5700 141.348   9
  -5   3   0-82.3799 128.442   8
  -5  -3  -1 163198. 1510.26   3
   5  -3  -1 162813. 1426.74   1
  -5   3  -1 161358. 1714.62   9
  -5   3   1 161616. 1692.55   9
  -5   3   1 161920. 1434.97   8
   5  -3   1 160179. 1331.57   1
  -5  -3  -2 83328.3 1092.94   3
  -5   3   2 82890.4 1242.87   9
   5  -3  -2 83463.1 1081.94   1
  -5   3   2 85507.6 1028.15   8
  -5  -3  -3 190589. 1687.33   3
   5  -3  -3 188173. 1698.36   1
  -5   3   3 190410. 1920.11   9
  -5   3   3 188235. 1505.56   8
   5  -3  -4 10230.7 425.369   1
  -5   3   4 10637.2 513.911   9
   5   3  -4 10191.7 438.109  20
  -5  -3  -4 10119.4 413.098   3
  -5  -3  -5 321.159 129.225   3
   5   3  -5 150.679 102.741   1
   5   3  -5 414.421 160.691  20
   5   3  -6 4415.54 333.862  20
  -5  -3  -6 4429.14 296.106   3
   5   3  -7 17155.4 677.494  20
   5   3  -8 19431.4 765.396  20
   5   3  -9-104.738 168.487  20
   5   3 -10 880.917 234.127  20
   5  -3 -10 635.193 189.846   2
   5  -3 -11 77403.5 1509.52   2
   5  -3 -11 81089.5 1825.76  20
   5   3 -11 80593.5 1800.95  20
   5   3 -12 2927.00 412.678  20
   5  -3 -12 2799.19 408.165  20
  -5   3 -13 3288.54 385.741   7
   5  -3 -13 3303.50 437.856   5
  -5  -3 -13 2443.31 336.328  11
  -5   3 -13 2996.29 366.347  15
   5  -3 -13 2477.07 401.878  20
   5   3 -13 2781.66 411.885  20
   5  -3 -13 2428.31 311.799  11
  -5   3 -13 3481.60 369.326  11
  -5   3 -14-10.5631 241.965   7
   5  -3 -14 139.751 265.637   5
  -5   3 -14-202.378 246.737  11
  -5  -3 -14 54.4372 260.702  11
   5  -3 -14 131.099 220.803  11
  -5   3 -14 280.188 246.005  15
  -5   3 -15 275.731 249.673   7
   5  -3 -15 493.384 277.178   5
  -5   3 -15 632.389 252.481  11
  -5  -3 -15 394.614 246.142  11
   5  -3 -15 307.480 238.198  11
  -5   3 -15 106.409 238.634  15
   5  -3 -16-222.214 289.069   5
  -5   3 -16-304.903 235.051  15
  -5   3 -16 132.416 214.030  11
   5   3 -16 52.6817 268.926   5
  -5  -3 -16-293.897 242.976  11
   5  -3 -16-162.898 220.014  11
  -5   3 -16-147.464 219.769   7
  -5   3 -17 580.289 237.503  11
   5  -3 -17 281.735 259.087   5
   5   3 -17 510.165 303.388   5
  -5  -3 -17 103.144 216.679  11
   5  -3 -17 271.010 224.063  11
  -5   3 -17 402.038 244.973  15
   5  -3 -18 118.115 224.860   5
  -5   3 -18 532.110 207.266  11
  -5  -3 -18 416.065 219.316  11
   5  -3 -18 172.743 197.544  11
   5  -3 -19 462.498 187.560  11
  -5  -3 -19 369.458 182.064  11
   5  -3 -19 274.672 219.933   5
   5  -4   0 41.7148 91.0828   1
  -5   4   0-11.7587 131.620   9
  -5   4   0 39.8403 116.584   8
   5  -4  -1 1902.96 190.758   1
  -5   4  -1 1837.81 227.278   9
  -5   4   1 1799.94 231.427   9
  -5   4   1 2010.10 207.612   8
  -5   4  -1 1791.87 201.342   8
   5  -4  -2 683.998 140.891   1
  -5  -4  -2 734.932 129.836   3
  -5   4   2 628.299 163.465   9
  -5   4   2 811.616 153.529   8
  -5   4   3 40.3519 118.303   8
  -5  -4  -3 182.094 126.757   3
  -5   4   3 111.615 138.212   9
  -5  -4  -4 30614.5 731.431   3
   5   4  -4 29904.5 749.726  20
  -5   4   4 30618.6 844.370   9
  -5  -4  -5 298.697 130.881   3
   5   4  -5 58.0707 147.751  20
   5   4  -5 247.823 107.262   1
  -5   4   5 372.491 172.153   9
  -5  -4  -6 76.4094 114.029   3
   5   4  -6 4.97878 162.122  20
  -5  -4  -7 5622.37 358.394   3
   5   4  -7 5744.31 425.867  20
   5   4  -8 12308.0 623.347  20
   5  -4  -9 1564.82 240.418   2
   5   4  -9 1631.47 279.086  20
   5   4 -10 502.274 221.807  20
   5  -4 -10 641.143 198.176   2
   5  -4 -11 68.5182 173.155   2
   5   4 -11 17.0599 192.515  20
   5   4 -12 841.845 277.167  20
   5  -4 -12 1071.93 264.158  20
   5  -4 -12 879.846 243.497   2
  -5   4 -13 168.438 228.244   7
   5  -4 -13-45.8909 292.159   5
  -5  -4 -13-142.594 248.897  11
   5  -4 -13-613.663 255.925  11
  -5   4 -13-184.035 258.627  15
   5  -4 -14 21.0751 269.265   5
  -5  -4 -14-45.4066 250.493  11
  -5   4 -14 232.779 235.661  15
   5  -4 -14-93.9975 208.272  11
  -5   4 -14 101.679 226.174   7
  -5   4 -15 45.8068 226.605   7
   5  -4 -15-86.1497 265.792   5
  -5  -4 -15-39.8862 238.216  11
   5  -4 -15-125.290 209.999  11
  -5   4 -15 205.121 250.142  15
  -5   4 -16 424.128 250.004   7
   5  -4 -16 343.847 261.894   5
  -5   4 -16 96.5473 220.318  15
   5   4 -16 752.611 294.143   5
  -5  -4 -16-151.828 233.908  11
   5  -4 -16 246.854 201.770  11
   5  -4 -17 133.543 229.417   5
  -5   4 -17 559.540 243.296  15
   5   4 -17 50.9602 256.618   5
   5  -4 -17 143.933 201.899  11
  -5  -4 -17 118.405 210.634  11
  -5   4 -17 178.718 216.696   7
  -5  -4 -18 632.799 227.034  11
   5  -4 -18 368.025 205.578  11
  -5   4 -18 281.061 204.490  15
   5  -4 -18 511.254 252.870   5
   5  -4 -19 193.065 158.733  11
  -5  -4 -19 50.3344 156.332  11
  -5   5   0 40.2910 134.575   9
  -5   5   0 101.334 145.056   8
  -5   5  -1 5929.65 375.852   9
  -5   5   1 6167.21 375.400   9
  -5   5  -1 5842.73 355.521   8
  -5   5   1 6352.76 356.903   8
  -5   5  -2 112.486 136.368   8
  -5   5   2-148.708 146.015   9
  -5   5   2 6.58533 142.176   8
  -5  -5  -3 3231.40 266.912   3
  -5   5   3 3026.28 286.587   9
  -5   5   3 3231.67 256.757   8
  -5  -5  -4 246437. 2152.18   3
   5   5  -4 243946. 2236.25  20
  -5   5   4 243078. 2426.71   9
  -5   5   4 245107. 2059.84   8
  -5  -5  -5 30077.1 776.795   3
  -5   5   5 30169.0 911.211   9
   5   5  -5 31073.3 869.191  20
  -5   5   6 52332.1 1264.14   9
   5   5  -6 52500.7 1183.84  20
  -5  -5  -6 51769.5 1037.54   3
  -5  -5  -7 2937.89 277.483   3
   5  -5  -7 2740.17 283.964   2
   5   5  -7 3171.92 357.108  20
   5  -5  -8 36666.0 958.999   2
   5   5  -8 37505.0 1101.79  20
   5   5  -9 1350.67 274.887  20
   5  -5  -9 1412.63 247.733   2
   5   5 -10 4970.10 469.705  20
   5  -5 -10 5204.66 422.532   2
   5  -5 -11 659.182 218.856   2
   5   5 -11 302.380 220.010  20
  -5   5 -12 1069.31 259.739   7
   5  -5 -12 976.756 321.060   5
   5  -5 -12 968.723 263.860   2
   5   5 -12 565.103 241.858  20
  -5   5 -12 734.823 267.729  15
  -5   5 -13 827.139 281.284   7
  -5  -5 -13 252.255 217.672  11
   5  -5 -13 528.723 205.295  11
   5  -5 -13 746.952 345.152   5
  -5   5 -13 473.701 238.882  15
  -5  -5 -14 7329.33 515.089  11
   5  -5 -14 7725.75 489.371  11
  -5   5 -14 6809.41 554.727  15
   5  -5 -14 6819.52 598.183   5
  -5   5 -14 7934.17 596.560   7
   5  -5 -15 54.0666 262.906   5
  -5   5 -15 21.3912 215.407   7
  -5  -5 -15 146.994 228.633  11
  -5   5 -15-122.730 241.176  15
   5  -5 -15 69.7432 205.138  11
  -5   5 -16-211.380 216.269   7
  -5   5 -16 65.1239 214.231  15
  -5  -5 -16 50.1140 216.074  11
   5  -5 -16 333.676 245.404   5
   5  -5 -16-220.026 214.082  11
  -5  -5 -17 490.223 228.529  11
   5  -5 -17 613.367 224.381  11
  -5   5 -17 132.457 206.844   7
  -5   5 -17 320.525 223.609  15
   5  -5 -17 524.183 273.570   5
   5  -5 -18 2879.31 309.716  11
  -5   5 -18 2767.48 306.447  15
  -5  -5 -18 2494.94 330.165  11
  -5   5 -18 1822.61 287.321   7
  -5  -5 -19 209.552 162.210  11
   5  -5 -19-94.1257 141.357  11
  -5   6   0 245.106 151.405   9
  -5   6   0-39.7132 147.400   8
  -5   6  -1 1006.90 194.246   8
  -5   6   1 1026.72 196.059   9
  -5   6   1 854.384 169.493   8
  -5   6   2 510.339 165.076   9
  -5   6  -2 462.220 158.051   8
  -5   6   2 406.527 144.468   8
  -5   6  -3 5278.27 378.544   8
  -5   6   3 4342.59 348.945   9
  -5   6   3 4650.58 329.796   8
  -5  -6  -4 7167.20 409.319   3
  -5   6   4 7163.28 445.118   9
  -5   6   4 7227.54 399.368   8
   5  -6  -5 291.977 140.336   2
  -5  -6  -5 477.908 149.945   3
  -5   6   5 438.121 158.190   9
   5   6  -5 422.700 172.743  20
  -5   6   6 1907.76 289.816   9
  -5  -6  -6 1795.72 229.453   3
   5   6  -6 1953.79 292.563  20
   5  -6  -6 1897.51 244.611   2
   5   6  -7 510.754 219.799  20
  -5   6   7 336.209 194.836   9
   5  -6  -7 535.660 183.238   2
   5   6  -8 1095.75 259.878  20
  -5   6   8 1273.12 285.905   9
   5  -6  -8 1386.96 234.858   2
   5  -6  -9 231.754 164.372   2
   5   6  -9 367.188 203.345  20
   5  -6 -10 195.714 175.860   2
   5   6 -10 555.705 234.927  20
   5   6 -11 1586.65 316.441  20
   5  -6 -11 2049.72 322.059   2
   5  -6 -12 589.835 316.904   5
  -5   6 -12 603.539 275.300   7
   5  -6 -12 414.322 274.750   4
   5  -6 -12 459.616 257.313  11
  -5   6 -12 682.755 268.883  15
   5  -6 -13-260.240 293.571   5
  -5   6 -13 83.3148 237.405   7
   5  -6 -13 10.3730 254.317   4
   5  -6 -13-395.403 231.379  11
  -5   6 -13 19.0568 240.531  15
  -5   6 -14 567.366 283.428   7
  -5   6 -14 384.480 270.099  15
   5  -6 -14 95.3302 279.733   5
   5  -6 -14-50.8924 210.557  11
  -5   6 -15-27.9813 220.366   7
  -5  -6 -15 134.865 214.016  11
   5  -6 -15-126.791 210.185  11
  -5   6 -15 85.4702 218.560  15
   5  -6 -15-70.8915 250.542   5
  -5   6 -16-28.9033 212.383   7
  -5  -6 -16-140.385 221.425  11
   5  -6 -16-821.167 233.375  11
   5  -6 -16-193.329 260.972   5
  -5   6 -16-172.963 215.393  15
  -5  -6 -17-293.944 204.802  11
   5  -6 -17 278.816 194.493  11
  -5   6 -17 409.506 211.549   7
  -5   6 -17 322.467 213.136  15
  -5   6 -18 238.805 166.681  15
  -5  -6 -18 214.830 177.705  11
   5  -6 -18 306.104 166.119  11
  -5   6 -18 192.163 173.475   7
  -5   7   0 133.696 138.973   8
  -5   7  -1 54660.1 1160.94   8
  -5   7   1 53378.1 1136.52   8
   5  -7  -2 13447.4 523.814   2
  -5   7  -2 14348.6 611.029   8
  -5   7   2 13402.1 578.625   8
   5  -7  -3 63433.4 1130.78   2
  -5   7  -3 62890.3 1286.07   8
  -5   7   3 61452.6 1223.67   8
  -5   7   4 10949.9 562.740   9
   5  -7  -4 11991.2 520.755   2
  -5   7   4 11288.2 530.657   8
  -5  -7  -5 96.6810 124.630   3
   5   7  -5 322.623 181.828  20
  -5   7   5 221.506 156.729   9
   5  -7  -5 329.526 145.781   2
  -5  -7  -6-133.557 146.898   3
   5   7  -6 133.868 162.855  20
  -5   7   6 19.9848 143.566   9
   5  -7  -6 158.562 164.587   2
   5  -7  -7 24743.4 839.827   2
  -5   7   7 22570.5 919.171   9
   5   7  -7 24748.9 942.124  20
  -5   7   8 504.182 216.398   9
   5   7  -8 757.374 241.439  20
   5  -7  -8 298.183 176.431   2
  -5   7   9 2521.03 395.260   9
   5  -7  -9 2509.73 334.825   2
   5   7  -9 2846.32 380.732  20
   5   7 -10 2237.22 361.854  20
  -5   7  10 1995.30 361.336   9
   5  -7 -10 1718.91 292.148   2
   5  -7 -11 38102.4 998.629  11
   5  -7 -11 38908.3 1263.44   4
  -5   7 -11 43442.0 1209.00   7
  -5   7 -11 45275.3 1157.09  15
   5  -7 -11 39655.8 1327.76   5
   5  -7 -12 6998.44 617.730   5
   5  -7 -12 6268.51 456.209  11
   5  -7 -12 6131.72 572.297   4
  -5   7 -12 7969.66 580.428   7
  -5   7 -12 7847.30 547.906  15
  -5   7 -13 1291.67 317.679  15
  -5   7 -13 1697.85 345.228   7
   5  -7 -13 1116.47 260.211  11
   5  -7 -13 1329.43 368.710   5
  -5   7 -14 112.008 232.860   7
   5  -7 -14-81.0870 214.744  11
  -5   7 -14 541.624 273.954  15
   5  -7 -14 317.179 273.648   5
   5  -7 -15-226.210 219.233  11
  -5   7 -15 310.062 236.310   7
  -5   7 -15 654.522 255.173  15
  -5   7 -16 341.810 209.967   7
  -5   7 -16 398.963 222.366  15
   5  -7 -16 67.9484 190.663  11
  -5   7 -17 187.466 189.933   7
   5  -7 -17 99.1644 173.413  11
  -5   7 -17 543.906 206.668  15
  -5   7 -18-30.9866 140.607  15
   5  -7 -18-23.0775 140.929  11
  -5   7 -18 138.110 159.388   7
  -5   8   0-256.188 167.376   8
  -5   8  -1 2456.75 307.674   8
  -5   8   1 2197.92 275.862   8
  -5   8   2 1459.48 232.321   8
  -5   8  -2 1649.12 249.588   8
   5  -8  -3 3510.74 315.302   2
  -5   8  -3 3879.80 363.184   8
  -5   8   3 3451.84 330.654   8
  -5   8  -4-137.301 168.999  20
  -5   8   4-330.700 188.912   8
   5  -8  -4 106.238 142.356   2
  -5  -8  -5 45.5127 137.251   3
  -5   8   5-105.988 167.998   8
   5  -8  -5-189.076 164.828   2
  -5  -8  -6 6.22163 142.212   3
   5   8  -6-117.162 167.234  20
   5  -8  -6-2.06162 158.378   2
   5   8  -7 1817.80 312.051  20
   5  -8  -7 1779.96 284.197   2
   5  -8  -8 4310.03 405.749   2
   5   8  -8 3970.56 431.786  20
   5   8  -9-413.153 246.193  20
   5  -8  -9-446.971 233.518   2
  -5   8 -10 618.910 276.282   7
   5   8 -10 452.794 199.101   7
   5  -8 -10 579.217 271.707   4
   5   8 -10 204.967 228.103  20
   5  -8 -10 379.656 286.099   5
  -5   8 -11 2315.87 351.861   7
   5  -8 -11 2658.24 349.614  11
   5  -8 -11 1592.18 352.893   4
   5   8 -11 1736.65 290.260   7
   5  -8 -11 1724.58 395.836   5
  -5   8 -11 1997.50 335.375  15
  -5   8 -12-36.7336 223.661   7
   5  -8 -12-305.932 231.844  11
  -5   8 -12-74.3058 259.630  15
  -5   8 -13 4.84070 238.392   7
   5  -8 -13-412.450 233.440  11
  -5   8 -13 108.050 219.002  15
  -5   8 -14-25.0343 212.003   7
   5  -8 -14-408.912 229.875  11
  -5   8 -14 109.089 215.046  15
  -5   8 -15 468.074 237.523   7
   5  -8 -15-122.739 203.994  11
  -5   8 -15 145.517 218.823  15
  -5   8 -16-174.558 194.408   7
   5  -8 -16 111.615 180.095  11
  -5   8 -16-198.989 192.450  15
  -5   8 -17 74.7623 157.743   7
  -5   8 -17 17.4422 158.044  15
   5  -8 -17 366.000 171.145  11
  -5   9   0 158.003 169.545   8
  -5   9  -1 8605.61 542.257   8
  -5   9   1 8785.24 544.817   8
  -5   9  -2 25682.3 899.210   8
  -5   9   2 25932.8 898.348   8
  -5   9  -3 23355.8 874.197   8
  -5   9   3 22781.1 851.484   8
   5  -9  -4 44495.1 1127.89   2
  -5   9   4 45988.5 1210.17   8
  -5  -9  -5 7546.26 497.901   3
   5  -9  -5 8106.63 520.351   2
  -5   9   5 7659.28 512.092   8
   5  -9  -6 14734.1 707.058   2
   5   9  -7 1457.96 296.073  20
   5  -9  -7 1631.89 278.437   2
   5  -9  -8 13153.5 703.757   2
   5   9  -8 12618.6 758.424  20
  -5   9  -9 1603.29 288.944   7
   5   9  -9 1763.63 366.253  12
   5   9  -9 1056.34 239.557   7
   5  -9  -9 1698.94 346.688   4
   5   9  -9 1195.09 289.552  20
  -5   9 -10 769.814 260.433   7
   5   9 -10 254.216 200.031   7
   5  -9 -11 5157.50 418.361  11
   5   9 -11 5619.15 448.955   7
  -5   9 -11 6104.26 500.236   7
  -5   9 -12 178.389 228.572   7
   5   9 -12 442.877 214.311   7
   5  -9 -12-165.829 219.695  11
  -5   9 -12 677.060 270.992  15
  -5   9 -13 649.171 263.063   7
   5  -9 -13 876.789 247.201  11
  -5   9 -13 690.442 260.726  15
  -5   9 -14 2629.35 360.511   7
   5  -9 -14 1806.72 293.672  11
  -5   9 -14 2894.43 358.824  15
  -5   9 -15-355.417 222.240   7
   5  -9 -15-146.941 187.401  11
  -5   9 -15-115.130 185.505  15
  -5   9 -16 22.5301 173.853   7
   5  -9 -16 360.380 188.291  11
  -5   9 -16 171.340 174.294  15
   5  -9 -17 21.1115 152.502  11
  -5   9 -17-17.3416 137.583  15
  -5   9 -17-41.3934 138.111   7
  -5  10   0 122.286 181.219   8
  -5  10  -1 239.145 171.893   8
  -5  10   1 470.670 214.604   8
  -5  10  -2 2238.19 314.410   8
  -5  10   2 1857.56 289.192   8
  -5  10  -3 150.111 184.875   8
  -5  10   3-143.742 202.463   8
  -5  10   4 1025.30 249.539   8
   5 -10  -5 660.116 209.086   2
  -5 -10  -5 1166.58 244.290   3
  -5  10   5 975.226 224.397   8
   5 -10  -6 1003.62 245.040   2
   5  10  -7 3043.08 404.904  12
   5 -10  -7 3184.11 391.746   4
   5  10  -7 2199.09 246.166   7
  -5  10  -8 282.748 189.962   7
   5  10  -8 556.766 267.879  12
   5  10  -8-169.534 213.091   7
  -5  10  -9 172.114 203.613   7
   5  10  -9-342.108 235.566   7
   5  10  -9-133.857 253.069  12
  -5  10 -10 54.0538 203.563   7
   5  10 -10 287.098 223.539   7
  -5  10 -11-90.2459 237.374   7
   5  10 -11-98.1037 196.807   7
  -5  10 -11-3.02752 222.617  15
  -5  10 -12 274.893 231.585   7
  -5  10 -12 130.751 224.654  15
   5  10 -12 535.988 211.971   7
   5  10 -13 699.835 221.148   7
  -5  10 -13 231.033 221.329   7
  -5  10 -13 409.281 231.649  15
   5 -10 -14-259.514 204.207  11
  -5  10 -14 473.889 227.973   7
  -5  10 -14 358.079 219.616  15
  -5  10 -15 107.661 186.249   7
   5 -10 -15-341.409 184.698  11
  -5  10  15 296.797 221.993   6
  -5  10 -15 37.3882 181.021  15
  -5  10 -16 171.103 156.995   7
   5 -10 -16-80.0792 153.729  11
  -5  10 -16-85.5807 158.464  15
  -5  11   0-119.852 183.195   8
  -5  11  -1 9445.16 617.736   8
  -5  11   1 10040.6 643.842   8
  -5  11  -2 3974.26 422.730   8
  -5  11   2 4014.82 436.538   8
  -5  11   3-107.404 210.620   8
  -5  11  -3 605.867 223.133   8
  -5  11   4 22156.8 933.794   8
   5  11  -5 9777.69 666.008  12
  -5  11   5 8564.01 591.756   8
   5  11  -6 2315.20 394.294  12
   5  11  -6 1849.69 236.749   7
   5  11  -7 155.381 242.386  12
   5  11  -7-7.67542 174.789   7
   5  11  -8 486.560 262.407  12
   5  11  -8-58.9011 207.663   7
  -5  11  -9 846.777 280.532   7
   5  11  -9 748.596 253.014   7
  -5  11 -10 460.063 240.089   7
   5  11 -10 197.846 210.094   7
  -5  11 -11 1251.55 312.498   7
   5  11 -11 1022.64 278.706   7
   5  11 -12 893.299 247.543   7
  -5  11 -12 1631.88 296.230   7
   5  11 -13-52.9042 169.210   7
  -5  11 -13 134.967 186.853  15
  -5  11  13 676.094 304.254   6
  -5  11 -13 322.849 212.978   7
  -5  11 -14 1070.92 255.767   7
   5  11 -14 1516.87 238.216   7
  -5  11 -14 1209.63 240.332  15
  -5  11  14 712.916 272.731   6
  -5  11 -15 773.297 201.766   7
  -5  11 -15 552.455 186.263  15
  -5  11  15 372.698 209.377   6
   5  12   0 187.079 251.773   6
   5  12   1 1746.64 357.518   6
   5  12  -1 1797.54 375.069   6
   5  12  -2 8.11091 227.343  12
   5  12  -2 811.759 324.456   6
   5  12   2 608.891 293.968   6
   5  12  -3 969.735 315.758  12
   5  12  -3 1196.89 368.803   6
   5  12   3 1087.06 304.486   6
  -5  12   3 635.486 323.495   6
   5  12  -4 1284.51 317.172  12
   5  12  -4 1993.94 399.770   6
   5  12   4 919.877 313.471   6
  -5  12   4 1413.83 371.444   6
   5  12  -4 2263.06 214.425   7
   5  12  -5 1648.54 349.673  12
   5  12  -5 924.800 200.058   7
  -5  12   5 1181.42 353.130   6
   5  12   5 1329.17 362.563   6
  -5  12   6 10.4015 265.692   6
   5  12  -6-93.6807 235.988  12
   5  12  -6-187.609 183.591   7
   5  12   6 208.969 251.716   6
   5  12  -7-162.266 241.425  12
   5  12  -7-173.082 203.423   7
  -5  12   7 453.821 308.096   6
   5  12  -8 66.9428 214.535  12
   5  12  -8-557.794 239.195   7
  -5  12   8 346.394 313.198   6
   5  12  -9-124.676 201.561   7
  -5  12   9-114.435 268.679   6
  -5  12  10 74.0657 254.792   6
  -5  12 -10 61.3634 187.216   7
   5  12 -10 89.8990 185.552   7
   5  12 -11 260.823 195.494   7
  -5  12 -11 202.527 211.036   7
  -5  12  11 849.308 307.613   6
  -5  12 -12 265.394 204.492   7
   5  12 -12-68.2515 161.789   7
  -5  12  12-167.119 254.906   6
  -5  12 -13 342.371 206.864   7
   5  12 -13 174.771 169.346   7
  -5  12 -14 220.724 166.534   7
   5  12 -14 169.151 148.497   7
  -5  12  14-180.204 228.238   6
   5  13   0 197.187 298.900   6
   5  13  -1 1727.18 374.537  12
   5  13   1 1713.70 357.535   6
   5  13  -1 2245.83 425.014   6
   5  13  -2 12476.0 788.915  12
   5  13  -2 12772.9 837.622   6
   5  13   2 11803.2 759.953   6
   5  13  -3 3366.67 460.578  12
   5  13  -3 3725.55 502.111   6
  -5  13   3 3905.73 529.485   6
   5  13   3 3615.52 462.268   6
   5  13  -3 3224.85 261.186   7
   5  13  -4-66.3287 229.409  12
   5  13  -4 462.508 164.932   7
   5  13   4-135.189 271.140   6
  -5  13   4 279.456 277.042   6
   5  13  -5 237.053 227.673  12
   5  13  -5-159.410 171.745   7
   5  13   5 88.3576 253.844   6
  -5  13   5-73.2195 253.130   6
   5  13  -6 57.9574 231.905  12
   5  13  -6-584.014 228.184   7
   5  13   6-200.082 260.033   6
  -5  13   6 193.607 270.600   6
   5  13  -7 1495.65 322.095  12
  -5  13   7 1337.14 355.691   6
   5  13  -8 2851.94 393.013  12
   5  13  -8 2724.28 344.503   7
  -5  13   8 2627.50 441.928   6
  -5  13   9 86.2809 253.644   6
   5  13  -9 38.4951 191.444   7
   5  13 -10 55.2581 182.313   7
  -5  13  10 210.085 249.261   6
   5  13 -11 3795.14 359.993   7
  -5  13  11 4463.92 505.807   6
  -5  13 -11 3797.21 400.294   7
  -5  13  12 2962.72 403.748   6
   5  13 -12 2437.48 291.568   7
  -5  13 -13 144.997 154.039   7
   5  13 -13 202.516 158.363   7
  -5  13  13 522.680 235.567   6
   5  14   0-113.453 240.121  12
   5  14   0-138.025 277.863   6
   5  14  -1 6.80359 261.342  12
   5  14  -1 449.981 293.039   6
   5  14   1 81.8661 223.038   6
   5  14  -2 510.541 167.451   7
   5  14   2 167.397 235.432   6
   5  14  -2-44.3474 231.210  12
   5  14  -2-418.914 298.873   6
   5  14  -3-38.1694 234.528  12
   5  14  -3 133.074 162.170   7
   5  14  -3 158.138 255.966   6
   5  14   3-300.272 281.064   6
   5  14  -4 366.335 226.276  12
   5  14  -4-107.375 169.650   7
   5  14   4 517.473 297.191   6
  -5  14   4 395.815 289.998   6
   5  14  -5 92.4578 208.715  12
   5  14  -5-478.331 206.716   7
   5  14   5 353.127 292.446   6
  -5  14   5-193.400 269.279   6
   5  14  -6 259.347 222.781  12
   5  14   6 215.518 262.767   6
  -5  14   6 402.009 275.361   6
  -5  14   7 87.2198 265.902   6
   5  14  -7 112.011 208.731  12
   5  14  -7-21.7677 173.274   7
   5  14  -8 358.371 197.384  12
   5  14  -8 473.297 212.222   7
  -5  14   8 591.024 273.334   6
   5  14  -9-2.15936 152.426   7
  -5  14   9 156.544 268.023   6
   5  14 -10 37.1716 148.424   7
  -5  14  10 151.907 235.913   6
   5  14 -11 156.690 153.670   7
  -5  14  11-27.2260 201.863   6
   5  14 -12-37.3757 122.426   7
  -5  14  12-27.3989 185.453   6
   5  15   0 214.440 243.359  12
   5  15   0 118.527 245.638   6
   5  15  -1 176.558 233.045  12
   5  15   1 9.15534 232.010  12
   5  15  -1-104.832 250.124   6
   5  15   1 452.908 264.352   6
   5  15  -2 99.3153 144.443   7
   5  15  -2 813.313 308.372   6
   5  15  -2 460.006 282.545  12
   5  15   2 655.392 287.529   6
   5  15  -3 1047.90 294.462  12
   5  15  -3 233.617 165.343   7
   5  15   3 1068.62 282.621   6
   5  15  -4 2890.35 393.017  12
   5  15   4 2192.25 370.511   6
  -5  15   4 2390.11 395.785   6
   5  15  -5 4550.62 473.768  12
   5  15   5 4354.79 489.306   6
  -5  15   5 4411.44 486.514   6
   5  15  -5 3638.62 376.918   7
   5  15  -6 793.306 242.645  12
   5  15  -6 873.036 249.068   7
   5  15   6 732.563 284.448   6
  -5  15   6 794.324 292.035   6
   5  15  -7 97.4614 163.710   7
   5  15   7-162.889 232.661   6
  -5  15   7 22.9884 219.725   6
   5  15  -7-218.348 201.262  12
   5  15  -8 1430.45 247.792   7
  -5  15   8 1349.88 307.257   6
   5  15  -9 569.758 200.551   7
  -5  15   9 915.215 264.722   6
   5  15 -10 37.7067 127.600   7
  -5  15  10 138.914 193.923   6
   5  16   0-28.9113 224.449  12
   5  16   0-39.0654 224.213   6
   5  16   1-215.632 230.825  12
   5  16  -1 163.273 251.567  12
   5  16   1-160.004 219.681   6
   5  16   2-386.368 256.839  12
   5  16   2 88.4179 220.028   6
   5  16  -2-190.329 234.433  12
   5  16  -3 87.9918 222.677  12
   5  16   3-88.7444 212.349  12
   5  16   3-88.1281 202.378   6
   5  16  -4-35.6343 195.055  12
   5  16  -4 24.9622 155.961   7
   5  16   4-143.929 204.893   6
  -5  16   4 15.6004 201.874   6
   5  16  -5-69.5183 150.217   7
   5  16  -5 284.458 208.987  12
   5  16   5 130.224 202.260   6
  -5  16   5 82.2118 207.358   6
   5  16  -6 128.387 174.312  12
   5  16  -6-34.0157 147.401   7
   5  16   6-133.103 203.432   6
  -5  16   6 22.4575 195.894   6
   5  16  -7-131.580 142.206   7
   5  16   7 178.426 210.478   6
  -5  16   7-81.2180 180.255   6
   5  16  -8 19.4928 127.047   7
  -5  16   8 127.075 165.829   6
   5  17   0 300.343 205.452  12
   5  17  -1 818.828 251.216  12
   5  17   1 902.560 257.605  12
   5  17  -2 1792.01 308.714  12
   5  17   2 1731.03 308.283  12
   5  17   2 1142.23 263.280   6
   5  17   3 458.677 199.394  12
   5  17  -3 623.502 240.804  12
   5  17   3 410.736 210.796   6
   5  17  -4 785.907 230.962  12
   5  17   4 821.677 215.901  12
   5  17   4 516.600 207.201   6
   5  17  -5 457.221 203.239  12
   5  17   5 410.075 171.328  12
   5  17  -5 114.765 125.184   7
  -5  17   5 319.481 174.394   6
   5  17   5-42.0315 172.458   6
   5  17   6-140.739 146.904  12
  -6   0   0 230668. 1995.99   9
  -6   0   1-85.6949 139.207   9
   6   0  -1 175.283 110.153   1
  -6   0   1-80.9414 105.033   3
   6   0  -2 7055.40 334.869   1
  -6   0   2 6468.72 369.601   9
  -6   0   2 6057.83 270.906   3
   6   0  -3 166.240 107.839   1
  -6   0   3 60.3451 142.337   9
  -6   0   4 5321.62 364.077   9
   6   0  -4 5584.89 329.617   1
   6   0  -5-25.9071 114.540   1
   6   0  -5-20.6020 120.442  20
  -6   0   5 89.5903 156.004   9
   6   0  -6 8424.67 429.030   1
   6   0  -6 7727.41 419.849  20
   6   0  -7-370.764 182.600  20
   6   0  -7 14.7878 122.975   1
   6   0  -8 4445.16 393.179  20
   6   0  -8 3915.07 345.712   1
   6   0  -9 125.698 182.153  20
   6   0 -10 23722.4 1007.36  20
   6   0 -11 59.2442 209.289  20
   6   0 -12 8031.41 668.166  20
  -6   0 -13 131.181 227.960  11
  -6   0 -13-72.6185 201.411   7
  -6   0 -13 129.373 240.169  15
  -6   0 -14 6059.54 491.312  11
   6   0 -14 7228.23 623.187   5
   6   0 -15-12.8760 270.886   5
  -6   0 -15-290.321 255.954  11
   6   0 -16 1123.51 348.592   5
  -6   0 -16 1246.31 302.309  11
   6   0 -17 433.938 289.108   5
  -6   0 -17 97.6661 209.592  11
   6   0 -18 384.987 255.743   5
  -6   0 -18 422.230 225.471  11
  -6   0 -19-391.066 168.484  11
   6   0 -19-373.310 213.837   5
   6  -1   0 12067.9 412.713   1
  -6  -1   0 11552.9 453.742   9
  -6   1   0 11787.0 488.996   9
  -6  -1   0 11308.3 397.223   3
  -6  -1   1 8523.85 338.744   3
  -6   1  -1 8285.01 410.572   9
  -6  -1   1 8370.56 389.438   9
  -6   1   1 8005.88 409.418   9
   6  -1  -1 8282.79 354.371   1
  -6  -1  -1 8392.33 354.345   3
   6  -1  -2 2986.91 227.050   1
  -6  -1   2 2712.53 240.242   9
  -6   1   2 2637.80 250.575   9
  -6  -1  -2 2954.88 228.262   3
  -6  -1   2 2891.92 206.111   3
   6   1  -3 35836.2 786.437   1
  -6  -1   3 35704.4 824.755   9
  -6   1   3 33956.6 856.482   9
   6  -1  -3 36059.4 775.876   1
  -6  -1  -3 34106.4 746.962   3
   6  -1  -4 415.308 144.964   1
   6   1  -4 246.819 126.556   1
  -6  -1   4 268.907 161.939   9
  -6   1   4 193.714 153.816   9
   6   1  -5 378.408 138.827   1
  -6   1   5 301.967 169.442   9
  -6  -1   5 358.678 176.713   9
   6  -1  -5 497.585 142.776   1
   6  -1  -6 56552.0 1091.71   1
   6   1  -6 54870.6 1071.30   1
   6   1  -6 53302.1 1064.76  20
   6  -1  -7 10240.4 506.134   1
   6   1  -7 9953.28 491.536   1
   6   1  -7 11044.8 536.344  20
   6   1  -8 841.556 179.082   1
   6  -1  -8 780.765 229.678  20
   6   1  -8 886.009 221.576  20
   6  -1  -9 18212.0 815.294  20
   6   1  -9 18527.9 804.249  20
   6   1 -10 6793.30 545.389  20
   6  -1 -10 7176.48 562.365  20
   6   1 -11 3725.40 441.826  20
   6  -1 -11 3421.40 437.968  20
   6  -1 -12 6175.56 587.946  20
   6   1 -12 6045.07 595.419  20
   6  -1 -13 2989.93 447.585   5
  -6   1 -13 2908.15 359.480  11
  -6  -1 -13 2799.64 363.732  11
   6  -1 -13 2727.18 306.856  11
  -6   1 -13 3870.84 400.989  15
  -6   1 -13 3123.10 388.043   7
   6  -1 -14 353.292 308.673   5
  -6   1 -14 462.773 250.442  11
  -6  -1 -14-198.503 235.379  11
   6  -1 -14-82.9431 234.950  11
  -6   1 -14 341.162 254.461  15
  -6   1 -14 58.8203 225.804   7
   6  -1 -15 250.410 295.597   5
   6   1 -15-6.17164 281.925   5
  -6   1 -15-233.997 261.802  11
  -6  -1 -15 42.9575 235.122  11
   6  -1 -15 14.5476 217.870  11
   6  -1 -16 3259.63 465.731   5
  -6   1 -16 3585.28 381.296  11
  -6  -1 -16 3520.43 389.204  11
   6   1 -16 2402.77 423.588   5
   6  -1 -17 376.287 290.381   5
   6   1 -17 455.964 305.034   5
  -6   1 -17 623.744 251.314  11
  -6  -1 -17 397.581 232.751  11
   6  -1 -18 56.4723 220.743   5
   6   1 -18 165.624 234.176   5
  -6   1 -18-51.3108 183.537  11
  -6  -1 -18-259.485 214.962  11
   6  -1 -19 266.750 209.320   5
   6   1 -19 200.584 198.593   5
  -6   1 -19-231.188 176.181  11
  -6  -1 -19 89.4191 156.043  11
  -6  -2   0 10154.5 415.134   9
  -6   2   0 10414.9 459.566   9
   6  -2   0 9887.53 372.615   1
  -6  -2   0 9894.25 392.504   3
  -6  -2  -1 737.643 146.736   3
  -6  -2   1 658.080 136.512   3
   6  -2  -1 671.941 129.516   1
  -6   2  -1 692.118 167.852   9
  -6  -2   1 554.905 146.018   9
  -6   2   1 657.208 170.443   9
   6  -2   1 504.137 106.540   1
  -6  -2   2 1189.90 160.479   3
  -6  -2  -2 989.862 158.292   3
   6  -2   2 850.154 118.804   1
   6  -2  -2 1081.60 169.459   1
  -6  -2   2 862.515 151.503   9
  -6   2   2 1001.80 190.113   9
   6  -2  -3 132396. 1481.14   1
  -6  -2   3 131884. 1528.28   9
  -6   2   3 133429. 1677.65   9
  -6  -2  -3 130988. 1468.65   3
  -6  -2  -4 16319.4 542.280   3
   6   2  -4 15793.8 547.829   1
   6  -2  -4 16150.9 549.614   1
  -6  -2   4 16232.9 580.714   9
  -6   2   4 16372.9 630.752   9
   6  -2  -5 4264.90 315.458   1
  -6  -2   5 4658.40 346.793   9
  -6   2   5 4314.85 371.047   9
  -6  -2  -5 4500.27 298.836   3
   6   2  -5 4356.03 303.130   1
   6  -2  -6 2059.86 239.298   1
   6   2  -6 2536.42 270.418  20
   6   2  -6 2446.77 240.635   1
   6   2  -7 94916.7 1537.76  20
   6   2  -7 95365.5 1411.57   1
   6   2  -8 6480.48 443.459  20
   6   2  -9 2742.43 348.337  20
   6  -2 -10 9007.11 621.366  20
   6   2 -10 8253.46 590.119  20
   6  -2 -11-121.478 194.961   2
   6  -2 -11-120.080 213.649  20
   6   2 -11-64.4238 210.349  20
   6  -2 -12-49.8610 210.509  20
   6   2 -12-378.189 253.912  20
  -6   2 -13 398.204 246.217   7
  -6   2 -13 112.258 238.830  15
   6  -2 -13 161.091 291.486   5
  -6   2 -13-251.151 228.250  11
  -6  -2 -13 164.573 222.474  11
   6  -2 -13-158.967 222.675  11
   6  -2 -14 670.187 329.225   5
  -6   2 -14 683.174 272.810  11
  -6  -2 -14 761.928 261.725  11
   6  -2 -14 489.962 216.658  11
  -6   2 -14 932.324 280.906  15
  -6   2 -14 583.650 268.879   7
   6  -2 -15 2242.86 438.660   5
  -6  -2 -15 1943.74 343.502  11
   6   2 -15 3367.58 490.774   5
   6  -2 -15 1858.13 307.603  11
  -6   2 -15 2742.42 372.007  15
  -6   2 -15 2378.74 338.581  11
  -6   2 -15 2184.81 334.884   7
   6  -2 -16 865.273 336.144   5
   6   2 -16 317.403 293.728   5
  -6   2 -16 630.399 256.528  11
  -6  -2 -16 664.159 259.751  11
   6  -2 -16 172.097 210.747  11
  -6   2 -17 4523.23 419.583  11
  -6  -2 -17 5102.61 434.474  11
   6  -2 -17 4845.55 404.021  11
   6  -2 -17 4205.36 474.079   5
   6   2 -17 4182.36 492.006   5
   6  -2 -18 209.732 232.502   5
  -6  -2 -18 221.442 195.296  11
   6   2 -18 160.008 242.801   5
  -6   2 -18 142.929 191.827  11
   6  -2 -18 347.584 193.267  11
   6   2 -19 268.256 214.339   5
  -6   2 -19-165.952 162.851  11
  -6  -2 -19-316.118 169.959  11
   6  -2 -19 356.928 214.519   5
  -6  -3   0 86269.6 1192.16   3
   6  -3   0 89890.1 1139.96   1
  -6   3   0 87927.8 1366.48   9
   6  -3   1 22510.1 556.729   1
  -6  -3  -1 22649.8 622.213   3
  -6  -3   1 21975.8 595.631   3
   6  -3  -1 23000.0 593.836   1
  -6   3  -1 22774.9 702.900   9
  -6   3   1 22656.9 694.908   9
  -6  -3  -2 660.244 191.938   3
  -6  -3   2 504.736 132.648   3
  -6   3   2 430.303 158.802   9
   6  -3  -2 391.615 125.194   1
  -6  -3   3 60079.7 959.260   3
   6  -3  -3 60549.2 1026.75   1
  -6   3   3 59356.3 1179.83   9
  -6  -3  -3 59971.3 1027.83   3
   6  -3  -4 37811.9 860.818   1
   6   3  -4 38740.7 837.331   1
  -6   3   4 38594.2 992.260   9
  -6  -3  -4 38107.0 836.950   3
   6  -3  -5 1282.22 227.232   1
  -6  -3  -5 1121.70 176.841   3
   6   3  -5 1371.41 186.961   1
  -6   3   5 1543.58 264.975   9
   6   3  -6 13520.6 570.884  20
  -6   3   6 14226.1 675.341   9
   6   3  -6 13949.3 533.000   1
  -6  -3  -6 13304.7 539.516   3
   6   3  -7 5222.36 397.881  20
   6   3  -8 2127.18 281.902  20
   6   3  -9 12341.6 658.868  20
   6  -3 -10 452.046 189.003   2
   6   3 -10 108.583 182.429  20
   6  -3 -11 1102.20 288.141  20
   6   3 -11 1278.41 302.596  20
   6  -3 -11 787.976 221.505   2
   6  -3 -12 399.889 228.066  20
   6   3 -12 412.407 243.270  20
  -6   3 -13 9029.37 579.138  11
  -6  -3 -13 9706.34 583.700  11
   6  -3 -13 8107.78 497.892  11
  -6   3 -13 9734.09 619.835   7
  -6   3 -13 9160.30 578.509  15
   6  -3 -13 8190.24 656.539   5
  -6   3 -14-208.360 234.995   7
   6  -3 -14-177.909 274.957   5
  -6   3 -14-131.019 239.397  11
  -6  -3 -14 408.235 245.273  11
   6  -3 -14-52.0190 228.653  11
  -6   3 -14 182.524 254.505  15
   6  -3 -15 114.979 266.508   5
  -6   3 -15-122.135 223.093  11
  -6  -3 -15 188.812 232.837  11
   6  -3 -15 112.136 206.676  11
  -6   3 -15 239.233 239.641  15
  -6   3 -15-365.231 247.820   7
   6  -3 -16 117.043 256.304   5
  -6   3 -16 109.590 237.069  15
  -6  -3 -16 85.3430 213.574  11
  -6   3 -16 134.513 226.314  11
   6   3 -16-21.0040 270.748   5
   6  -3 -16-321.809 235.968  11
  -6   3 -16 182.131 221.679   7
   6  -3 -17 225.909 256.995   5
   6   3 -17-237.486 264.789   5
  -6   3 -17 95.6174 198.251  11
  -6  -3 -17 162.309 220.037  11
   6  -3 -17 307.087 218.886  11
   6   3 -18-68.8438 225.566   5
  -6   3 -18 93.8939 173.191  11
  -6  -3 -18 141.213 190.031  11
   6  -3 -18 159.786 179.353  11
   6  -3 -18 251.991 209.739   5
   6   3 -19 1012.97 230.801   5
  -6  -3 -19 492.633 169.683  11
   6  -3 -19 775.956 192.414  11
   6  -3 -19 730.447 243.386   5
  -6  -4   0 122225. 1480.14   3
   6  -4   0 119773. 1363.00   1
  -6   4   0 121307. 1642.17   9
  -6  -4  -1 44491.3 903.541   3
  -6   4  -1 44369.3 1009.30   9
  -6   4   1 45516.4 882.332   8
  -6   4   1 44760.6 1007.42   9
   6  -4  -1 45042.7 864.462   1
  -6  -4  -2 6488.59 365.157   3
   6  -4  -2 6382.65 360.112   1
  -6   4   2 6098.29 412.914   9
  -6   4   2 6875.52 352.553   8
  -6  -4  -3 57643.9 1056.12   3
   6  -4  -3 57317.4 1040.91   1
  -6   4   3 57705.0 1191.24   9
  -6   4   4 7073.08 443.690   9
  -6  -4  -4 7278.10 385.820   3
  -6  -4  -5 28709.0 777.688   3
   6   4  -5 28177.6 757.443   1
  -6   4   5 29529.0 929.442   9
  -6   4   6 5480.26 455.959   9
  -6  -4  -6 6510.63 403.306   3
   6   4  -7 72206.1 1419.52  20
  -6   4   7 70963.9 1586.15   9
  -6  -4  -7 73270.1 1307.61   3
   6   4  -8 7599.56 510.593  20
   6   4  -9 8898.39 579.395  20
   6   4 -10 22890.7 951.187  20
   6  -4 -10 22612.6 863.661   2
   6   4 -11 134.926 200.106  20
   6  -4 -11 232.562 172.567   2
  -6   4 -12 901.448 274.238   7
   6  -4 -12 851.243 301.634   5
  -6   4 -12 1112.22 255.877  11
  -6  -4 -12 1138.29 256.207  11
   6  -4 -12 715.478 264.356  20
   6   4 -12 587.991 243.906  20
   6  -4 -12 775.527 243.959   2
  -6   4 -12 1335.37 282.181  15
  -6   4 -13-258.333 272.358  15
  -6   4 -13-24.7465 228.134   7
   6  -4 -13-196.386 257.179   5
  -6   4 -13 153.407 252.793  11
   6  -4 -13 94.7074 202.532  11
  -6  -4 -13-36.0250 239.551  11
  -6   4 -14 289.813 242.500   7
  -6   4 -14 642.063 275.150  15
   6  -4 -14 453.467 327.412   5
  -6   4 -14 525.162 255.616  11
  -6  -4 -14 577.727 256.276  11
   6  -4 -14 714.154 241.098  11
  -6   4 -15 638.523 290.076   7
  -6   4 -15 1509.59 305.201  15
   6  -4 -15 1102.66 323.017   5
  -6   4 -15 1372.95 288.263  11
  -6  -4 -15 1635.47 312.188  11
   6  -4 -15 1269.25 275.490  11
   6  -4 -16 240.056 258.024   5
  -6   4 -16 392.855 237.600  11
  -6  -4 -16 48.6246 206.022  11
   6   4 -16 75.5794 253.945   5
   6  -4 -16 184.774 206.600  11
  -6   4 -16 491.124 235.812  15
  -6   4 -16 89.5468 208.979   7
   6  -4 -17 1842.94 347.571   5
   6   4 -17 1901.25 343.923   5
  -6  -4 -17 1217.98 307.592  11
   6  -4 -17 1381.88 278.439  11
  -6   4 -17 1347.48 294.579   7
  -6   4 -17 1863.23 298.792  15
   6   4 -18 660.646 242.920   5
  -6  -4 -18 354.847 203.806  11
   6  -4 -18 587.537 200.174  11
   6  -4 -18 743.688 256.235   5
  -6  -4 -19-352.219 167.735  11
   6  -4 -19 164.173 160.476  11
  -6   5   0 36041.4 947.678   9
  -6   5   0 35375.8 855.401   8
  -6   5   1 8475.52 463.383   9
  -6   5   1 8493.84 425.589   8
  -6  -5  -2 17224.2 604.537   3
  -6   5   2 16760.5 652.658   9
  -6   5   2 17380.6 587.168   8
  -6  -5  -3 7250.24 405.042   3
  -6   5   3 7009.08 444.001   9
  -6   5   3 7080.19 371.839   8
  -6  -5  -4 38141.7 919.315   3
  -6   5   4 38627.9 1037.76   9
  -6  -5  -5 43.0343 117.761   3
  -6   5   5-61.5016 157.265   9
  -6   5   6 19878.3 829.927   9
  -6  -5  -6 20728.8 709.792   3
  -6   5   7 4409.67 437.151   9
   6   5  -7 4681.45 408.451  20
  -6  -5  -7 5047.34 371.429   3
   6  -5  -8 1545.11 251.704   2
  -6   5   8 1628.35 317.072   9
   6   5  -8 1520.98 276.172  20
   6   5  -9 309.182 187.182  20
  -6   5   9 636.566 263.356   9
   6  -5  -9 345.912 185.412   2
   6   5 -10 5366.24 493.645  20
   6  -5 -10 5566.59 456.398   2
   6   5 -11 309.088 221.527  20
   6  -5 -11 716.408 233.518   2
   6  -5 -12 3413.50 445.657   4
  -6   5 -12 4249.22 436.302   7
  -6   5 -12 3645.86 400.178  15
   6  -5 -12 3621.37 453.038   5
  -6   5 -13 90.8951 239.213   7
  -6   5 -13-165.943 242.944  15
   6  -5 -13-59.6878 271.865   5
  -6  -5 -13 265.970 251.034  11
   6  -5 -13 154.690 248.781   4
   6  -5 -13 199.899 198.626  11
  -6   5 -14 197.054 246.807   7
   6  -5 -14 599.900 312.635   5
  -6  -5 -14-22.1143 223.426  11
   6  -5 -14-116.247 211.949  11
  -6   5 -14-48.1477 246.197  15
  -6   5 -15 99.3112 229.765   7
   6  -5 -15-69.6769 244.506   5
  -6  -5 -15-102.010 220.089  11
   6  -5 -15-323.078 215.663  11
  -6   5 -15 113.677 216.805  15
  -6  -5 -16 3634.37 375.140  11
   6  -5 -16 2405.98 336.825  11
  -6   5 -16 3639.78 395.291   7
  -6   5 -16 2991.73 369.528  15
   6  -5 -16 2783.64 436.661   5
   6   5 -17 135.758 237.097   5
  -6  -5 -17 228.308 208.429  11
   6  -5 -17 205.291 192.073  11
  -6   5 -17 335.219 206.601  15
   6  -5 -17 363.299 242.768   5
  -6   5 -17 106.068 183.744   7
  -6  -5 -18 39.1145 164.376  11
   6  -5 -18 156.492 157.560  11
  -6   6   0 148769. 1987.75   9
  -6   6   0 148691. 1831.91   8
  -6   6   1 523.154 181.830   9
  -6   6  -1 529.685 193.950   8
  -6   6   2 34690.5 963.484   9
  -6   6   2 35597.6 897.124   8
  -6  -6  -3 20510.9 702.726   3
  -6   6   3 20775.9 769.735   9
  -6   6   3 20334.3 676.114   8
  -6   6   4 2845.57 317.434   9
  -6  -6  -4 2956.05 290.455   3
  -6  -6  -5 4489.59 355.052   3
  -6   6   5 4119.71 381.783   9
  -6  -6  -6 5610.71 399.964   3
  -6   6   6 5344.65 457.626   9
   6  -6  -6 5977.67 410.474   2
   6  -6  -7 11067.9 564.489   2
  -6   6   7 11281.0 670.947   9
  -6  -6  -7 11029.2 566.891   3
   6   6  -8 32777.7 1085.70  20
   6  -6  -8 32370.6 971.121   2
  -6   6   8 30620.1 1129.14   9
  -6   6   9 217.747 221.348   9
   6   6  -9 148.669 192.290  20
   6  -6  -9 553.564 200.611   2
   6   6 -10 25537.2 1033.08  20
   6  -6 -10 26902.5 975.069   2
  -6   6  10 24504.0 1098.73   9
   6  -6 -11 458.590 303.660   5
  -6   6 -11 464.620 250.027   7
   6  -6 -11 531.644 281.936   4
   6   6 -11 148.389 205.426  20
  -6   6 -11 742.126 286.477  15
   6  -6 -12 782.682 323.069   5
  -6   6 -12 890.978 299.763   7
   6  -6 -12 890.151 304.610   4
  -6   6 -12 500.608 259.808  15
   6  -6 -13 31.4633 258.300   5
  -6   6 -13-92.5824 273.652   7
   6  -6 -13 628.305 291.631   4
   6  -6 -13 643.862 240.353  11
  -6   6 -13 387.769 267.172  15
  -6   6 -14 4377.05 451.723  15
  -6   6 -14 5129.37 472.319   7
   6  -6 -14 3647.91 370.417  11
   6  -6 -14 4251.08 492.282   5
  -6   6 -15-201.531 231.412  15
   6  -6 -15 81.1108 198.093  11
  -6   6 -15 367.753 252.599   7
   6  -6 -15-105.184 243.921   5
  -6   6 -16 814.482 245.709   7
  -6   6 -16 725.981 254.655  15
  -6  -6 -16 724.525 232.194  11
   6  -6 -16 330.948 190.591  11
   6  -6 -16 495.662 264.187   5
   6   6 -17 431.276 228.604   5
  -6  -6 -17 442.871 205.707  11
   6  -6 -17 618.219 201.124  11
  -6   6 -17 682.366 207.980  15
  -6   6 -17 382.110 199.365   7
  -6  -6 -18 579.358 196.334  11
   6  -6 -18 606.008 171.902  11
  -6   7   0 1794.80 263.798   9
  -6   7   0 1538.41 252.715   8
  -6   7   1 28743.5 922.429   9
  -6   7  -1 29699.4 897.248   8
  -6   7   1 29309.4 883.395   8
  -6   7   2 4440.80 392.656   9
  -6   7   2 4867.85 373.086   8
  -6   7  -2 5317.18 418.805   8
  -6  -7  -3 19021.2 723.730   3
  -6   7   3 18392.3 757.133   9
   6  -7  -3 18884.3 687.155   2
  -6   7   3 18628.6 697.429   8
  -6  -7  -4 6286.68 429.245   3
  -6   7   4 6546.47 468.086   9
   6  -7  -4 6769.08 424.385   2
  -6   7   4 6458.67 422.463   8
  -6  -7  -5 1807.51 258.219   3
   6  -7  -5 1741.61 258.431   2
  -6   7   5 1641.98 271.240   9
  -6  -7  -6-9.45431 123.209   3
  -6   7   6-13.3477 185.865   9
   6  -7  -6 107.110 148.158   2
   6  -7  -7 8800.33 539.245   2
  -6   7   7 7939.11 572.327   9
  -6   7   8 244.596 190.516   9
   6  -7  -8 162.294 161.097   2
   6  -7  -9 12019.3 667.469   2
  -6   7   9 10527.2 731.662   9
   6   7  -9 11608.6 709.133  20
   6  -7 -10 3064.71 404.054   4
   6  -7 -10 2613.18 357.483   2
   6   7 -10 2281.90 358.999  20
  -6   7  10 2099.16 397.760   9
  -6   7 -10 3019.16 372.414   7
   6  -7 -11 1925.56 398.484   5
  -6   7 -11 2417.93 371.371   7
   6  -7 -11 2114.47 392.064   4
  -6   7 -11 2483.65 354.587  15
  -6   7 -12 452.089 264.978   7
   6  -7 -12-131.863 257.826   4
   6  -7 -12-47.0236 276.912   5
  -6   7 -12-128.737 235.094  15
  -6   7 -13 4292.57 454.081   7
   6  -7 -13 4174.26 382.283  11
  -6   7 -13 4098.60 454.360  15
   6  -7 -13 4585.17 509.452   5
  -6   7 -14 2097.35 353.795   7
   6  -7 -14 1366.38 274.159  11
  -6   7 -14 1943.86 341.463  15
   6  -7 -14 1788.01 364.227   5
  -6   7 -15 190.423 220.841   7
   6  -7 -15-163.536 217.437  11
  -6   7 -15-63.1600 206.113  15
  -6   7 -16-63.9433 200.874   7
  -6   7 -16 391.424 211.126  15
   6  -7 -17 369.730 176.942  11
  -6   7 -17 190.729 180.767  15
  -6   7 -17 311.534 181.932   7
   6  -7 -18 35.1212 131.026  11
  -6   8   0 2890.37 317.353   8
  -6   8  -1 2404.66 304.368   8
  -6   8   1 2749.46 315.362   8
  -6   8   2 4738.05 389.006   8
  -6   8  -2 4695.26 410.802   8
  -6   8   3 32361.5 961.275   8
  -6  -8  -4 2259.84 288.013   3
   6  -8  -4 2340.95 281.081   2
  -6   8   4 2650.69 310.080   8
  -6  -8  -5 2459.48 297.605   3
   6  -8  -5 2769.22 313.841   2
  -6  -8  -6 3223.50 344.538   3
   6  -8  -6 3137.73 348.842   2
   6  -8  -7 30500.4 1029.86   2
   6  -8  -8 1059.07 263.080   2
   6  -8  -9 3615.42 412.302   4
   6  -8  -9 2885.31 373.565   2
  -6   8  -9 3996.91 392.999   7
  -6   8 -10 1837.21 332.273   7
   6   8 -10 436.537 198.501   7
   6  -8 -10 1064.60 304.715   4
   6  -8 -10 1345.18 367.313   5
  -6   8 -10 1002.56 283.508  15
  -6   8 -11-180.079 230.195   7
   6  -8 -11 258.718 260.635   4
   6  -8 -11 296.092 295.156   5
  -6   8 -11 315.889 258.725  15
  -6   8 -12-405.541 258.852   7
   6  -8 -12 34.3834 253.944   4
   6  -8 -12 591.515 262.912  11
  -6   8 -12 157.656 235.369  15
  -6   8 -13 200.814 240.724   7
   6  -8 -13-36.7539 203.486  11
  -6   8 -13 57.0720 234.965  15
  -6   8 -14-120.975 214.527   7
  -6   8 -14 4.96471 216.902  15
   6  -8 -14-240.844 212.893  11
  -6   8 -15 1627.15 298.043   7
  -6   8 -15 1966.11 293.545  15
   6  -8 -15 1118.00 244.523  11
  -6   8 -16 159.483 180.188   7
   6  -8 -16-191.776 176.900  11
  -6   8 -16-74.9479 176.566  15
   6  -8 -17 1260.00 206.376  11
  -6   8 -17 1330.10 218.493  15
  -6   8 -17 1275.53 221.961   7
  -6   9   0 12909.5 662.581   8
  -6   9  -1 375.926 199.164   8
  -6   9   1 346.279 181.579   8
  -6   9   2 3017.78 351.204   8
  -6   9  -2 3322.55 365.620   8
  -6   9   3 1501.17 263.438   8
  -6  -9  -4 12960.6 669.967   3
  -6   9   4 13899.9 677.438   8
  -6  -9  -5 80.9994 157.824   3
   6  -9  -5 164.385 177.420   2
  -6  -9  -6 13531.6 697.516   3
   6  -9  -6 14648.8 724.032   2
   6  -9  -7 342.853 208.211   2
   6   9  -8 887.452 295.174  12
   6   9  -8 423.707 152.570   7
   6  -9  -8 1193.84 318.414   4
   6   9  -9 153.080 179.984   7
   6  -9  -9 479.754 258.657   4
   6  -9 -10 4829.97 508.586   4
   6   9 -10 4085.39 381.489   7
  -6   9 -10 5451.46 478.140   7
  -6   9 -11-559.154 248.224   7
   6   9 -11-139.376 195.875   7
  -6   9 -11-106.331 223.069  15
  -6   9 -12 2516.13 363.028   7
   6  -9 -12 2170.54 311.529  11
  -6   9 -12 2258.84 356.263  15
  -6   9 -13-64.0525 220.057   7
   6  -9 -13-129.940 201.849  11
  -6   9 -13 371.018 220.620  15
  -6   9 -14 465.001 232.336  15
   6  -9 -14 167.591 188.985  11
  -6   9 -14 790.816 256.395   7
  -6   9 -15-165.774 193.763   7
   6  -9 -15-263.118 193.578  11
  -6   9 -15-57.8233 189.490  15
  -6   9 -16 759.434 201.552   7
   6  -9 -16 283.841 172.077  11
  -6   9 -16 689.946 192.855  15
  -6  10   0 36202.3 1153.23   8
  -6  10  -1 8456.04 567.252   8
  -6  10   1 8779.42 580.624   8
  -6  10  -2 2810.93 356.721   8
  -6  10   2 2666.72 354.320   8
  -6  10   3-35.9315 188.005   8
  -6 -10  -4 3882.56 412.212   3
  -6  10   4 3960.32 403.439   8
  -6 -10  -5 1776.16 293.796   3
   6  10  -6 15.8299 205.784  12
   6 -10  -6 113.712 207.256   4
   6 -10  -6-88.6092 191.621   2
   6  10  -7 1109.69 305.048  12
   6  10  -7 978.587 205.729   7
   6 -10  -7 882.604 331.200   4
   6  10  -8 1718.75 369.739  12
   6  10  -8 496.292 201.267   7
   6 -10  -8 1159.84 318.270   4
  -6  10  -9 939.243 258.290   7
   6 -10  -9 513.506 270.859   4
   6  10 -10 3573.34 379.203   7
  -6  10 -10 4398.15 416.224   7
  -6  10 -11 155.796 227.831   7
   6  10 -11-23.6185 190.317   7
  -6  10 -12 1023.09 277.864   7
   6  10 -12 1504.56 273.626   7
   6 -10 -12 993.958 243.850  11
  -6  10 -12 1430.96 286.529  15
  -6  10 -13 120.171 206.635   7
   6 -10 -13-21.5410 195.260  11
  -6  10 -13 331.499 212.370  15
  -6  10 -14 619.554 235.180   7
  -6  10 -14 842.485 223.498  15
   6 -10 -14 362.836 197.353  11
  -6  10 -15 557.824 200.951   7
   6 -10 -15 114.907 165.799  11
  -6  10 -15 253.687 175.561  15
  -6  10 -16 48.3950 137.033   7
  -6  11   0 656.881 249.850   8
  -6  11   1 3735.38 413.001   8
  -6  11  -1 3332.39 412.359   8
  -6  11   2 4178.40 441.489   8
  -6  11  -2 4262.80 457.719   8
   6  11  -3 9467.28 668.315  12
  -6  11   3 9507.25 640.587   8
   6  11  -3 10260.7 282.162   7
   6  11  -4 451.121 284.406  12
   6  11   4-148.930 244.410   6
  -6  11   4 230.260 193.198   8
   6  11  -5 648.318 289.768  12
   6  11  -5 2159.55 227.868   7
   6  11  -6 1555.35 362.207  12
   6  11  -6 2092.42 243.298   7
   6  11  -7 3921.83 478.492  12
   6  11  -7 3368.02 312.075   7
   6  11  -8 97.6938 238.866  12
   6  11  -8-313.721 229.201   7
   6  11  -9 1717.06 314.129   7
  -6  11 -10 268.921 226.294   7
   6  11 -10-272.489 213.181   7
  -6  11 -11 630.949 250.774   7
   6  11 -11 391.778 208.010   7
  -6  11 -12 1350.69 278.741   7
   6  11 -12 601.504 233.650   7
  -6  11 -13 649.917 237.193   7
   6  11 -13 485.249 191.550   7
  -6  11 -14 218.011 187.822   7
  -6  11  14 18.0205 208.855   6
  -6  11 -14-127.981 157.858  15
  -6  11 -15 64.7597 142.991   7
  -6  11  15-166.209 190.433   6
   6  12   0 3096.91 410.979   6
   6  12  -1 268.145 241.304  12
   6  12  -1 291.313 284.567   6
   6  12   1 267.456 262.633   6
   6  12  -2 2369.82 408.929  12
   6  12  -2 2709.28 440.903   6
   6  12   2 2155.75 380.300   6
   6  12  -3 5395.80 549.568  12
   6  12  -3 5440.99 570.081   6
   6  12   3 5152.87 509.855   6
   6  12  -4 668.557 290.724  12
   6  12   4 822.478 293.578   6
  -6  12   4 610.082 297.892   6
   6  12  -5 52.0949 235.494  12
   6  12  -5 711.203 180.717   7
   6  12   5-96.7575 253.978   6
  -6  12   5 26.1065 276.982   6
   6  12  -6 639.600 265.440  12
   6  12  -6 721.099 194.946   7
  -6  12   6 650.105 299.521   6
   6  12  -7 2080.57 371.159  12
   6  12  -7 1547.90 264.681   7
   6  12  -8 2587.51 395.938  12
   6  12  -8 1936.95 292.989   7
   6  12  -9-135.611 213.693   7
   6  12 -10 970.218 268.065   7
  -6  12  10 879.998 295.759   6
  -6  12 -11 251.698 199.253   7
   6  12 -11 23.9597 178.786   7
  -6  12  11 21.0739 252.957   6
  -6  12 -12 13.1744 179.284   7
   6  12 -12 308.040 175.508   7
  -6  12  12-113.631 243.332   6
  -6  12 -13 41.7735 165.710   7
   6  12 -13-11.7808 139.646   7
  -6  12  13-43.3689 203.255   6
  -6  12 -14 675.041 194.001   7
  -6  12  14 416.470 216.180   6
   6  13   0 8935.20 699.933  12
   6  13   0 8669.67 666.128   6
   6  13   0 10371.4 300.894   7
   6  13  -1 1280.14 351.660  12
   6  13  -1 989.802 322.913   6
   6  13   1 1142.04 315.643   6
   6  13  -2 780.223 313.678  12
   6  13  -2 1044.04 315.253   6
   6  13   2 640.646 286.443   6
   6  13  -3 479.013 283.634  12
   6  13   3 229.450 259.844   6
   6  13  -4 3499.81 454.538  12
   6  13   4 3697.59 481.297   6
  -6  13   4 3048.18 461.504   6
   6  13  -4 3855.97 296.049   7
   6  13  -5 1139.96 314.024  12
   6  13  -5 656.328 212.095   7
   6  13   5 945.868 302.243   6
  -6  13   5 492.394 280.141   6
   6  13  -6 1760.83 356.789  12
  -6  13   6 1723.27 373.502   6
   6  13  -7 205.491 225.838  12
   6  13  -7-493.106 233.747   7
  -6  13   7 118.511 273.370   6
   6  13  -8-36.8526 197.194  12
   6  13  -8 115.106 189.138   7
  -6  13   8 0.25508 231.185   6
   6  13  -9 1175.02 266.945   7
  -6  13   9 1258.89 338.913   6
  -6  13  10 1094.09 300.601   6
   6  13 -10 890.221 234.615   7
   6  13 -11-72.9743 155.572   7
  -6  13  11 204.669 239.674   6
  -6  13 -12 301.543 179.170   7
   6  13 -12 199.407 153.155   7
  -6  13  12 29.4898 209.111   6
   6  13 -13 112.158 130.880   7
  -6  13  13 119.426 180.204   6
   6  14   0 247.433 250.395  12
   6  14   0 205.338 272.317   6
   6  14  -1 3953.29 496.696  12
   6  14   1 3748.77 476.331  12
   6  14  -1 4140.84 499.656   6
   6  14   1 3656.70 473.625   6
   6  14  -1 5155.17 289.231   7
   6  14  -2 574.960 274.258  12
   6  14  -2 1056.78 212.932   7
   6  14  -3 1400.62 333.705  12
   6  14  -3 979.442 216.526   7
   6  14   3 1318.06 337.248   6
   6  14  -4 707.147 277.496  12
   6  14  -4 182.954 174.832   7
   6  14   4 483.409 272.355   6
   6  14  -5 1615.97 330.807  12
   6  14  -5 589.055 205.205   7
   6  14   5 1788.15 382.539   6
  -6  14   5 1370.47 336.637   6
   6  14  -6 953.859 294.709  12
  -6  14   6 1037.49 304.133   6
   6  14  -7 2830.81 376.739  12
  -6  14   7 2966.46 432.384   6
   6  14  -7 3622.01 349.919   7
   6  14  -8 242.444 188.514   7
  -6  14   8-104.488 221.146   6
   6  14  -9 1190.21 253.976   7
  -6  14   9 1432.30 309.615   6
   6  14 -10 574.129 180.188   7
  -6  14  10 775.746 261.717   6
   6  14 -11-66.2534 131.024   7
  -6  14  11-57.0919 185.310   6
   6  15   0 758.321 282.078  12
   6  15   0 1146.97 332.528   6
   6  15  -1 287.016 240.607  12
   6  15   1 164.247 233.025  12
   6  15  -1 644.090 163.477   7
   6  15   1 300.020 239.377   6
   6  15  -2 209.584 239.139  12
   6  15   2 4.17779 214.575  12
   6  15  -2 111.147 135.942   7
   6  15   2 462.799 249.114   6
   6  15  -3 1891.83 364.449  12
   6  15   3 1353.66 314.307  12
   6  15   3 1959.05 339.678   6
   6  15  -4 1538.11 333.681  12
   6  15  -4 702.292 191.671   7
   6  15   4 1342.15 315.594   6
   6  15  -5-138.279 217.985  12
   6  15  -5-556.533 209.599   7
   6  15   5 233.402 228.895   6
  -6  15   5-204.481 229.555   6
   6  15  -6 473.997 232.660  12
   6  15  -6 852.166 218.928   7
   6  15   6 535.325 264.337   6
  -6  15   6 124.074 240.907   6
   6  15  -7 701.335 228.044  12
   6  15  -7 920.104 214.594   7
  -6  15   7 654.871 247.283   6
   6  15  -8 31.5161 149.689   7
  -6  15   8 260.043 212.326   6
   6  15  -9 20.7143 132.328   7
  -6  15   9 453.751 215.459   6
   6  15 -10 257.938 140.443   7
  -6  15  10 309.341 197.957   6
   6  16   0 4113.40 459.886  12
   6  16  -1 1150.59 306.509  12
   6  16   1 964.636 282.642  12
   6  16   1 1189.57 289.664   6
   6  16  -2 1069.30 288.607  12
   6  16   2 932.302 268.929  12
   6  16   2 1200.77 292.905   6
   6  16  -3 81.4674 217.480  12
   6  16   3 247.601 199.728  12
   6  16  -3-370.788 168.421   7
   6  16   3 39.0770 189.698   6
   6  16  -4 181.303 197.959  12
   6  16   4-88.1959 204.922  12
   6  16  -4 58.0769 142.886   7
   6  16   4-32.1109 200.866   6
   6  16  -5-16.0040 175.194  12
   6  16   5-93.9532 177.688  12
   6  16  -5 301.462 159.092   7
   6  16   5 290.613 221.303   6
   6  16  -6 105.576 182.613  12
   6  16   6 106.456 166.799  12
   6  16  -6 428.612 165.182   7
   6  16   6 494.578 235.414   6
  -6  16   6-10.1049 177.473   6
   6  16   7-387.153 196.210  12
   6  16  -7-5.74820 121.552   7
  -6  16   7-128.605 169.679   6
   6  16  -8 632.954 159.050   7
   6  17   0 1221.72 266.927  12
   6  17  -1 378.242 197.107  12
   6  17   1 345.039 202.737  12
   6  17  -2-10.2736 187.282  12
   6  17   2 126.596 181.431  12
   6  17  -3 393.686 206.767  12
   6  17   3 356.280 193.231  12
   6  17  -4 252.584 186.835  12
   6  17   4 116.375 145.674  12
  -7   0   0-97.9517 134.016   9
   7   0  -1 21.4523 112.695   1
  -7   0   1 0.11878 133.570   9
   7   0  -2 105990. 1388.24   1
  -7   0   2 106431. 1523.47   9
   7   0  -3 8.56745 125.297   1
  -7   0   3 26.9449 133.028   9
  -7   0   4 3609.88 323.541   9
   7   0  -4 4165.01 316.234   1
   7   0  -5 25.5957 117.680   1
  -7   0   5 47.2963 147.428   9
   7   0  -6 2008.91 249.439   1
  -7   0   6 1961.41 315.847   9
  -7   0   7 32.3374 164.045   9
   7   0  -7 26.4441 131.483   1
   7   0  -8 35601.6 994.481   1
   7   0  -8 36743.7 1060.20  20
   7   0  -9-51.9484 178.942  20
   7   0 -10 151.990 207.132  20
   7   0 -11-14.9240 223.046  20
  -7   0 -12 5892.74 444.952  11
   7   0 -12 4789.61 538.593  20
  -7   0 -13-320.571 274.841  11
   7   0 -13-559.523 353.309   5
   7   0 -14 1643.09 378.892   5
  -7   0 -14 1996.47 331.815  11
   7   0 -15 99.3625 278.244   5
  -7   0 -15 213.801 225.656  11
   7   0 -16 1378.06 367.083   5
  -7   0 -16 1809.78 324.239  11
   7   0 -17 29.4070 247.143   5
  -7   0 -17 95.7619 205.216  11
   7   0 -18 677.110 253.207   5
  -7   0 -18 639.619 208.688  11
   7   0 -19-129.320 189.122   5
  -7   0 -19 129.093 157.707  11
  -7  -1   0 10.8968 112.433   3
   7  -1   0-25.8389 99.9897   1
  -7  -1   0 81.1554 132.180   9
  -7   1   0 4.96378 147.628   9
   7  -1  -1 6093.82 332.565   1
   7  -1   1 5820.76 322.664   1
  -7  -1   1 5888.70 361.714   9
  -7   1   1 5688.11 370.550   9
  -7  -1  -1 5774.81 324.778   3
  -7  -1   1 5544.61 302.469   3
   7   1  -2 37077.3 841.022   1
  -7  -1   2 38284.9 900.916   9
  -7   1   2 38230.3 939.083   9
  -7  -1  -2 38477.1 825.871   3
  -7  -1   2 36342.8 735.016   3
   7  -1  -2 38350.3 831.927   1
   7   1  -3 17017.1 577.627   1
  -7  -1   3 17191.4 629.689   9
  -7   1   3 16988.0 653.597   9
   7  -1  -3 17085.6 584.446   1
   7  -1  -4 37881.2 895.224   1
  -7  -1   4 37916.0 959.874   9
  -7   1   4 37625.0 991.153   9
   7   1  -4 37987.6 891.459   1
   7  -1  -5 57601.4 1128.14   1
  -7  -1   5 56201.1 1210.72   9
  -7   1   5 57848.1 1279.21   9
   7   1  -5 56503.9 1109.71   1
   7  -1  -6 36141.1 953.232   1
   7   1  -6 36046.4 934.665   1
  -7  -1   6 36225.8 1028.52   9
  -7   1   6 35442.9 1058.25   9
   7  -1  -7 6207.09 432.113   1
   7   1  -7 6364.80 428.518   1
  -7  -1   7 6835.12 491.889   9
  -7   1   7 6534.23 506.417   9
   7   1  -8 10285.2 557.127   1
   7  -1  -8 11030.2 607.797  20
  -7   1   8 10855.5 682.093   9
  -7  -1   8 11154.9 658.376   9
   7   1  -9 8422.01 554.512  20
   7  -1  -9 8100.21 569.219  20
   7  -1 -10 15052.8 810.543  20
   7   1 -10 13522.3 749.005  20
   7  -1 -11 605.950 297.394  20
   7   1 -11 402.504 229.521  20
  -7   1 -12 21180.3 774.792  11
  -7  -1 -12 20216.7 771.038  11
   7  -1 -12 16205.2 939.891  20
   7   1 -12 17210.6 972.499  20
  -7   1 -12 21345.7 835.775   7
  -7   1 -12 21689.2 791.022  15
   7  -1 -12 20145.5 931.075   5
   7  -1 -13 419.429 338.849   5
  -7   1 -13-49.5045 239.456  11
  -7  -1 -13 345.696 252.201  11
  -7   1 -13 290.691 231.508   7
   7  -1 -14 115.400 287.974   5
  -7   1 -14-99.1892 231.849  11
  -7  -1 -14 418.945 261.922  11
   7   1 -14 401.967 315.673   5
   7  -1 -15 319.965 264.025   5
   7   1 -15 625.881 308.948   5
  -7   1 -15 688.144 248.545  11
  -7  -1 -15 567.483 255.513  11
   7  -1 -16 211.136 292.856   5
   7   1 -16 394.776 305.883   5
  -7   1 -16 423.137 238.658  11
  -7  -1 -16 359.703 240.738  11
   7  -1 -17 672.498 274.136   5
   7   1 -17 279.146 238.514   5
  -7   1 -17 396.737 223.095  11
  -7  -1 -17 168.987 204.516  11
   7  -1 -18-7.11667 200.688   5
   7   1 -18 482.641 237.001   5
  -7   1 -18-97.3250 177.891  11
  -7  -1 -18-67.0067 174.306  11
   7  -1 -19 113.288 175.826   5
   7   1 -19 257.461 195.157   5
  -7  -1 -19 137.625 145.249  11
  -7  -2   0 91.6199 127.227   3
  -7   2   0 57.2151 138.960   9
   7  -2   0 84.0088 116.473   1
  -7  -2   1 42075.7 911.238   9
  -7   2   1 42024.3 997.469   9
   7  -2   1 42276.1 819.141   1
  -7  -2  -1 42565.0 875.086   3
   7  -2  -1 42174.0 851.679   1
  -7  -2   1 42697.6 849.712   3
   7  -2   2 13773.1 471.653   1
  -7  -2   2 13035.4 517.957   9
  -7   2   2 13514.4 582.172   9
   7  -2  -2 13837.9 509.626   1
  -7  -2  -2 13644.1 513.622   3
  -7  -2   2 13454.6 474.586   3
   7   2  -3 2458.49 239.703   1
   7  -2  -3 2059.62 225.426   1
  -7  -2   3 2444.55 259.054   9
  -7   2   3 2190.33 269.837   9
  -7  -2  -3 2186.25 230.351   3
  -7  -2  -4 1070.21 183.205   3
  -7   2   4 1021.12 205.182   9
   7   2  -4 1182.11 188.273   1
   7  -2  -4 1171.05 186.119   1
   7  -2  -5 49765.6 1078.61   1
  -7   2   5 50341.8 1210.66   9
   7   2  -5 49547.2 1037.41   1
   7   2  -6-159.463 147.262   1
   7  -2  -6-60.4244 130.095   1
  -7   2   6 161.762 186.030   9
   7   2  -7 2041.24 246.965   1
  -7   2   7 1793.22 304.724   9
  -7   2   8 1336.00 287.765   9
   7   2  -9 12307.4 665.836  20
   7  -2  -9 13175.8 715.983  20
   7  -2 -10 182.771 210.301  20
   7   2 -10 259.657 210.927  20
   7  -2 -11 6392.07 583.171  20
   7   2 -11 6717.37 560.043  20
  -7   2 -12 837.818 289.662   7
   7  -2 -12 644.978 278.317   5
  -7   2 -12 1171.32 283.149  11
  -7  -2 -12 691.853 251.814  11
   7  -2 -12 459.897 243.853  20
   7   2 -12 817.351 288.249  20
  -7   2 -12 919.938 277.999  15
   7  -2 -13 460.263 305.342   5
  -7   2 -13 474.821 253.707  11
  -7  -2 -13 540.117 256.417  11
   7  -2 -13 502.379 227.168  11
  -7   2 -13 624.584 292.532  15
  -7   2 -13 509.871 262.300   7
   7  -2 -14 10.2075 266.930   5
  -7   2 -14-343.011 259.608  11
  -7  -2 -14-54.9768 227.953  11
   7  -2 -14-229.215 248.219  11
  -7   2 -14 687.519 267.875  15
  -7   2 -14 78.6139 206.131   7
   7  -2 -15 1724.01 397.890   5
  -7   2 -15 2416.42 346.173  11
  -7  -2 -15 1998.43 323.358  11
   7   2 -15 2101.90 411.260   5
   7  -2 -15 1564.23 277.848  11
   7  -2 -16-131.749 264.259   5
   7   2 -16-184.855 273.524   5
  -7   2 -16 231.661 241.297  11
  -7  -2 -16 22.1316 212.814  11
   7  -2 -16 13.6005 196.843  11
   7  -2 -17 211.907 240.170   5
   7   2 -17 299.699 256.407   5
  -7   2 -17 175.432 196.779  11
  -7  -2 -17 923.721 249.398  11
   7  -2 -17 37.4562 174.483  11
   7  -2 -18-227.622 211.804   5
   7   2 -18 225.172 220.515   5
  -7  -2 -18-97.0103 181.679  11
  -7  -2 -19 543.297 171.691  11
   7  -2 -19-125.517 166.593   5
  -7  -3   0 53.2167 115.999   3
   7  -3   0 112.069 107.216   1
  -7   3   0 75.6830 152.178   9
   7  -3  -1 474.139 134.653   1
  -7  -3  -1 270.686 126.665   3
  -7  -3   1 155.023 105.360   3
   7  -3   1 251.729 119.962   1
  -7   3   1 444.390 169.467   9
  -7  -3   2 7089.26 371.764   3
   7  -3  -2 6734.63 371.002   1
  -7   3   2 6862.91 436.563   9
  -7  -3  -2 6750.27 384.762   3
   7  -3  -3 58004.4 1092.16   1
  -7   3   3 59177.8 1248.06   9
  -7  -3  -3 57781.3 1104.33   3
   7  -3  -4 3545.85 300.137   1
  -7  -3  -4 3272.56 287.289   3
   7   3  -4 3081.71 274.052   1
  -7   3   4 3080.89 323.018   9
   7   3  -5 181216. 1979.86   1
   7  -3  -5 180848. 2056.91   1
  -7   3   5 180985. 2350.27   9
  -7  -3  -5 179530. 2018.62   3
  -7   3   6 6329.77 483.801   9
   7   3  -6 6358.95 406.597   1
  -7   3   7 119.218 170.934   9
  -7   3   8-41.4199 192.855   9
  -7   3   9 9443.27 683.090   9
   7   3 -10-7.83382 179.533  20
  -7   3  10 230.546 258.545   9
   7  -3 -10 42.2572 206.422  20
   7  -3 -11 3019.57 423.657  20
   7   3 -11 2661.83 385.766  20
  -7   3  11 2934.79 436.215   9
   7  -3 -11 2651.66 338.577   2
  -7   3 -12 456.726 264.008   7
   7  -3 -12 386.564 280.494   5
  -7   3 -12 454.821 247.693  11
  -7  -3 -12-48.7284 225.820  11
  -7   3 -12 539.902 271.930  15
   7  -3 -13 2798.53 460.036   5
  -7   3 -13 4151.09 411.051  11
  -7  -3 -13 3164.05 385.300  11
   7  -3 -13 4127.11 386.345  11
  -7   3 -13 3136.02 412.134   7
  -7   3 -13 3335.27 406.747  15
   7  -3 -14 646.744 315.734   5
  -7   3 -14 424.009 256.797  11
  -7  -3 -14 631.323 272.083  11
   7  -3 -14 123.216 204.788  11
  -7   3 -14 345.538 231.474  15
  -7   3 -14 139.153 227.855   7
   7  -3 -15 1735.76 374.278   5
  -7   3 -15 2385.06 348.882  11
  -7  -3 -15 2089.75 336.571  11
   7  -3 -15 1155.95 271.111  11
  -7   3 -15 1785.38 340.639  15
  -7   3 -15 1314.20 318.791   7
   7  -3 -16-459.713 308.252   5
  -7   3 -16 31.1649 202.735  11
   7   3 -16 107.949 250.513   5
  -7  -3 -16 155.864 223.378  11
   7  -3 -16-597.605 243.737  11
   7  -3 -17 640.128 263.823   5
   7   3 -17 709.027 291.739   5
  -7  -3 -17 44.8339 193.685  11
   7  -3 -17 350.632 193.898  11
   7  -3 -18 44.5927 206.222   5
   7   3 -18 574.044 244.321   5
  -7  -3 -18-60.5997 165.683  11
   7  -3 -18-39.5749 164.880  11
  -7   4   0 53.8402 155.923   9
  -7  -4   0 82.5905 123.681   3
   7  -4   0 192.311 105.227   1
  -7  -4  -1 7463.73 409.636   3
  -7  -4   1 7403.99 394.746   3
   7  -4  -1 7681.50 393.133   1
  -7   4   1 7573.46 466.983   9
  -7  -4   2 45399.5 951.656   3
   7  -4  -2 46940.3 977.246   1
  -7   4   2 46316.2 1120.32   9
  -7  -4  -2 46985.5 1011.51   3
  -7  -4   3 6208.86 366.178   3
   7  -4  -3 5834.88 373.774   1
  -7   4   3 6594.56 453.423   9
  -7  -4  -3 6124.38 383.527   3
  -7  -4  -4 5025.45 369.118   3
  -7   4   4 4756.89 396.923   9
   7   4  -5 68130.3 1244.02   1
  -7   4   5 65607.7 1447.46   9
  -7  -4  -5 66992.6 1260.16   3
  -7   4   6 5782.16 472.222   9
  -7  -4  -6 6234.20 410.354   3
  -7   4   7 222.164 175.130   9
  -7   4   8 11135.1 704.487   9
  -7   4   9 5397.43 531.478   9
   7  -4 -10-57.3815 189.968   2
  -7   4  10 47.3636 196.637   9
  -7   4 -11 2231.39 323.326   7
   7  -4 -11 1368.10 305.463  20
   7   4 -11 1660.15 330.171  20
  -7   4  11 1903.12 372.503   9
   7  -4 -11 1622.89 295.683   2
  -7   4 -12 5642.84 442.078  11
  -7  -4 -12 4623.14 418.550  11
   7  -4 -12 4512.23 463.459   4
  -7   4 -12 4994.59 485.881   7
  -7   4 -12 5142.24 448.410  15
   7  -4 -12 4935.33 505.299   5
  -7   4 -13 225.469 258.897   7
   7  -4 -13 30.8251 268.199   5
  -7   4 -13 397.291 255.137  11
  -7  -4 -13 267.426 232.494  11
   7  -4 -13 695.360 248.246  11
  -7   4 -13 243.977 262.831  15
  -7   4 -14-54.7559 234.571   7
   7  -4 -14 132.954 255.334   5
  -7   4 -14 187.628 230.362  11
  -7  -4 -14 22.7723 234.554  11
   7  -4 -14-317.681 228.321  11
  -7   4 -14-109.557 254.256  15
   7  -4 -15 845.431 320.979   5
  -7   4 -15 1507.94 291.322  11
  -7  -4 -15 1497.84 305.647  11
   7  -4 -15 732.019 242.380  11
  -7   4 -15 1056.03 289.084  15
  -7   4 -15 481.011 286.505   7
   7  -4 -16 242.472 240.304   5
  -7  -4 -16 493.500 238.131  11
   7   4 -16 346.965 273.452   5
  -7   4 -16 107.292 199.865   7
   7  -4 -17-0.09548 213.860   5
   7   4 -17 274.614 251.783   5
  -7  -4 -17 23.5574 186.887  11
   7  -4 -17-215.653 195.686  11
   7   4 -18 48.6391 202.317   5
  -7  -4 -18 87.2872 174.279  11
   7  -4 -18 291.479 173.671  11
   7  -4 -18 518.559 222.166   5
  -7   5   0-55.9306 159.862   9
  -7  -5   0 56.4066 134.655   3
  -7  -5  -1 3585.61 309.065   3
  -7  -5   1 3648.62 309.395   3
  -7   5   1 3500.65 334.748   9
  -7  -5  -2 100441. 1538.60   3
  -7   5   2 102333. 1466.45   8
  -7   5   2 100624. 1691.35   9
  -7   5   3 12875.4 625.623   9
  -7  -5  -3 13013.6 571.773   3
  -7   5   4 45865.4 1214.66   9
  -7  -5  -4 48037.2 1094.58   3
  -7  -5  -5-61.0592 127.612   3
  -7   5   5 155.135 156.859   9
  -7   5   6 4306.11 441.136   9
  -7  -5  -6 3729.78 349.086   3
  -7   5   7 3605.60 415.404   9
  -7  -5  -7 3722.53 348.443   3
  -7   5   8 981.966 278.627   9
   7  -5  -9-158.269 172.695   2
  -7   5   9 124.130 194.747   9
   7  -5 -10 13800.6 717.104   2
  -7   5  10 13031.0 817.142   9
  -7   5 -11 2329.54 359.388   7
   7  -5 -11 1550.53 361.346   5
   7  -5 -11 1566.61 356.672   4
  -7   5 -11 2024.56 312.960  15
   7  -5 -12 9054.35 669.869   4
  -7   5 -12 10182.5 613.281  15
   7  -5 -12 9132.72 681.592   5
  -7   5 -13 1006.10 297.211   7
   7  -5 -13 493.281 303.352   5
   7  -5 -13 413.827 259.786   4
  -7   5 -13 752.028 254.397  15
  -7   5 -14 328.007 261.420   7
   7  -5 -14 427.632 281.896   5
  -7  -5 -14 64.5572 213.381  11
  -7   5 -14 182.107 230.423  15
   7  -5 -14-30.9883 192.766  11
   7  -5 -15-104.387 255.243   5
  -7  -5 -15 107.313 213.293  11
   7  -5 -15 60.6374 201.683  11
  -7   5 -15 17.0557 211.627  15
  -7   5 -15 213.050 227.010   7
   7  -5 -16 131.953 215.723   5
  -7  -5 -16 277.727 216.335  11
  -7   5 -16 181.274 214.197  15
  -7   5 -16 3.09731 199.509   7
   7   5 -17 155.018 210.241   5
  -7  -5 -17 76.0159 181.568  11
   7  -5 -17 35.0688 158.578  11
   7  -5 -17 393.892 238.946   5
   7   5 -18 108.337 200.226   5
  -7  -5 -18-415.297 188.518  11
   7  -5 -18-54.9921 138.831  11
  -7  -6   0-119.649 142.785   3
  -7   6   0-64.1154 167.243   9
  -7  -6  -1 1437.00 210.295   3
  -7   6   1 1683.71 262.801   9
  -7   6   1 1804.17 238.706   8
  -7  -6  -2 65075.9 1299.23   3
  -7   6   2 63125.7 1400.56   9
  -7   6   2 66118.3 1245.30   8
  -7  -6  -3 757.975 182.982   3
  -7   6   3 561.056 211.246   9
  -7   6   4 1618.07 274.008   9
  -7  -6  -4 1815.99 270.200   3
  -7   6   5 2806.25 356.300   9
  -7  -6  -5 3106.09 316.330   3
  -7  -6  -6 1097.08 217.846   3
  -7   6   6 1088.80 256.085   9
   7  -6  -7 807.273 212.141   2
  -7  -6  -7 930.478 205.342   3
  -7   6   7 497.073 213.681   9
  -7   6   8 13645.0 794.290   9
   7  -6  -8 14627.2 685.879   2
   7  -6  -9 4592.33 424.927   2
  -7   6   9 3756.29 453.676   9
  -7   6 -10 261.146 203.321   7
  -7   6  10 193.695 212.107   9
   7  -6 -10 249.837 235.776   4
   7  -6 -10 1.66480 192.597   2
  -7   6 -10-25.2177 191.496  15
  -7   6 -11 2666.51 365.104   7
   7  -6 -11 1789.59 392.662   5
   7  -6 -11 2233.67 379.955   4
  -7   6 -11 2149.36 340.042  15
   7  -6 -12 3549.38 453.782   4
  -7   6 -12 3447.90 433.080   7
  -7   6 -12 4283.95 415.434  15
   7  -6 -12 3954.54 493.757   5
   7  -6 -13 292.494 282.103   5
  -7   6 -13 28.9525 223.474   7
   7  -6 -13-55.2346 238.056   4
   7  -6 -13 445.139 247.283  11
  -7   6 -13 92.9080 234.746  15
   7  -6 -14 199.230 273.370   5
  -7   6 -14 85.6192 217.209   7
   7  -6 -14-52.8710 196.836  11
  -7   6 -14 108.093 219.063  15
  -7   6 -15 2.45305 197.412   7
   7  -6 -15-343.914 213.363  11
  -7   6 -15 379.862 206.041  15
   7  -6 -15 320.334 233.127   5
   7  -6 -16-282.995 198.044  11
  -7   6 -16 128.823 199.657  15
   7  -6 -16 403.952 230.490   5
  -7   6 -16 232.727 197.097   7
   7   6 -17 58.7267 209.009   5
   7  -6 -17-87.0431 160.138  11
   7  -6 -18-116.288 142.659  11
  -7   7   0 8.27891 154.095   8
  -7  -7  -1 3725.83 358.185   3
  -7   7   1 3524.95 365.920   9
  -7   7   1 3869.41 352.608   8
  -7  -7  -2 7341.43 478.837   3
  -7   7   2 7262.32 506.614   9
  -7   7   2 7484.49 460.933   8
  -7  -7  -3 9130.31 533.806   3
  -7   7   3 9429.52 567.706   9
  -7   7   3 9091.99 504.102   8
  -7  -7  -4 9006.38 532.225   3
  -7   7   4 8693.05 565.583   9
  -7   7   5 64480.3 1543.67   9
   7  -7  -5 67262.3 1368.50   2
  -7  -7  -5 65410.8 1411.47   3
  -7   7   6 5983.67 506.437   9
   7  -7  -6 6258.85 448.383   2
  -7  -7  -6 6133.30 452.922   3
  -7  -7  -7-84.9354 162.765   3
  -7   7   7-176.186 201.134   9
   7  -7  -7-126.559 170.754   2
  -7   7   8-195.155 205.564   9
   7  -7  -8 295.600 191.956   2
   7  -7  -9 7294.85 546.301   4
   7  -7  -9 5951.63 507.439   2
  -7   7   9 6625.41 594.964   9
   7  -7 -10 1723.05 373.212   5
  -7   7 -10 1467.30 312.746   7
   7  -7 -10 1280.02 325.450   4
  -7   7 -10 1455.26 301.105  15
   7  -7 -11 1247.06 332.188   5
  -7   7 -11 1327.68 301.648   7
  -7   7 -11 1220.66 298.413  15
   7  -7 -11 1427.67 351.025   4
  -7   7 -12 595.619 284.804   7
   7  -7 -12 711.534 291.006   4
  -7   7 -12 1082.32 301.743  15
   7  -7 -12 1357.82 328.061   5
  -7   7 -13 3017.76 395.075   7
   7  -7 -13 1987.65 382.623   5
   7  -7 -13 2686.04 336.083  11
   7  -7 -13 1814.43 368.685   4
  -7   7 -13 2378.48 360.737  15
  -7   7 -14 318.578 232.486   7
   7  -7 -14 571.840 225.808  11
  -7   7 -14 112.300 226.488  15
   7  -7 -14 20.3806 244.655   5
  -7   7 -15 1248.39 278.628   7
   7  -7 -15 853.020 221.085  11
  -7   7 -15 1234.27 275.265  15
   7  -7 -16-477.380 201.196  11
  -7   7 -16 38.8613 169.582  15
  -7   7 -16 42.3111 173.650   7
   7  -7 -17 104.787 147.260  11
  -7   7 -17-56.2616 151.594   7
  -7   8   0-30.2818 177.785   8
  -7   8   1 16400.6 713.655   8
  -7  -8  -2 207.444 152.681   3
  -7   8   2 107.313 159.545   8
  -7  -8  -3 1164.89 251.930   3
  -7   8   3 974.022 205.950   8
  -7  -8  -4 5789.61 459.555   3
   7  -8  -4 5788.20 420.481   2
   7  -8  -5 20318.6 787.882   2
  -7  -8  -5 18160.8 794.072   3
  -7  -8  -6 310.085 178.522   3
   7  -8  -6-41.9538 171.628   2
   7  -8  -7 8.26711 175.355   2
   7   8  -8 1080.93 309.411  12
   7  -8  -8 802.931 259.077   4
   7  -8  -8 612.597 234.857   2
   7  -8  -9 2864.25 393.294   4
  -7   8  -9 3457.14 391.945   7
  -7   8 -10 476.212 250.313   7
   7  -8 -10 457.485 274.556   4
   7  -8 -10 166.893 276.463   5
  -7   8 -11 409.804 271.375   7
   7  -8 -11 522.477 302.083   4
  -7   8 -11 439.110 251.569  15
  -7   8 -12 1250.81 306.688   7
   7  -8 -12 788.150 289.414   4
  -7   8 -12 631.283 261.668  15
  -7   8 -13 333.740 251.374   7
   7  -8 -13 857.262 259.858  11
  -7   8 -13 679.828 257.677  15
  -7   8 -14-107.226 205.923   7
   7  -8 -14-197.282 203.420  11
  -7   8 -14-31.9141 210.625  15
  -7   8 -15 268.435 218.652   7
   7  -8 -15 283.503 186.530  11
  -7   8 -15 848.634 228.461  15
   7  -8 -16-207.915 168.946  11
  -7   8 -16 382.621 178.521   7
   7  -8 -17-72.8242 131.583  11
  -7   8 -17 28.7400 129.569   7
  -7   9   0 24.1818 195.756   8
  -7   9  -1 1888.15 309.864   8
  -7   9   1 2567.32 335.310   8
  -7  -9  -2 11434.2 661.353   3
  -7   9   2 12243.6 652.594   8
  -7  -9  -3 23378.2 922.753   3
  -7   9   3 24394.2 918.974   8
  -7  -9  -4 92.3752 161.804   3
  -7  -9  -5 8190.06 579.011   3
   7  -9  -5 9162.07 573.993   2
  -7  -9  -6 302.715 181.642   3
   7  -9  -6 815.120 243.143   2
   7   9  -7 1275.02 326.097  12
   7  -9  -7 1207.00 321.923   4
   7   9  -7 1281.45 191.979   7
   7   9  -8 3147.29 435.575  12
   7   9  -8 1711.01 247.166   7
   7  -9  -8 2703.16 415.218   4
  -7   9  -9 1088.65 309.704   7
   7   9  -9 334.890 180.485   7
   7  -9  -9 1142.38 316.075   4
   7   9 -10 1278.30 260.390   7
   7  -9 -10 1329.37 359.461   4
  -7   9 -11 2714.88 366.257   7
   7  -9 -11 2092.13 369.446   4
   7  -9 -12 5586.49 435.568  11
  -7   9 -12 4461.52 464.905   7
  -7   9 -12 4093.94 403.711  15
  -7   9 -13 1099.83 284.736   7
  -7   9 -13 1738.90 294.281  15
   7  -9 -13 1099.75 274.092  11
  -7   9 -14 44.4173 184.588   7
   7  -9 -14-252.345 198.707  11
  -7   9 -14 29.3076 191.947  15
  -7   9 -15 182.914 175.271   7
   7  -9 -15-410.509 189.368  11
  -7   9 -15 10.5734 165.783  15
   7  -9 -16 84.5877 141.794  11
  -7   9 -16 26.1811 146.167   7
  -7  10   0-310.965 241.502   8
  -7  10   1 30.9364 194.856   8
  -7  10  -1 111.042 179.506   8
  -7 -10  -2 17414.3 843.699   3
  -7  10   2 17732.4 829.695   8
  -7 -10  -3 99.4563 192.903   3
  -7  10   3-56.0839 182.280   8
   7  10  -4 1767.83 337.330  12
  -7 -10  -4 1576.36 296.754   3
  -7 -10  -5 2384.29 355.088   3
   7  10  -5 2623.06 424.580  12
   7  10  -6 4116.12 487.285  12
   7 -10  -6 3565.68 441.094   4
   7  10  -6 4122.99 273.373   7
   7  10  -7-162.079 268.322  12
   7  10  -7 434.793 171.781   7
   7 -10  -7-114.425 234.272   4
   7  10  -8 1623.77 377.364  12
   7  10  -8 977.871 231.845   7
   7 -10  -8 1739.67 330.610   4
   7  10  -9-475.023 232.072   7
   7 -10  -9-24.8360 246.049   4
  -7  10 -10 155.331 221.463   7
   7  10 -10 92.0272 194.494   7
  -7  10 -11-31.8004 195.077   7
   7  10 -11 146.386 184.843   7
  -7  10 -12 1513.43 294.831   7
   7 -10 -12 806.584 215.029  11
  -7  10 -13 60.6110 187.265   7
   7 -10 -13-33.4026 179.830  11
  -7  10 -13 150.538 179.903  15
  -7  10 -14 39.9110 165.765   7
   7 -10 -14-403.300 199.407  11
  -7  10 -14-22.8996 173.011  15
  -7  10 -15-78.5508 152.992   7
   7 -10 -15-628.938 191.221  11
   7  11   0 49.4691 232.939  12
   7  11   0 188.431 239.851   6
   7  11  -1 2997.63 439.770  12
   7  11  -1 2829.15 413.190   6
   7  11   1 2541.06 387.127   6
   7  11  -2 4244.04 497.149  12
   7  11  -2 4594.18 517.836   6
   7  11   2 4465.80 488.416   6
   7  11  -3-141.040 272.669  12
   7  11   3-48.5928 235.525   6
   7  11  -4 5953.04 580.191  12
   7  11  -4 6338.10 286.755   7
   7  11  -5 1778.05 353.602  12
   7  11  -5 3854.73 256.621   7
   7  11  -6 2084.24 375.626  12
   7  11  -6 2081.81 238.245   7
   7  11  -7 1938.34 377.452  12
   7 -11  -7 2248.18 379.067   4
   7  11  -7 1671.90 250.611   7
   7  11  -8 457.428 265.365  12
   7  11  -8-154.827 202.527   7
   7  11  -9 307.864 215.044   7
   7  11 -10 2432.27 331.719   7
  -7  11 -11 802.290 240.470   7
   7  11 -11 825.012 228.343   7
  -7  11 -12 2525.48 319.277   7
   7  11 -12 1292.87 268.498   7
  -7  11 -13 172.106 179.640   7
  -7  11 -14-328.481 172.971   7
  -7  11  14-182.221 223.099   6
   7  12   0 308.043 275.475  12
   7  12   0 170.186 243.519   6
   7  12  -1 333.809 301.157  12
   7  12  -1 221.540 228.087   6
   7  12   1 498.398 279.111   6
   7  12  -2 149.880 252.431  12
   7  12   2 24.7282 217.514   6
   7  12  -3-27.2619 249.551  12
   7  12   3 435.292 280.099   6
   7  12  -4 99.0069 249.362  12
   7  12   4 228.760 255.569   6
   7  12  -5 2172.92 356.290  12
  -7  12   5 1968.61 379.501   6
   7  12  -5 2355.60 260.534   7
   7  12  -6 420.103 249.823  12
   7  12  -6 539.364 192.063   7
   7  12  -7 556.767 256.386  12
   7  12  -7-10.0702 190.250   7
   7  12  -8-425.684 231.385   7
   7  12  -9 666.961 240.139   7
   7  12 -10 232.749 191.145   7
   7  12 -11 686.795 214.402   7
  -7  12  11 839.818 287.864   6
  -7  12 -12-60.8936 164.435   7
   7  12 -12-39.9262 143.390   7
  -7  12  12 33.2844 217.337   6
  -7  12 -13-237.266 170.120   7
   7  12 -13 44.5817 119.338   7
  -7  12  13 310.178 216.964   6
   7  13   0 119.852 244.327  12
   7  13   0-420.086 286.765   6
   7  13  -1-177.888 253.521  12
   7  13   1-316.220 260.307  12
   7  13  -1-47.9146 230.881   6
   7  13   1 36.4214 244.040   6
   7  13  -2 384.490 279.474  12
   7  13   2 273.585 254.843   6
   7  13  -3 1348.90 347.767  12
   7  13   3 1969.15 403.768   6
   7  13  -4 3090.68 417.604  12
   7  13   4 3477.89 467.282   6
   7  13  -4 4229.17 310.879   7
   7  13  -5 2114.32 386.203  12
  -7  13   5 2023.34 376.257   6
   7  13  -5 1787.28 255.285   7
   7  13  -6 3154.44 436.586  12
   7  13  -6 2091.28 277.758   7
  -7  13   6 2875.45 442.015   6
   7  13  -7 62.1346 217.888  12
   7  13  -7-129.394 192.602   7
  -7  13   7-292.413 255.544   6
   7  13  -8 234.897 194.803   7
  -7  13   8 213.143 242.849   6
   7  13  -9 307.200 190.745   7
  -7  13   9 321.444 222.954   6
   7  13 -10 215.918 164.445   7
  -7  13  10-62.5019 239.612   6
   7  13 -11 181.707 150.834   7
  -7  13  11-23.5131 187.673   6
   7  13 -12-100.292 132.461   7
  -7  13  12-292.427 212.196   6
   7  14   0-11.2032 221.989  12
   7  14   0-46.1738 231.337   6
   7  14  -1 539.047 282.138  12
   7  14   1 417.731 258.383  12
   7  14   1 452.016 241.181   6
   7  14  -2 985.289 306.156  12
   7  14   2 686.974 276.935  12
   7  14   2 985.955 307.995   6
   7  14  -3 277.690 238.723  12
   7  14   3-24.3575 238.825  12
   7  14  -3 664.441 189.082   7
   7  14   3 63.8484 223.264   6
   7  14  -4 734.624 276.797  12
   7  14  -4 928.871 206.053   7
   7  14   4 1243.30 323.804   6
   7  14  -5 1014.53 293.198  12
   7  14  -5 369.142 187.923   7
   7  14  -6 227.657 215.380  12
   7  14  -6-116.105 182.779   7
  -7  14   6 128.128 213.129   6
   7  14  -7 6.36223 195.730  12
   7  14  -7 48.5073 160.118   7
  -7  14   7 35.1378 210.075   6
   7  14  -8 813.178 219.936   7
  -7  14   8 412.831 234.335   6
   7  14  -9-109.274 160.572   7
  -7  14   9 284.418 222.446   6
   7  14 -10-53.6077 134.238   7
  -7  14  10 40.7962 183.098   6
   7  14 -11 64.5992 117.001   7
  -7  14  11 90.4391 184.353   6
   7  15   0-58.8580 219.087  12
   7  15   0 1350.59 188.721   7
   7  15  -1 1002.63 296.441  12
   7  15   1 905.890 274.922  12
   7  15  -1 1719.96 205.865   7
   7  15  -2 2450.50 382.927  12
   7  15   2 1971.38 343.482  12
   7  15   2 1745.19 347.848   6
   7  15  -2 1637.07 227.382   7
   7  15  -3 1893.96 358.049  12
   7  15   3 1654.64 307.087  12
   7  15   3 2287.80 374.055   6
   7  15  -4 159.975 199.029  12
   7  15   4 146.248 194.092  12
   7  15  -4-217.195 177.617   7
   7  15  -5-73.6543 216.924  12
   7  15   5 26.9571 182.825  12
   7  15  -5-434.543 192.954   7
   7  15   5-253.859 237.489   6
  -7 -15  -6-57.0813 162.238  14
   7  15  -6 334.655 199.614  12
   7  15   6-163.482 205.390  12
   7  15  -6-25.4574 147.757   7
  -7  15   6-333.939 221.836   6
  -7 -15  -7-179.087 176.646  14
   7  15   7 45.3724 184.821  12
   7  15  -7-25.2210 147.470   7
  -7  15   7 119.238 196.416   6
   7  15  -8 29.7692 132.414   7
  -7  15   8 342.134 215.626   6
  -7 -15  -9 47.8300 143.276  14
   7  15  -9 67.2179 131.408   7
  -7  15   9 300.550 190.782   6
   7  16   0-190.276 211.438  12
   7  16  -1 416.598 218.489  12
   7  16   1 370.817 206.629  12
   7  16  -2 1197.43 289.346  12
   7  16   2 1189.13 260.995  12
   7  16  -2 512.667 157.671   7
   7  16  -3 26.0172 188.302  12
   7  16   3 70.6197 171.918  12
   7  16  -3-264.116 157.776   7
   7  16  -4 28.5847 173.345  12
   7  16   4-57.1221 167.377  12
   7  16  -4 130.430 147.411   7
   7  16  -5-237.229 180.330  12
   7  16   5 86.6595 165.871  12
   7  16  -5 55.1240 136.249   7
   7  16   6 68.9585 166.356  12
   7  16  -6-31.7663 126.982   7
   7  16  -7 66.3676 124.278   7
   7  17   0-130.070 162.962  12
   7  17  -1-8.67637 154.386  12
   7  17   1 100.563 159.589  12
   7  17  -2 69.9858 169.968  12
   7  17   2 137.084 144.733  12
   7  17  -3 152.909 169.089  12
   8   0   0 30168.4 792.995   1
  -8   0   0 29779.4 868.177   9
   8   0  -1 76.9440 132.115   1
  -8   0   1-270.994 166.887   9
   8   0  -2 41019.0 940.912   1
  -8   0   2 39833.1 1012.09   9
  -8   0   3-48.4105 167.536   9
   8   0  -3-27.5440 124.091   1
  -8   0   4 36917.9 1034.25   9
   8   0  -4 36042.1 939.359   1
   8   0  -5 133.913 146.290   1
  -8   0   5 70.1973 165.188   9
   8   0  -6 98655.2 1630.44   1
  -8   0   6 94974.3 1775.57   9
   8   0  -7 60.8516 132.266   1
  -8   0   7 64.8553 192.723   9
   8   0  -8 32202.7 1006.58   1
  -8   0   8 29882.7 1102.24   9
  -8   0   9 133.044 182.258   9
  -8   0  10 4069.02 462.628   9
  -8   0  11 84.2056 208.924   9
  -8   0 -12 1570.33 304.948  11
  -8   0 -13-229.984 226.710  11
   8   0 -13 432.233 311.988   5
   8   0 -14 440.286 302.865   5
  -8   0 -14 1212.38 276.360  11
   8   0 -15-330.605 292.277   5
  -8   0 -15-45.1470 223.664  11
  -8   0 -16 9870.24 576.830  11
   8   0 -16 10001.8 679.211   5
   8   0 -17 30.0718 234.079   5
  -8   0 -17-148.176 200.099  11
   8   0 -18 650.888 224.450   5
   8  -1   0 26738.5 732.880   1
  -8   1   0 26601.4 839.169   9
  -8  -1   0 25939.3 709.958   3
   8  -1  -1 1002.93 172.133   1
  -8  -1   1 959.191 187.821   9
   8  -1   1 921.769 156.113   1
  -8   1   1 944.628 194.427   9
  -8  -1   1 949.307 160.435   3
   8  -1   2 1223.41 181.817   1
  -8  -1   2 1358.60 217.473   9
  -8   1   2 1631.33 251.070   9
   8   1  -2 1543.60 232.436   1
   8  -1  -2 2023.86 267.127   1
   8  -1  -3 112.270 140.111   1
   8   1  -3-41.5145 118.825   1
  -8  -1   3 82.3436 138.832   9
  -8   1   3-93.4643 170.449   9
   8   1  -4 9594.46 489.268   1
   8  -1  -4 9506.10 513.980   1
  -8  -1   4 9957.58 535.297   9
  -8   1   4 9238.08 542.356   9
   8   1  -5 770.562 182.785   1
  -8   1   5 733.883 220.678   9
  -8  -1   5 874.237 221.152   9
   8  -1  -5 714.159 180.529   1
   8  -1  -6 2585.65 297.138   1
   8   1  -6 3047.82 315.911   1
  -8  -1   6 3185.30 348.120   9
  -8   1   6 2829.81 353.814   9
   8  -1  -7 335.263 167.072   1
  -8  -1   7 417.506 183.354   9
  -8   1   7 307.690 185.387   9
   8   1  -7 553.990 191.860   1
   8   1  -8 1530.77 255.757   1
  -8  -1   8 1392.26 263.676   9
  -8   1   8 1439.84 314.133   9
   8   1  -9-100.808 163.420   1
  -8   1   9 206.283 189.656   9
  -8  -1   9 115.235 190.083   9
  -8   1  10 1979.92 355.583   9
  -8  -1  10 1973.49 351.929   9
  -8   1  11 1205.94 306.020   9
  -8   1 -11 1832.74 308.807   7
  -8   1 -12 364.880 250.226  11
  -8  -1 -12 412.503 264.016  11
   8  -1 -12 312.548 305.069   5
   8  -1 -13 237.468 314.115   5
  -8   1 -13 271.419 242.302  11
  -8  -1 -13-85.2959 229.764  11
   8  -1 -14 1003.54 360.443   5
  -8   1 -14 2220.47 339.691  11
  -8  -1 -14 1781.14 321.787  11
   8   1 -14 1571.30 380.532   5
   8  -1 -15 490.554 290.680   5
   8   1 -15 268.789 275.797   5
  -8   1 -15 252.596 229.160  11
  -8  -1 -15 639.198 267.726  11
   8  -1 -16-11.5304 249.427   5
   8   1 -16 492.726 295.373   5
  -8   1 -16 420.774 237.718  11
  -8  -1 -16-56.9791 211.665  11
   8  -1 -17-14.7090 232.637   5
   8   1 -17-30.8033 218.972   5
  -8   1 -17-501.649 209.612  11
  -8  -1 -17 200.250 191.465  11
   8  -1 -18 90.7724 189.888   5
   8   1 -18-86.4794 201.718   5
  -8  -1 -18-113.184 158.024  11
  -8   2   0 1853.01 263.242   9
   8  -2   0 2202.42 231.407   1
  -8   2   1 124563. 1853.01   9
   8  -2  -1 124763. 1591.18   1
  -8  -2  -1 124465. 1625.46   3
  -8  -2   1 127602. 1582.31   3
   8  -2   1 123939. 1533.50   1
   8  -2  -2 8424.39 450.247   1
  -8   2   2 8671.81 503.983   9
  -8  -2  -2 8592.42 451.215   3
  -8  -2   2 8776.29 420.418   3
   8   2  -3 30814.0 856.595   1
   8  -2  -3 31920.3 850.778   1
  -8   2   3 30602.8 950.079   9
  -8  -2  -3 31831.1 848.497   3
   8   2  -4 2543.43 271.202   1
   8  -2  -4 2449.29 263.600   1
  -8   2   4 2538.69 310.046   9
   8  -2  -5 4602.44 359.850   1
  -8   2   5 4570.82 415.960   9
   8   2  -5 4047.65 334.571   1
   8  -2  -6 11411.4 578.668   1
   8   2  -6 11606.8 571.730   1
  -8   2   6 11698.1 657.482   9
   8  -2  -7 1649.78 258.088   1
   8   2  -7 1855.56 254.832   1
  -8   2   7 1517.23 284.063   9
   8   2  -8 6160.29 439.693   1
  -8   2   8 5469.51 510.134   9
  -8   2   9 41638.5 1364.69   9
  -8   2  10-102.952 209.740   9
  -8   2 -11 5724.10 423.592  11
  -8  -2 -11 5901.19 425.405  11
  -8   2 -11 6577.41 483.320   7
  -8   2 -11 5690.81 433.445  15
   8  -2 -11 5767.62 538.183   5
   8  -2 -12 18.4953 264.390   5
  -8   2 -12 364.475 233.976  11
  -8  -2 -12 213.716 237.044  11
  -8   2 -12 389.920 258.136   7
  -8   2 -13 14244.1 674.241  11
  -8  -2 -13 13191.1 670.115  11
   8  -2 -13 12952.4 601.618  11
  -8   2 -13 13753.5 709.486   7
   8  -2 -13 11743.4 796.738   5
   8  -2 -14 92.1481 265.328   5
  -8   2 -14 305.980 242.084  11
  -8  -2 -14 109.981 234.756  11
   8  -2 -14-185.651 226.756  11
   8  -2 -15 1159.05 336.749   5
  -8   2 -15 2757.58 345.766  11
  -8  -2 -15 2479.19 355.303  11
   8   2 -15 1940.62 384.342   5
   8  -2 -15 1269.73 253.328  11
   8  -2 -16 644.002 271.873   5
  -8   2 -16 872.957 244.352  11
   8   2 -16 772.860 308.776   5
  -8  -2 -16 780.187 258.443  11
   8  -2 -16 39.8169 189.011  11
   8  -2 -17 16.7114 210.022   5
   8   2 -17 150.591 226.163   5
  -8  -2 -17 62.8543 182.254  11
   8  -2 -18 68.8550 173.010   5
   8   2 -18 182.756 181.294   5
  -8  -2 -18-215.322 183.641  11
   8  -3   0 10974.7 476.368   1
  -8   3   0 10729.3 574.392   9
  -8  -3   0 10824.5 493.412   3
   8  -3  -1 1255.27 187.367   1
  -8  -3  -1 1497.71 210.186   3
  -8  -3   1 1134.95 188.680   3
  -8   3   1 1009.59 214.672   9
  -8  -3  -2 32.5269 124.308   3
  -8  -3   2 0.64612 112.499   3
  -8   3   2-31.9354 153.152   9
   8  -3  -2 219.437 132.727   1
  -8  -3  -3 231.208 135.970   3
  -8   3   3 222.471 160.439   9
   8   3  -3 262.943 147.402   1
   8  -3  -3 576.901 161.675   1
  -8  -3  -4 5.95215 139.209   3
   8   3  -4 401.251 158.170   1
   8  -3  -4 162.081 151.817   1
  -8   3   4 46.3164 173.474   9
   8   3  -5 213.462 140.463   1
   8  -3  -5 71.5512 147.018   1
  -8   3   5 282.233 195.252   9
  -8  -3  -5 68.1250 141.335   3
  -8   3   6 6839.39 528.980   9
   8   3  -6 6822.32 452.210   1
   8   3  -7 8326.74 503.257   1
  -8   3   7 8785.08 618.987   9
  -8   3   8-52.6156 203.247   9
  -8   3   9 1292.51 312.221   9
  -8   3  10 216.647 212.206   9
  -8   3 -11 707.884 259.408   7
   8  -3 -11 450.657 294.212   5
  -8   3 -11 442.582 230.386  11
  -8  -3 -11 423.334 231.814  11
   8  -3 -11 69.1108 198.368  20
   8  -3 -11 325.656 218.530   4
  -8   3 -11 363.850 230.964  15
   8  -3 -12-18.2763 265.525   5
  -8   3 -12 156.536 252.049  11
  -8  -3 -12 339.099 237.320  11
  -8   3 -12-119.191 243.890  15
  -8   3 -12 188.577 229.255   7
   8  -3 -13 608.124 315.227   5
  -8   3 -13 939.046 279.095  11
  -8  -3 -13 808.485 266.558  11
   8  -3 -13 1549.47 312.679  11
  -8   3 -13 492.616 253.573   7
   8  -3 -14 319.308 273.775   5
  -8   3 -14 412.277 241.163  11
  -8  -3 -14 646.070 264.084  11
   8  -3 -14 388.000 220.199  11
  -8   3 -14 424.290 246.459   7
   8  -3 -15 833.573 308.164   5
  -8  -3 -15 1167.82 279.559  11
   8  -3 -15 692.930 223.320  11
   8  -3 -16 209.174 250.830   5
  -8  -3 -16-78.0034 227.053  11
   8   3 -16 257.884 244.092   5
   8  -3 -16-160.151 193.330  11
   8  -3 -17 409.012 231.272   5
   8   3 -17 194.678 226.421   5
  -8  -3 -17-134.002 185.664  11
   8  -3 -17 192.222 171.049  11
   8   3 -18 452.216 204.716   5
  -8  -3 -18-83.5671 157.863  11
   8  -3 -18 219.565 150.224  11
   8  -3 -18 464.774 210.277   5
   8  -4   0 15912.8 582.335   1
  -8   4   0 15158.6 689.682   9
  -8  -4   0 16459.6 635.027   3
   8  -4  -1 56373.2 1114.12   1
  -8   4   1 55938.3 1298.76   9
  -8  -4  -1 53521.7 1150.30   3
  -8  -4   1 53291.9 1111.08   3
  -8  -4   2 43607.2 996.443   3
   8  -4  -2 45392.8 1027.86   1
  -8   4   2 44515.6 1170.54   9
  -8  -4  -2 45109.0 1057.42   3
   8  -4  -3 17592.3 663.403   1
  -8   4   3 18056.7 765.261   9
  -8  -4  -3 17626.7 683.052   3
   8  -4  -4 31620.6 931.169   1
   8   4  -4 34105.3 948.906   1
  -8   4   4 34691.3 1091.46   9
  -8  -4  -4 34340.4 955.330   3
   8   4  -5 5203.33 380.953   1
  -8   4   5 4606.88 428.930   9
  -8  -4  -5 5162.57 394.086   3
  -8   4   6 49093.7 1397.40   9
  -8  -4  -6 48540.0 1186.79   3
   8   4  -6 49322.9 1148.45   1
  -8   4   7 1939.00 329.618   9
  -8   4   8 21837.9 997.163   9
  -8   4   9 22794.1 1051.70   9
   8  -4 -10 983.549 246.558   2
   8  -4 -10 1032.10 298.905  20
  -8   4  10 1022.61 295.633   9
   8  -4 -11 3420.43 435.635   5
   8  -4 -11 3280.38 418.677   4
  -8   4 -11 3756.63 420.469   7
  -8   4 -11 3188.63 363.447  15
  -8   4 -12 542.768 265.109   7
   8  -4 -12 810.988 307.663   5
  -8  -4 -12 530.496 237.429  11
   8  -4 -12 361.255 280.830   4
  -8   4 -12 297.471 238.775  15
  -8  -4 -13 3873.41 413.919  11
  -8   4 -13 3265.56 447.675   7
  -8   4 -13 4194.27 419.193  15
   8  -4 -13 4346.25 490.522   5
   8  -4 -14-299.238 266.937   5
  -8  -4 -14 126.827 223.703  11
   8  -4 -14 46.2433 191.021  11
  -8   4 -14 64.8495 232.680   7
   8  -4 -15 1899.30 366.880   5
  -8  -4 -15 1449.75 288.192  11
   8  -4 -15 1045.41 274.940  11
   8  -4 -16 2019.67 365.300   5
  -8  -4 -16 1450.88 296.798  11
   8   4 -16 2331.34 380.373   5
   8  -4 -16 1294.22 244.651  11
   8  -4 -17-43.7528 192.826   5
   8   4 -17 33.2880 204.315   5
  -8  -4 -17-158.006 199.554  11
   8  -4 -17-24.0186 158.468  11
   8   4 -18 208.547 192.007   5
  -8  -4 -18-151.624 155.847  11
   8  -4 -18-78.0903 139.070  11
   8  -4 -18-51.4323 167.670   5
  -8  -5   0 46243.2 1093.53   3
  -8   5   0 47574.1 1247.15   9
  -8   5   1 1244.66 277.735   9
   8  -5  -1 1289.78 211.666   1
  -8  -5  -1 1400.05 229.153   3
  -8  -5   1 1340.36 225.233   3
  -8  -5  -2 211.933 139.898   3
  -8  -5   2 259.501 138.124   3
  -8   5   2 194.308 157.797   9
  -8  -5  -3 1130.26 218.735   3
  -8  -5   3 888.948 168.398   3
  -8   5   3 1115.19 242.310   9
   8   5  -4 10093.7 537.327   1
  -8   5   4 9946.44 614.956   9
  -8  -5  -4 9386.94 533.831   3
  -8  -5  -5 237.621 163.929   3
  -8   5   5 19.0787 176.892   9
   8   5  -5 0.15780 130.407   1
  -8  -5  -6 74.9305 135.726   3
  -8   5   6 186.078 192.088   9
  -8   5   7-79.3567 192.140   9
  -8  -5  -7-187.968 164.429   3
  -8   5   8 4020.76 471.353   9
   8  -5  -9 146.596 181.882   2
  -8   5   9 117.949 192.714   9
  -8   5 -10 200.394 226.213   7
   8  -5 -10 519.801 278.009   5
   8  -5 -10 181.933 240.221   4
  -8   5  10 850.591 315.144  16
  -8   5 -10 479.503 219.726  15
  -8   5 -11 29.1291 225.665   7
   8  -5 -11 65.1278 276.028   5
   8  -5 -11-27.2699 255.610   4
  -8   5 -11-139.163 228.458  15
  -8   5 -12 70.2680 227.620   7
   8  -5 -12 166.412 263.083   5
   8  -5 -12-157.992 257.807   4
  -8   5 -12-83.9185 235.798  15
  -8   5 -13 285.643 249.567   7
   8  -5 -13 235.731 267.829   5
   8  -5 -13 419.282 245.025   4
  -8   5 -13 160.277 222.835  15
   8  -5 -14 1148.42 315.188   5
   8  -5 -14 821.107 256.858  11
  -8   5 -14 1068.88 286.016  15
  -8   5 -14 927.834 279.141   7
   8  -5 -15-96.1378 239.514   5
   8  -5 -15-241.458 216.823  11
  -8   5 -15 9.40820 207.644   7
  -8  -5 -16 93.2788 183.581  11
   8   5 -16 489.837 279.618   5
   8  -5 -16 110.737 232.806   5
   8   5 -17 21.3185 204.035   5
  -8  -5 -17 73.8843 160.878  11
   8  -5 -17-6.95034 146.305  11
   8  -5 -17 122.813 188.672   5
  -8  -6   0 375.046 161.808   3
  -8  -6  -1 5807.08 427.534   3
  -8  -6   1 5300.53 404.145   3
  -8   6   1 5303.38 461.157   9
  -8  -6  -2 26984.9 895.073   3
  -8  -6   2 26083.2 843.246   3
  -8   6   2 26684.1 971.159   9
  -8  -6   3 7531.49 456.020   3
  -8   6   3 7365.86 538.698   9
  -8  -6  -3 7858.59 499.947   3
  -8   6   4 8973.44 597.599   9
  -8  -6  -4 9707.07 556.831   3
  -8  -6  -5 537.653 194.547   3
  -8   6   5 538.126 221.293   9
  -8   6   6 46413.1 1411.18   9
  -8  -6  -6 46274.8 1222.05   3
  -8  -6  -7 619.339 202.964   3
  -8   6   7 464.964 230.069   9
  -8   6   8 26663.4 1130.73   9
   8  -6  -8 25664.5 954.123   2
   8  -6  -9 7954.64 589.140   4
  -8   6   9 6962.15 621.918   9
   8  -6  -9 6352.32 517.803   2
  -8   6   9 7729.73 664.673  16
  -8   6  -9 9066.79 565.795   7
  -8   6 -10 250.952 242.199   7
   8  -6 -10 246.442 274.738   5
   8  -6 -10-91.0346 270.657   4
  -8   6  10 203.383 284.304  16
  -8   6 -10 79.7446 212.292  15
  -8   6 -11 673.456 256.960   7
   8  -6 -11 827.199 295.571   5
   8  -6 -11 901.310 309.770   4
  -8   6 -11 1106.55 270.978  15
  -8   6 -12-14.1551 227.279   7
   8  -6 -12 163.478 274.130   5
   8  -6 -12 233.440 250.010   4
  -8   6 -12 308.292 246.472  15
  -8   6 -13 581.314 286.419   7
   8  -6 -13 603.775 295.623   5
   8  -6 -13 925.221 297.304   4
  -8   6 -13 815.404 259.779  15
   8  -6 -14 521.221 268.763   4
   8  -6 -14 663.892 228.507  11
  -8   6 -14 533.236 240.356  15
  -8   6 -14 563.048 247.268   7
   8  -6 -14 151.785 260.021   5
   8  -6 -15-268.077 200.538  11
   8  -6 -15-156.964 230.502   5
  -8   6 -15 47.4325 203.076   7
   8  -6 -16 2319.51 302.019  11
   8   6 -17 183.603 222.122   5
   8  -6 -17 18.6910 147.758  11
  -8  -7   0 373.239 163.998   3
  -8  -7  -1 1334.89 253.399   3
  -8  -7   1 1184.49 228.859   3
  -8   7   1 1373.99 269.911   9
  -8  -7  -2 624.137 194.344   3
  -8  -7   2 266.850 139.654   3
  -8   7   2 392.422 204.034   9
  -8  -7  -3 3528.88 365.710   3
  -8  -7   3 3204.11 339.795   3
  -8   7   3 3327.63 393.042   9
  -8  -7  -4 470.207 177.762   3
  -8   7   4 532.037 193.946   9
  -8  -7  -5 259.486 169.721   3
  -8   7   5 62.5084 175.968   9
   8  -7  -6-17.5689 168.781   2
  -8  -7  -6 203.364 157.781   3
  -8   7   6 93.6735 188.590   9
  -8  -7  -7 1976.91 301.629   3
  -8   7   7 1917.39 350.249   9
   8  -7  -7 2124.01 310.426   2
  -8   7   8-87.8508 215.698   9
   8  -7  -8-11.7456 212.334   4
  -8   7   8-166.055 213.248  16
   8  -7  -8 53.5532 168.218   2
  -8   7  -9 1645.83 312.180   7
   8  -7  -9 1432.87 334.174   4
  -8   7   9 1359.74 364.245  16
  -8   7 -10 494.179 270.438   7
   8  -7 -10 710.084 273.018   4
  -8   7  10 658.135 311.495  16
  -8   7 -10 774.673 257.362  15
  -8   7 -11 346.246 257.342   7
   8  -7 -11 599.777 288.649   4
  -8   7 -11 1006.91 276.772  15
   8  -7 -11 605.702 286.912   5
  -8   7 -12 167.884 237.926   7
   8  -7 -12 208.976 267.751   4
  -8   7 -12 306.511 246.102  15
   8  -7 -12 322.989 282.086   5
  -8   7 -13 104.687 213.593   7
   8  -7 -13 606.526 283.398   4
  -8   7 -13 332.410 228.624  15
   8  -7 -13 784.150 315.283   5
   8  -7 -14 305.217 208.689  11
  -8   7 -14 244.341 204.056  15
   8  -7 -14 401.172 244.096   5
  -8   7 -14 24.7660 194.703   7
   8  -7 -15 360.884 197.699  11
  -8   7 -15 393.563 218.673   7
   8  -7 -16-459.616 183.401  11
   8  -7 -17-110.596 133.460  11
  -8  -8   0 11617.5 654.658   3
  -8  -8  -1 62991.8 1482.19   3
  -8  -8   1 60637.0 1436.63   3
  -8  -8  -2 207.331 176.995   3
  -8  -8   2 90.7307 151.490   3
  -8   8   2 123.839 180.137   8
  -8  -8  -3 5939.12 480.991   3
  -8  -8  -4 2741.77 350.675   3
  -8   8   5 2596.75 360.957   9
   8  -8  -5 2522.57 333.032   2
  -8  -8  -5 2699.28 341.871   3
  -8  -8  -6 134.315 182.147   3
  -8   8   6 109.668 172.633   9
   8  -8  -6 325.839 197.064   2
  -8  -8  -7 359.336 193.227   3
   8   8  -7 810.986 293.433  12
   8  -8  -7 725.569 256.306   4
  -8   8   7 312.181 203.993   9
   8  -8  -8-90.5780 232.485   4
   8  -8  -9 15822.3 814.224   4
  -8   8  -9 14766.1 734.440   7
  -8   8 -10 1237.88 316.351   7
   8  -8 -10 1732.41 369.442   4
  -8   8 -11 2716.19 373.346   7
   8  -8 -11 2435.72 390.235   4
  -8   8 -11 2207.04 338.745  15
  -8   8 -12 182.196 236.577   7
   8  -8 -12 378.969 270.133   4
  -8   8 -12 351.837 219.555  15
   8  -8 -13 4499.24 402.661  11
  -8   8 -13 3998.51 380.897  15
   8  -8 -14 302.068 188.492  11
  -8   8 -14 458.484 216.308   7
   8  -8 -15 73.8831 162.777  11
  -8   8 -15 343.559 187.845   7
   8  -8 -16-700.567 191.256  11
  -8  -9   0 6446.19 509.669   3
  -8  -9  -1 1998.36 308.144   3
  -8  -9   1 2511.90 336.458   3
  -8  -9  -2 186.228 172.300   3
  -8   9   2 253.562 194.707   8
  -8  -9  -3 139.257 165.567   3
  -8  -9  -4 65.1990 186.626   3
   8   9  -5-72.8932 212.105  12
  -8  -9  -5-11.5425 164.161   3
   8  -9  -5-152.393 208.448   4
   8   9  -6 337.049 241.923  12
   8  -9  -6 553.394 252.099   4
   8   9  -7 1566.88 353.063  12
   8  -9  -7 1261.39 312.915   4
   8   9  -7 1960.99 225.195   7
   8   9  -8 393.539 173.139   7
   8  -9  -8 782.759 303.247   4
   8   9  -9-335.521 212.641   7
   8  -9  -9 304.174 254.211   4
  -8   9 -10 1327.18 293.540   7
   8  -9 -10 1314.92 332.203   4
  -8   9 -11 239.462 219.064   7
   8  -9 -11-97.4121 225.698   4
  -8   9 -12 216.529 230.716   7
   8  -9 -12 2122.38 312.236  11
  -8   9 -13-166.351 201.151   7
   8  -9 -13 80.4464 181.059  11
  -8   9 -13 55.3889 183.818  15
   8  -9 -14-708.495 200.189  11
  -8   9 -14-63.7771 173.832   7
   8  -9 -15-304.879 173.211  11
  -8   9 -15 66.3425 151.749   7
  -8 -10   0 764.295 214.874  14
   8  10   0 595.536 234.428  12
  -8 -10   0 622.905 211.737   3
   8  10   0 445.436 194.468   6
  -8 -10  -1 2210.47 319.163  14
   8  10  -1 1962.41 328.107  12
   8  10   1 1945.79 322.098  12
  -8 -10  -1 1887.93 324.887   3
  -8 -10   1 1673.20 310.538   3
   8  10   1 1418.66 280.472   6
   8  10  -2 9310.79 666.506  12
  -8  10   2 9229.42 618.443   8
   8  10  -3 95.0949 242.048  12
   8  10  -4 8716.14 662.729  12
   8  10  -5 1974.50 375.776  12
   8  10  -5 5580.40 258.552   7
   8  10  -6 10075.8 726.664  12
   8 -10  -6 11597.1 702.644   4
   8  10  -7 2550.09 405.934  12
   8 -10  -7 2363.52 374.110   4
   8  10  -7 2066.76 245.322   7
   8 -10  -8 4052.80 463.796   4
   8  10  -8 2547.43 290.038   7
   8  10  -9-518.845 232.748   7
   8 -10  -9 875.045 310.813   4
   8  10 -10 415.602 200.709   7
   8 -10 -10-40.6518 234.640   4
  -8  10 -11-43.4620 190.538   7
   8 -10 -11 1964.62 311.282  11
  -8  10 -12 404.117 219.776   7
   8 -10 -12 1234.35 247.610  11
  -8  10 -13 121.743 185.876   7
   8 -10 -13 84.7067 172.643  11
   8 -10 -14-882.288 194.337  11
  -8  10 -14-69.3838 155.947   7
   8  11   0 2660.55 400.539  12
   8  11   0 3114.56 437.640   6
  -8 -11  -1 705.731 244.244  14
   8  11  -1 567.598 277.413  12
   8  11   1 704.314 275.325  12
   8  11   1 801.464 309.366   6
   8  11  -2-138.761 264.444  12
   8  11   2 502.631 278.800   6
   8  11  -3 281.033 258.275  12
   8  11  -4 31.5250 252.950  12
   8  11  -4 6044.76 244.986   7
   8  11  -5 82.4216 253.517  12
   8  11  -5 3102.62 242.624   7
   8  11  -6 222.283 246.225  12
   8  11  -6 1574.00 223.813   7
   8  11  -7-93.0937 257.529  12
   8  11  -7 9.66423 132.008   7
   8 -11  -7 413.510 248.023   4
   8  11  -8-802.017 221.536   7
   8  11  -9-41.0476 182.501   7
   8  11 -10 87.3137 170.641   7
   8  11 -11 229.322 177.565   7
  -8  11 -12-207.726 195.509   7
  -8  11 -13-11.6310 152.181   7
  -8  11  14-103.931 173.246   6
   8  12   0 2975.02 423.873  12
   8  12  -1 4603.99 521.629  12
   8  12   1 4316.75 476.145  12
   8  12   1 4550.40 487.740   6
  -8 -12  -2 2337.82 354.482  14
   8  12  -2 1887.60 348.132  12
   8  12   2 2101.05 353.364  12
   8  12   2 2488.82 398.541   6
   8  12  -3 2730.20 421.020  12
   8  12   3 2852.94 405.788   6
   8  12  -4 77.4994 242.719  12
   8  12  -4 2831.16 251.153   7
   8  12  -5 202.385 261.263  12
   8  12  -5 1923.90 246.479   7
   8  12  -6 3506.95 449.902  12
   8  12  -6 2396.07 275.754   7
  -8  12   6 3045.82 423.294   6
   8  12  -7 512.546 252.479  12
   8  12  -7-3.24869 150.023   7
   8  12  -8 575.019 199.837   7
   8  12  -9 3759.89 349.603   7
   8  12 -10 312.912 174.897   7
   8  12 -11 413.023 176.082   7
  -8  12  11 29.2493 199.622   6
   8  12 -12 55.5594 121.618   7
  -8  12  12 164.653 184.713   6
  -8  12  13 672.912 219.017   6
   8  13   0-88.6511 227.157  12
   8  13  -1 251.925 254.201  12
   8  13   1 274.399 240.684  12
   8  13  -2 321.914 249.180  12
   8  13   2-76.9444 205.500  12
   8  13   2-93.3076 225.223   6
  -8 -13  -3 555.519 238.279  14
   8  13  -3 41.5979 244.738  12
   8  13   3 180.021 225.652  12
   8  13   3 249.687 226.563   6
  -8 -13  -4 113.207 195.380  14
   8  13  -4-103.902 227.403  12
   8  13   4 59.0739 205.983  12
   8  13  -5 83.5285 234.477  12
   8  13  -5 772.818 197.099   7
   8  13  -6 223.717 233.530  12
   8  13  -6 192.443 160.311   7
  -8  13   6-85.2120 256.844   6
   8  13  -7-104.326 187.847   7
  -8  13   7 168.405 224.320   6
   8  13  -8 95.5835 170.976   7
  -8  13   8 128.657 214.360   6
   8  13  -9-17.4610 144.837   7
  -8  13   9 9.64199 215.546   6
   8  13 -10-159.087 149.636   7
  -8  13  10 104.915 190.060   6
   8  13 -11-54.2511 127.057   7
  -8  13  11-49.1081 188.521   6
   8  14   0 2714.48 395.506  12
   8  14   0 7223.71 285.002   7
   8  14  -1 5726.35 534.266  12
   8  14   1 4715.56 479.965  12
   8  14  -1 7444.06 308.812   7
   8  14   1 9096.88 284.261   7
   8  14  -2 640.093 267.896  12
   8  14   2 992.120 277.757  12
   8  14  -2 1599.52 231.923   7
   8  14  -3-110.971 216.807  12
   8  14   3 5.10792 202.346  12
  -8 -14  -4 1063.89 253.300  14
   8  14  -4 1158.11 295.160  12
   8  14   4 633.169 232.022  12
   8  14  -4 1360.85 230.385   7
  -8 -14  -5 280.569 201.014  14
   8  14  -5-5.02298 218.025  12
   8  14   5 258.010 205.003  12
   8  14  -5 23.8875 158.257   7
  -8 -14  -6 1179.66 263.883  14
   8  14  -6 850.177 250.719  12
  -8 -14  -7 724.902 236.323  14
   8  14  -7 957.470 215.520   7
  -8  14   7 758.349 238.648   6
  -8 -14  -8-99.9590 165.260  14
   8  14  -8-66.5232 152.481   7
  -8  14   8 314.408 211.660   6
  -8 -14  -9 1088.27 237.709  14
   8  14  -9 895.402 200.288   7
  -8  14   9 705.113 238.710   6
  -8 -14 -10 698.365 197.814  14
   8  14 -10 436.523 145.442   7
  -8  14  10 570.412 215.528   6
   8  15   0 613.585 248.356  12
   8  15   0 1591.51 201.086   7
   8  15  -1 160.094 204.619  12
   8  15   1-12.7486 183.057  12
   8  15  -1 511.146 156.331   7
   8  15  -2-12.0144 201.724  12
   8  15   2 86.3049 191.210  12
   8  15  -2 407.812 153.312   7
   8  15  -3 41.3674 192.652  12
   8  15   3 47.1737 183.664  12
   8  15  -3-182.786 149.234   7
   8  15  -4 1.51808 185.559  12
   8  15   4-277.648 208.807  12
   8  15  -4-167.625 163.751   7
  -8 -15  -5 24.0525 153.095  14
   8  15  -5-92.4079 193.025  12
   8  15   5-66.9532 171.552  12
   8  15  -5-473.305 188.503   7
  -8 -15  -6 109.822 171.707  14
   8  15  -6-85.5369 152.094   7
  -8 -15  -7 135.796 166.288  14
   8  15  -7-335.476 162.763   7
  -8 -15  -8 236.650 177.603  14
   8  15  -8 94.0905 130.031   7
   8  16   0 618.794 210.366  12
   8  16  -1 77.9697 174.606  12
   8  16   1 198.444 178.979  12
   8  16  -1-338.504 140.686   7
   8  16  -2 921.344 242.578  12
   8  16   2 674.079 209.974  12
   8  16  -2 197.731 135.755   7
   8  16  -3 658.688 212.013  12
   8  16   3 722.213 220.584  12
   8  16  -3 25.7415 137.896   7
   8  16  -4 417.409 193.296  12
   8  16   4 137.015 173.947  12
   8  16  -4 190.712 144.000   7
   8  16  -5 90.1449 132.561   7
   9   0   0 24.7815 120.210   1
  -9   0   1-33.8951 152.017   9
   9   0  -1 19.4804 121.331   1
   9   0   1 54.0002 120.409   1
  -9   0   2 32687.4 994.774   9
   9   0  -2 31611.4 887.426   1
  -9   0   3 184.260 176.300   9
   9   0  -3 76.7287 132.891   1
  -9   0   4 14622.4 714.131   9
   9   0  -4 14737.1 646.629   1
   9   0  -5 5.79496 142.478   1
  -9   0   5-30.3370 183.390   9
   9   0  -6 5328.67 428.210   1
  -9   0   6 5315.17 468.739   9
  -9   0   7-76.3842 201.139   9
   9   0  -7 8.55675 136.015   1
   9   0  -8 26634.1 965.878   1
  -9   0   8 24763.1 1031.36   9
  -9   0   9-200.471 219.595   9
  -9   0  10 1354.23 319.954   9
  -9   0  11 134.652 232.936  13
  -9   0 -11 87.4364 219.299  11
  -9   0 -12 2739.06 365.754  11
  -9   0 -13-80.2017 223.448  11
   9   0 -13-279.001 302.072   5
  -9   0 -14 8690.62 548.663  11
   9   0 -14 7319.15 625.389   5
   9   0 -15 133.678 254.622   5
  -9   0 -15 294.344 225.927  11
   9   0 -16 166.314 225.625   5
   9   0 -17-207.146 214.194   5
   9   0 -18 889.441 231.910   5
   9  -1   0 126.339 116.484   1
   9   1  -1 415.104 167.627   1
  -9   1   1 365.423 181.022   9
  -9  -1   1 393.689 193.033   9
   9  -1   1 234.845 132.469   1
   9  -1  -1 442.965 162.476   1
   9   1  -2 6421.94 417.252   1
   9  -1   2 6226.66 390.563   1
  -9  -1   2 6813.79 457.022   9
  -9   1   2 6649.03 466.580   9
   9  -1  -2 6593.06 419.328   1
  -9  -1   3 21525.6 815.651   9
  -9   1   3 22423.4 856.055   9
   9  -1  -3 21798.6 771.243   1
   9   1  -3 21058.4 755.008   1
   9  -1  -4 26462.5 884.436   1
  -9  -1   4 27899.2 941.184   9
  -9   1   4 27768.6 981.957   9
   9   1  -4 26034.3 865.713   1
   9  -1  -5 5142.57 414.174   1
  -9  -1   5 4921.99 422.166   9
  -9   1   5 4917.00 442.334   9
   9   1  -5 5148.95 406.274   1
   9  -1  -6 37053.0 1096.84   1
   9   1  -6 38277.0 1091.70   1
  -9  -1   6 36876.0 1161.12   9
  -9   1   6 37774.9 1213.46   9
   9  -1  -7 1846.80 289.386   1
  -9   1   7 1758.75 338.815   9
  -9  -1   7 1612.74 300.143   9
   9   1  -7 1469.28 261.501   1
  -9   1   8 1313.03 313.708   9
   9   1  -8 1424.80 256.584   1
   9   1  -9 1039.17 239.439   1
  -9   1   9 1082.24 264.486   9
  -9   1  10 12488.3 755.602  13
  -9  -1  10 11712.5 756.149  13
  -9   1 -10 12239.2 598.716  11
  -9   1  10 10224.7 730.528   9
  -9  -1  11 1702.44 373.551  13
  -9   1 -11 1781.82 307.417  11
  -9  -1 -11 1959.61 320.095  11
   9  -1 -11 1453.34 381.583   5
  -9   1 -12 5493.76 444.014  11
  -9  -1 -12 5578.25 453.853  11
   9  -1 -12 5268.10 529.491   5
  -9   1 -13 2607.10 353.233  11
  -9  -1 -13 2341.90 338.318  11
   9  -1 -14 345.419 301.961   5
  -9   1 -14 858.906 279.162  11
  -9  -1 -14 926.426 277.797  11
   9   1 -14 183.666 269.451   5
   9  -1 -15 482.587 286.502   5
  -9   1 -15 97.8652 205.673  11
   9   1 -15 427.278 293.045   5
  -9  -1 -15 418.269 233.775  11
   9  -1 -16-59.4977 216.008   5
   9   1 -16 200.610 244.928   5
  -9  -1 -16 58.7340 183.383  11
   9  -1 -17-13.0461 196.315   5
   9   1 -17-110.117 202.963   5
   9  -1 -18 79.2735 176.888   5
   9   1 -18 563.475 201.246   5
  -9  -2   0 327.285 165.262   3
  -9   2   0 62.4993 157.541   9
   9  -2   0-44.2645 110.291   1
   9  -2  -1 71254.4 1315.26   1
  -9   2   1 70353.2 1520.77   9
  -9  -2  -1 70525.9 1319.77   3
  -9  -2   1 70445.9 1282.41   3
   9  -2   1 71481.6 1277.60   1
   9  -2  -2 331.366 148.893   1
   9   2  -2 52.4293 129.897   1
  -9   2   2 174.202 159.986   9
   9   2  -3 9679.03 527.433   1
   9  -2  -3 10043.1 523.724   1
  -9   2   3 10288.6 602.523   9
   9  -2  -4 5071.07 404.613   1
  -9   2   4 5242.07 464.021   9
   9   2  -4 5132.09 393.650   1
   9  -2  -5 42602.2 1125.74   1
  -9   2   5 42416.0 1283.59   9
   9   2  -5 42839.8 1129.30   1
   9   2  -6 750.725 199.805   1
   9  -2  -6 857.930 221.405   1
  -9   2   6 972.231 256.028   9
   9  -2  -7 13594.2 698.540   1
   9   2  -7 13565.4 666.330   1
  -9   2   7 13798.2 780.968   9
  -9   2   8 753.066 250.978   9
   9   2  -8 405.139 177.898   1
  -9   2   9 8522.29 659.563   9
  -9  -2  10 908.496 278.511  13
  -9   2 -10 682.490 220.183  11
  -9  -2 -10 1050.39 248.606  11
  -9   2  10 475.707 228.645   9
  -9   2 -10 1049.58 258.859   7
  -9  -2  11 7493.92 608.642  13
  -9   2 -11 8077.54 521.800  11
  -9  -2 -11 7423.31 494.970  11
   9  -2 -11 7644.25 567.754   4
   9  -2 -11 7686.57 629.430   5
  -9  -2  12 281.378 227.848  13
  -9   2 -12 623.132 278.089  11
   9  -2 -12 73.9813 285.376   5
  -9  -2 -12 273.144 234.762  11
  -9   2  12 605.115 332.111  16
   9  -2 -13 1593.66 367.479   5
  -9   2 -13 1866.09 317.467  11
   9  -2 -13 2357.27 314.935  11
  -9  -2 -13 1755.60 310.063  11
   9  -2 -14 977.407 300.071   5
  -9  -2 -14 1218.19 287.698  11
   9  -2 -14 195.407 193.877  11
   9  -2 -15 1123.79 325.172   5
  -9  -2 -15 1328.58 286.136  11
   9   2 -15 1095.78 329.975   5
   9  -2 -16 102.822 224.310   5
   9   2 -16 42.2215 245.761   5
  -9  -2 -16-461.363 221.240  11
   9  -2 -17 278.092 201.387   5
   9   2 -17 58.8505 201.654   5
   9  -2 -18 74.2408 159.864   5
   9   2 -18 90.8727 172.316   5
   9  -3   0 45.2847 110.597   1
  -9  -3   0 145.365 157.927   3
  -9   3   0-93.5734 175.337   9
   9  -3  -1 9963.54 499.709   1
  -9   3   1 10299.7 626.460   9
  -9  -3  -1 10048.9 524.791   3
  -9  -3   1 10213.8 510.410   3
   9  -3  -2 17755.4 675.497   1
  -9   3   2 18639.4 800.315   9
  -9  -3  -2 18147.1 705.580   3
   9   3  -3 48928.6 1172.64   1
   9  -3  -3 47921.4 1139.33   1
  -9   3   3 46995.7 1297.68   9
  -9  -3  -3 48838.2 1161.19   3
   9  -3  -4 1365.47 243.264   1
   9   3  -4 1220.85 222.681   1
  -9   3   4 1419.60 294.048   9
   9  -3  -5 32265.1 993.002   1
  -9   3   5 32405.7 1131.95   9
   9   3  -5 31929.5 979.292   1
   9   3  -6 2399.83 293.912   1
  -9   3   6 2281.26 349.759   9
   9   3  -7 6097.14 464.879   1
  -9   3   7 6315.77 554.416   9
  -9   3   8 891.798 273.320   9
  -9   3   9 4363.62 514.463   9
  -9  -3  10-75.6104 221.303  13
   9  -3 -10 141.099 252.387   5
  -9  -3 -10-208.914 206.338  11
  -9   3  10-236.365 298.168  16
  -9   3 -10-157.020 217.707   7
  -9  -3  11 1453.30 333.698  13
   9  -3 -11 2134.31 406.425   5
  -9  -3 -11 2132.43 315.152  11
   9  -3 -11 1881.12 359.567   4
  -9   3  11 2200.49 440.161  16
  -9   3 -11 2474.17 354.363   7
   9  -3 -12-161.212 278.073   5
  -9  -3 -12 102.259 217.703  11
   9  -3 -12 10.7961 246.404   4
  -9   3 -12 105.831 218.941   7
   9  -3 -13 2959.47 439.668   5
  -9  -3 -13 3801.35 391.653  11
   9  -3 -14 222.643 260.533   5
  -9  -3 -14 365.317 234.796  11
   9  -3 -14-417.130 222.676  11
   9  -3 -15-122.809 239.810   5
  -9  -3 -15 168.636 212.316  11
   9   3 -15 201.244 251.478   5
   9  -3 -15-113.506 197.526  11
   9  -3 -16-85.8555 206.100   5
   9   3 -16 282.993 245.758   5
  -9  -3 -16-433.911 220.044  11
   9  -3 -16-319.844 190.421  11
   9  -3 -17 466.926 221.639   5
   9   3 -17 176.254 209.197   5
   9  -3 -17 393.505 166.060  11
  -9  -4   0 214.960 145.870   3
   9  -4  -1 23135.0 769.614   1
  -9   4   1 22505.9 910.051   9
  -9  -4  -1 22999.2 807.276   3
  -9  -4   1 22532.4 771.055   3
   9  -4  -2 8854.33 501.793   1
  -9   4   2 8939.61 576.540   9
  -9  -4  -2 8787.79 515.831   3
  -9  -4   2 8095.73 475.020   3
   9  -4  -3 14169.2 639.136   1
   9   4  -3 14170.4 650.050   1
  -9   4   3 14211.0 733.088   9
  -9  -4  -3 14351.1 655.037   3
   9  -4  -4 20793.5 801.576   1
   9   4  -4 21685.1 806.360   1
  -9   4   4 21666.7 921.953   9
  -9  -4  -4 21414.2 825.988   3
   9   4  -5 229.146 150.554   1
  -9   4   5 155.595 200.019   9
  -9  -4  -5 288.389 168.408   3
  -9   4   6 13447.4 771.878   9
   9   4  -6 13593.7 671.439   1
  -9   4   7 3325.24 426.364   9
  -9   4   8 6112.34 570.187   9
  -9   4   9 1397.81 326.527   9
  -9   4   9 1779.40 361.701  16
  -9   4  -9 2070.19 296.161   7
  -9  -4  10 350.575 227.077  13
   9  -4 -10 154.868 239.759   4
  -9   4  10 104.205 249.228  16
  -9   4 -10 110.479 209.029   7
  -9  -4  11 4146.72 477.351  13
   9  -4 -11 4516.54 478.982   4
  -9   4  11 4110.86 535.505  16
  -9   4 -11 4578.52 442.773   7
   9  -4 -11 3986.41 478.883   5
   9  -4 -12 1863.89 382.881   5
   9  -4 -12 1687.79 344.507   4
  -9   4 -12 1358.10 334.327   7
   9  -4 -13 981.101 319.777   5
  -9  -4 -13 841.697 263.369  11
   9  -4 -13 818.367 286.984   4
  -9   4 -13 1152.06 291.585   7
   9  -4 -14 2402.13 391.160   5
  -9  -4 -14 2865.09 353.830  11
   9  -4 -14 3529.54 353.789  11
   9  -4 -15 92.8813 223.508   5
  -9  -4 -15 29.2862 186.569  11
   9  -4 -15-397.981 202.171  11
   9  -4 -16-91.8767 195.582   5
  -9  -4 -16 135.457 179.770  11
   9   4 -16 458.805 261.572   5
   9   4 -17-47.1125 185.216   5
   9  -4 -17 200.859 161.437  11
   9  -4 -17-89.2266 182.849   5
  -9  -5   0 37.4223 145.959   3
  -9   5   1 4691.60 437.533   9
  -9  -5  -1 5272.33 412.722   3
  -9  -5   1 5050.14 393.551   3
  -9   5   2 24676.2 968.225   9
  -9  -5  -2 24948.7 873.689   3
  -9  -5   2 23444.2 803.574   3
  -9   5   3 8797.58 595.991   9
  -9  -5  -3 8612.08 545.709   3
   9   5  -4 21840.5 831.112   1
  -9   5   4 20829.3 935.292   9
  -9  -5  -4 20962.8 833.568   3
   9   5  -5 2181.93 281.927   1
  -9   5   5 2560.50 374.077   9
  -9  -5  -5 2321.40 313.829   3
  -9   5   6 7553.09 615.152   9
  -9  -5  -6 7787.59 541.886   3
  -9   5   7 517.454 252.853   9
  -9   5   8 258.356 238.009   9
  -9   5  -9 48.2877 210.952   7
   9  -5  -9 52.0044 260.136   4
  -9   5   9 320.339 283.947  16
  -9   5  -9 208.539 207.144  15
  -9  -5  10 4195.06 499.453  13
   9  -5 -10 4649.94 497.188   4
  -9   5  10 4109.10 529.826  16
  -9   5 -10 4827.81 462.617   7
  -9   5 -10 4332.54 392.022  15
   9  -5 -11 64.9618 251.664   5
  -9  -5  11 76.1718 227.923  13
   9  -5 -11 228.283 261.316   4
  -9   5  11 371.772 308.402  16
  -9   5 -11 268.947 230.676   7
   9  -5 -12 1320.49 354.424   5
   9  -5 -12 1529.91 337.442   4
  -9   5 -12 1382.23 326.398   7
   9  -5 -13-100.116 243.951   5
   9  -5 -13 28.9872 234.056   4
  -9   5 -13 179.635 223.360   7
   9  -5 -14 334.728 256.276   5
   9  -5 -14 282.640 264.990   4
   9  -5 -14 785.304 256.251  11
   9  -5 -15 80.9059 234.741   5
   9  -5 -15 217.734 192.223  11
   9   5 -16 279.520 225.249   5
   9  -5 -16 294.440 215.134   5
   9   5 -17 98.3493 182.446   5
   9  -5 -17-181.920 148.866  11
  -9  -6   0 123.487 149.405   3
  -9  -6   1 18800.0 765.928   3
  -9   6   1 19468.5 883.718   9
  -9  -6  -1 19239.9 790.324   3
  -9  -6   2 4310.22 374.297   3
  -9   6   2 4546.19 446.617   9
  -9  -6  -2 4321.87 394.974   3
  -9   6   3 4507.81 460.438   9
  -9  -6  -3 4572.29 412.034   3
   9   6  -4 19572.0 825.764   1
  -9   6   4 19652.6 913.918   9
  -9  -6  -4 19360.6 824.527   3
  -9   6   5 15172.5 837.027   9
  -9  -6  -5 15566.9 747.075   3
  -9   6   6 13933.3 812.070   9
  -9  -6  -6 13534.2 705.396   3
  -9   6   7 656.832 251.337   9
   9  -6  -8 4212.59 440.393   4
  -9   6   8 4347.05 540.911  16
  -9   6  -8 4837.67 405.372   7
   9  -6  -9 3297.73 432.947   4
  -9   6   9 2806.53 454.479  16
  -9   6  -9 3585.37 399.047   7
  -9   6 -10-34.8793 210.164   7
  -9  -6  10-225.275 276.567  13
   9  -6 -10-327.483 276.462   4
  -9   6  10 226.894 283.587  16
  -9   6 -10-61.2790 207.450  15
  -9   6 -11 3342.04 393.467   7
   9  -6 -11 2473.99 397.984   4
  -9   6  11 2449.56 439.483  16
  -9   6 -11 2805.20 341.206  15
   9  -6 -12-185.351 254.886   5
   9  -6 -12-16.0560 250.441   4
  -9   6 -12-46.8938 212.735   7
   9  -6 -13 227.290 246.910   5
   9  -6 -13 647.523 292.358   4
  -9   6 -13 291.022 231.028   7
   9  -6 -14 3611.29 354.596  11
   9  -6 -14 2734.95 389.605   4
  -9   6 -14 3905.18 398.148   7
   9  -6 -14 3038.97 399.228   5
   9  -6 -15 218.273 173.373  11
   9  -6 -15 675.307 255.515   5
   9   6 -16 99.1074 206.522   5
   9  -6 -16-349.830 170.318  11
  -9  -7   0 68.9519 153.287   3
  -9  -7  -1 1102.92 254.570   3
  -9  -7   1 1131.57 241.201   3
  -9  -7   2 15507.1 719.251   3
  -9   7   2 16865.1 841.141   9
  -9  -7  -2 15986.4 754.960   3
  -9   7   3 12519.9 745.193   9
  -9  -7  -3 11698.2 663.017   3
  -9   7   4 16595.7 871.186   9
  -9  -7  -4 17736.0 821.065   3
  -9   7   5 5372.08 523.169   9
  -9  -7  -5 5953.20 494.226   3
  -9   7   6 2697.77 394.464   9
   9  -7  -6 2624.60 330.214   2
  -9  -7  -6 2395.80 337.845   3
   9  -7  -7 665.222 276.386   4
  -9   7   7 282.174 304.304  16
   9  -7  -8 815.688 275.362   4
  -9   7   8 893.421 339.749  16
  -9   7  -9 1239.35 285.176   7
   9  -7  -9 1702.34 337.718   4
  -9   7   9 1823.69 413.378  16
  -9   7 -10 811.698 268.175   7
   9  -7 -10 638.507 284.913   4
  -9   7  10 481.489 305.263  16
  -9   7 -11 824.028 261.973   7
   9  -7 -11 1189.67 312.608   4
  -9   7 -11 667.452 234.412  15
   9  -7 -12-70.2348 229.214   4
  -9   7 -12-182.738 224.766   7
   9  -7 -13 1619.55 334.827   4
   9  -7 -13 1436.80 336.104   5
  -9   7 -13 1703.86 293.248   7
   9  -7 -14 666.892 218.867  11
  -9   7 -14 392.821 228.218   7
   9  -7 -15-187.147 175.082  11
   9   7 -16-14.9555 171.495   5
   9  -7 -16-377.080 171.575  11
  -9  -8   0 8.96008 163.493   3
  -9  -8  -1 18780.3 846.387   3
  -9  -8   1 18070.7 816.930   3
  -9  -8   2 3733.45 391.924   3
  -9  -8  -2 3867.11 411.221   3
  -9  -8   3 3189.83 365.387   3
  -9   8   3 3269.03 412.022   9
  -9  -8  -3 3486.58 403.747   3
  -9  -8  -4 102.750 175.377   3
  -9   8   4 104.137 193.730   9
   9   8  -5 5371.79 512.293  12
   9  -8  -5 5733.30 469.665   4
  -9   8   5 4544.19 482.301   9
   9  -8  -5 4620.89 442.262   2
  -9  -8  -5 5244.33 480.542   3
   9   8  -6 76.0467 240.765  12
   9  -8  -6 297.447 240.417   4
   9  -8  -7 3268.95 408.487   4
   9  -8  -8 1471.49 338.706   4
   9  -8  -9 2035.33 367.314   4
  -9   8 -10 125.302 208.922   7
   9  -8 -10 417.216 262.154   4
   9  -8 -11 2525.76 400.862   4
  -9   8 -11 3620.84 383.254   7
   9  -8 -12 665.228 286.081   4
  -9   8 -12 625.679 253.717   7
   9  -8 -13 1057.24 250.875  11
  -9   8 -13 601.112 232.917   7
   9  -8 -14 641.760 194.481  11
  -9   8 -14 186.311 196.749   7
   9  -8 -15-236.147 164.548  11
  -9  -9   0-73.5661 160.630  14
  -9  -9   0-70.6479 184.317   3
  -9  -9   1 1589.56 306.387  14
  -9  -9  -1 1593.95 309.240  14
  -9  -9  -1 1291.59 281.970   3
  -9  -9   1 1221.82 264.222   3
  -9  -9   2 1718.44 309.817  14
  -9  -9  -2 1890.09 348.542  14
   9   9  -2 1550.09 304.360  12
  -9  -9   2 1422.22 278.173   3
   9   9  -3 5621.23 522.920  12
   9   9  -4 361.369 264.132  12
   9   9  -5 6366.62 580.424  12
   9  -9  -5 7458.78 546.005   4
   9   9  -6 172.816 245.980  12
   9  -9  -6 289.800 247.673   4
   9  -9  -7 1393.26 332.412   4
   9   9  -7 2074.62 229.855   7
   9   9  -8 170.243 144.354   7
   9  -9  -8 56.9079 243.822   4
   9  -9  -9 158.654 240.652   4
   9  -9 -10 1352.88 328.767   4
   9  -9 -11 3205.65 425.404   4
  -9   9 -11 3160.44 375.610   7
   9  -9 -12 1589.98 308.734  11
  -9   9 -12 413.492 212.871   7
   9  -9 -13 877.240 243.731  11
  -9   9 -13 933.032 271.720   7
   9  -9 -14-92.0076 156.227  11
  -9   9 -14 14.3662 156.379   7
   9  -9 -15-307.119 155.969  11
  -9 -10   0-224.425 203.861  14
   9  10   0-146.514 223.710  12
  -9 -10   1-28.0422 203.811  14
  -9 -10  -1-78.5939 215.824  14
   9  10  -1 292.348 242.488  12
   9  10  -2 4166.37 477.613  12
  -9 -10  -2 4308.32 476.949  14
  -9 -10  -3 408.466 261.908  14
   9  10  -3 123.259 231.208  12
   9  10  -4 5025.17 527.651  12
   9  10  -5 1431.52 354.594  12
   9  10  -5 5867.65 258.763   7
   9  10  -6 889.094 319.537  12
   9 -10  -6 662.637 275.295   4
   9  10  -7 1103.05 186.951   7
   9 -10  -7 530.387 277.377   4
   9 -10  -8 5793.13 530.507   4
   9  10  -8 3084.95 321.679   7
   9  10  -9-10.6687 168.718   7
   9 -10  -9 1031.36 312.487   4
   9 -10 -10 411.380 243.507   4
   9 -10 -11 3604.48 344.953  11
   9 -10 -12 1495.54 260.479  11
  -9  10 -12 628.105 215.969   7
   9 -10 -13-6.41709 154.246  11
  -9  10 -13-126.156 160.759   7
   9 -10 -14 274.754 152.014  11
  -9 -11   0 129.855 207.010  14
   9  11   0 41.0651 232.373  12
  -9 -11  -1 351.991 229.626  14
   9  11  -1 244.401 231.951  12
   9  11   1 249.000 223.417  12
  -9 -11  -2 691.895 240.317  14
   9  11  -2 676.684 268.268  12
  -9 -11  -3 32.4479 220.174  14
   9  11  -3-49.6160 234.270  12
   9  11  -4 3950.09 480.787  12
  -9 -11  -4 4288.72 490.201  14
   9  11  -5 630.275 274.742  12
   9  11  -5 3898.52 245.231   7
   9  11  -6 4035.20 480.533  12
   9  11  -6 3422.82 298.573   7
   9  11  -7 274.025 156.429   7
   9 -11  -7 399.996 280.036   4
   9 -11  -8 213.918 225.872   4
   9  11  -8-240.106 188.788   7
   9  11  -9-346.945 183.758   7
   9  11 -10 2033.50 263.487   7
   9 -11 -11 1015.52 217.971  11
   9 -11 -12 1219.69 223.694  11
   9  12   0 56.5154 239.257  12
   9  12  -1 4696.11 487.316  12
   9  12   1 4376.51 460.428  12
  -9 -12  -1 4816.62 472.288  14
  -9 -12  -2 286.431 245.650  14
   9  12  -2 472.332 269.445  12
   9  12   2 247.656 206.977  12
  -9 -12  -3 237.252 213.167  14
   9  12  -3 246.392 260.499  12
  -9 -12  -4 361.511 229.344  14
   9  12  -4 151.890 235.934  12
   9  12  -5 3360.34 429.222  12
   9  12  -5 3976.86 301.684   7
  -9 -12  -5 3281.12 433.623  14
   9  12  -6 106.483 229.614  12
   9  12  -6 624.157 177.003   7
   9  12  -7 364.451 175.261   7
  -9  12   7 416.674 235.070   6
   9  12  -8-517.272 205.417   7
   9  12  -9 121.550 159.540   7
  -9  12   9 343.337 226.183   6
   9  12 -10 58.5048 137.531   7
  -9  12  10-48.0118 194.350   6
  -9 -12 -11 960.644 239.153  14
   9  12 -11 799.678 174.563   7
  -9  12  11 750.801 243.456   6
  -9 -12 -12 81.1637 147.493  14
  -9  12  12 125.928 177.255   6
   9  13   0 29.3992 203.389  12
   9  13  -1 1907.63 347.759  12
   9  13   1 1828.82 325.968  12
  -9 -13  -2 75.8056 186.757  14
   9  13  -2 240.750 249.184  12
   9  13   2 428.975 238.739  12
   9  13  -3 3067.11 412.934  12
  -9 -13  -3 3165.75 390.109  14
  -9 -13  -4 896.654 264.357  14
   9  13  -4 643.789 248.878  12
  -9 -13  -5 947.069 275.020  14
   9  13  -5 965.114 286.744  12
  -9 -13  -6 879.277 263.903  14
   9  13  -6 1029.67 278.750  12
   9  13  -6 436.075 184.474   7
  -9 -13  -7-112.945 183.169  14
   9  13  -7-349.685 166.571   7
  -9  13   7 157.172 219.685   6
  -9 -13  -8-0.29609 173.573  14
   9  13  -8-0.60149 134.859   7
  -9  13   8 42.6488 201.167   6
  -9 -13  -9 176.035 173.268  14
   9  13  -9 110.399 139.602   7
  -9  13   9 315.545 213.809   6
  -9 -13 -10 441.579 191.115  14
   9  13 -10 130.546 135.038   7
  -9  13  10 102.314 188.131   6
   9  14   0-68.7605 189.735  12
   9  14   0 6453.62 261.790   7
   9  14  -1 383.416 230.296  12
   9  14   1-18.9538 199.295  12
   9  14  -2 2079.38 335.610  12
   9  14   2 1883.91 311.293  12
  -9 -14  -3 310.072 195.488  14
   9  14  -3 59.7169 196.506  12
   9  14   3 224.131 197.256  12
  -9 -14  -4 93.9027 169.827  14
   9  14  -4 123.896 191.407  12
  -9 -14  -5 425.159 208.277  14
   9  14  -5 437.834 234.413  12
   9  14  -5-176.484 160.695   7
  -9 -14  -6 467.849 208.500  14
   9  14  -6 14.3061 156.290   7
  -9 -14  -7 386.887 191.847  14
   9  14  -7 131.783 145.152   7
  -9 -14  -8 878.343 219.551  14
   9  14  -8 710.813 187.958   7
  -9  14   8 773.080 234.573   6
  -9 -14  -9 96.6489 135.746  14
   9  14  -9 61.6164 120.454   7
   9  15   0 222.495 188.778  12
   9  15   0 2003.86 192.888   7
   9  15  -1 250.315 183.422  12
   9  15   1 448.392 199.494  12
   9  15  -2 715.923 225.999  12
   9  15   2 765.580 224.135  12
   9  15  -2 992.088 172.723   7
   9  15  -3 859.436 234.499  12
   9  15   3 1093.87 244.313  12
   9  15  -4 348.311 193.428  12
   9  15  -4-283.356 158.703   7
  -9 -15  -5 333.417 183.845  14
   9  15  -5-317.517 169.379   7
  -9 -15  -6 57.0335 164.278  14
   9  15  -6 225.208 148.503   7
   9  16   0 22.5409 144.907  12
   9  16  -1 606.927 189.681  12
   9  16   1 357.974 171.531  12
   9  16  -2 184.569 156.936  12
  10   0   0 158845. 2110.38   1
  10   0  -1 242.208 178.000   1
  10   0   1-34.3902 152.288   1
  10   0   2 1360.13 219.903   1
  10   0  -2 1613.13 249.910   1
 -10   0   2 1745.47 298.831   9
  10   0  -3 103.736 137.673   1
 -10   0   3 203.413 177.503   9
  10   0   3 74.5460 133.694   1
  10   0  -4 22308.6 857.263   1
 -10   0   4 22403.8 917.839   9
  10   0  -5 101.761 146.831   1
 -10   0   5-98.5746 203.024   9
  10   0  -6 2530.76 323.939   1
 -10   0   6 3053.91 388.590   9
 -10   0   7 60.2934 175.433   9
  10   0  -7-10.7389 155.889   1
  10   0  -8 24837.2 997.839   1
 -10   0   8 24534.3 1070.44   9
 -10   0   9-143.368 236.708  13
 -10   0   9-103.279 209.092   9
 -10   0  10 30104.4 1198.83  13
 -10   0  11 84.5294 243.091  13
  10   0 -12 580.933 313.574   5
  10   0 -13 51.7916 280.910   5
  10   0 -14 8345.17 623.810   5
  10   0 -15-108.557 226.419   5
  10   0 -16-199.916 211.988   5
  10   0 -17-101.773 180.099   5
  10   1   0 13472.0 644.179   1
  10  -1   0 12497.2 596.864   1
  10   1  -1 204.836 154.645   1
  10  -1   1 240.471 141.098   1
 -10   1   1 111.160 158.761   9
  10  -1  -1 56.0773 129.868   1
  10   1  -2 171.249 157.625   1
  10  -1  -2 5.80317 136.402   1
  10  -1   2 64.6423 112.867   1
 -10  -1   2 101.388 165.827   9
 -10   1   2-16.2434 166.273   9
  10  -1  -3 1556.83 255.999   1
 -10  -1   3 1387.21 271.610   9
 -10   1   3 1417.15 270.538   9
  10   1  -3 1577.22 236.871   1
  10  -1  -4 814.938 217.967   1
  10   1  -4 872.041 215.904   1
 -10   1   4 741.797 227.395   9
  10   1  -5 56.4691 146.185   1
 -10   1   5 112.115 174.686   9
  10  -1  -5 32.5792 145.914   1
  10  -1  -6 337.884 168.615   1
 -10   1   6 801.350 232.250   9
  10   1  -6 750.771 214.049   1
  10  -1  -7 1970.54 328.518   1
 -10   1   7 2215.32 371.019   9
  10   1  -7 1861.84 281.415   1
  10   1  -8 2789.30 369.566   1
 -10   1   8 3130.00 436.875   9
  10   1  -9 639.254 227.751   1
 -10   1   9 455.526 255.747  13
 -10  -1   9 315.807 271.320  13
 -10   1   9 233.230 214.604   9
 -10   1  10 5419.22 555.209  13
 -10  -1  10 5210.32 541.325  13
 -10  -1 -10 5958.10 446.201  11
  10  -1 -10 6381.55 561.533   5
 -10  -1  11 236.534 261.663  13
 -10  -1 -11-250.111 238.397  11
  10  -1 -11 340.756 276.615   5
 -10  -1  12 47.6055 225.193  13
 -10  -1 -12 112.561 218.306  11
  10  -1 -12 218.159 273.838   5
  10  -1 -13 428.125 289.314   5
  10   1 -13 170.111 286.992   5
 -10   1  13 246.789 296.244  16
  10  -1 -14 296.020 276.644   5
  10   1 -14 382.207 283.814   5
  10  -1 -15 222.462 235.571   5
  10   1 -15 434.834 257.963   5
  10  -1 -16-166.476 208.866   5
  10   1 -16 22.0686 214.082   5
  10  -1 -17 465.833 211.147   5
  10   1 -17 279.645 194.869   5
  10  -2   0 4453.54 362.483   1
  10   2  -1 6299.97 449.530   1
 -10   2   1 6131.61 494.171   9
  10  -2  -1 5741.78 420.526   1
  10  -2   1 6277.07 420.832   1
  10   2  -2 133.732 148.151   1
  10  -2  -2 480.389 156.860   1
 -10   2   2 73.1210 175.156   9
  10   2  -3 30382.7 974.368   1
  10  -2  -3 28308.8 934.562   1
 -10   2   3 29225.3 1073.21   9
 -10   2   4 95.1665 171.463   9
  10   2  -4 91.9234 150.859   1
  10  -2  -4 71.4723 149.660   1
  10  -2  -5 10262.5 604.297   1
 -10   2   5 10227.9 670.688   9
  10   2  -5 9829.82 587.392   1
  10   2  -6 198.511 150.555   1
  10  -2  -6 31.0783 168.544   1
 -10   2   6-69.6117 195.769   9
  10   2  -7 57000.4 1409.41   1
 -10   2   7 54110.1 1611.56   9
  10   2  -8 3628.68 394.057   1
 -10   2   8 3738.53 467.127   9
 -10  -2   9 565.156 263.102  13
 -10  -2  10 2219.99 399.709  13
 -10  -2 -10 2421.07 325.202  11
 -10  -2  11 36.1910 243.158  13
 -10  -2 -11 268.619 237.001  11
  10  -2 -11 190.438 293.720   5
 -10   2  11 323.082 302.672  16
 -10  -2  12 666.025 290.446  13
  10  -2 -12 1142.80 336.147   5
 -10  -2 -12 1020.23 282.069  11
 -10   2  12 884.959 329.712  16
  10  -2 -13 748.559 303.267   5
 -10  -2 -13 618.488 247.299  11
 -10   2  13 463.918 294.709  16
  10  -2 -14 2103.56 371.306   5
  10   2 -14 1426.20 341.848   5
  10  -2 -15 4679.95 468.553   5
  10   2 -15 3759.88 454.982   5
  10  -2 -16-30.4611 200.912   5
  10   2 -16-2.28821 195.478   5
  10  -2 -17 1483.61 258.598   5
  10   2 -17 1077.16 242.400   5
  10  -3   0 19767.2 745.934   1
 -10  -3   0 19413.8 752.726   3
  10  -3  -1 4662.39 374.038   1
 -10   3   1 5330.43 471.881   9
 -10  -3  -1 5150.64 409.338   3
 -10  -3   1 5222.90 396.257   3
  10   3  -2 328.434 155.309   1
 -10   3   2 106.553 173.392   9
  10  -3  -2 246.216 153.080   1
  10   3  -3 6202.00 456.296   1
  10  -3  -3 6561.64 465.508   1
 -10   3   3 5913.33 503.551   9
  10  -3  -4 9658.57 582.558   1
 -10   3   4 10194.7 666.289   9
  10   3  -4 10123.7 588.745   1
  10  -3  -5 3389.42 376.976   1
 -10   3   5 3952.69 445.418   9
  10   3  -5 3898.10 383.244   1
  10   3  -6 229.239 165.416   1
 -10   3   6-180.485 214.976   9
  10   3  -7 7456.65 530.480   1
 -10   3   7 7676.02 627.142   9
 -10  -3   8 4695.67 477.199  13
 -10   3   8 3485.51 474.109   9
 -10   3   8 4365.30 519.498  16
 -10  -3   9 207.150 266.256  13
 -10   3   9 568.027 306.294  18
 -10   3   9 560.587 289.142  16
 -10  -3  10 438.197 282.050  13
 -10   3  10 353.714 286.318  18
 -10   3  10 570.312 340.316  16
 -10  -3  11 200.764 232.868  13
 -10  -3 -11 159.516 222.893  11
  10  -3 -11 163.174 247.467   4
 -10   3  11 471.344 316.316  16
 -10  -3  12 291.021 264.340  13
  10  -3 -12 217.112 277.966   5
 -10  -3 -12 332.037 227.141  11
  10  -3 -12-44.4715 219.991   4
 -10   3  12 87.9198 276.849  16
  10  -3 -13 294.389 258.407   5
 -10  -3 -13 33.1602 214.559  11
  10  -3 -14 353.954 274.991   5
  10  -3 -14 242.061 204.022  11
  10  -3 -15 494.744 253.400   5
  10   3 -15 548.001 271.927   5
  10  -3 -15 272.688 177.376  11
  10  -3 -16 218.327 200.458   5
  10   3 -16-10.0315 193.442   5
  10  -3 -17 176.918 159.717   5
  10   3 -17 193.682 181.242   5
 -10  -4   0 71341.0 1479.87   3
  10  -4  -1 2980.84 314.778   1
 -10   4   1 3610.76 410.763   9
 -10  -4  -1 3294.38 352.187   3
 -10  -4   1 3212.03 335.367   3
 -10  -4  -2 186.400 162.004   3
 -10   4   2-29.3683 191.495   9
  10  -4  -2 426.635 175.769   1
  10  -4  -3 6643.83 476.414   1
  10   4  -3 6003.63 462.070   1
 -10   4   3 6889.41 555.187   9
 -10  -4  -3 6182.84 478.534   3
  10   4  -4 19415.1 810.845   1
  10  -4  -4 17522.6 773.330   1
 -10   4   4 17843.9 889.932   9
 -10   4   5 1924.23 335.727   9
  10   4  -5 1860.35 275.879   1
 -10   4   6 3089.44 421.026   9
  10   4  -6 3608.61 389.551   1
 -10   4   7 12264.8 811.447   9
 -10   4   8 4419.92 547.329  16
 -10   4  -8 4669.92 396.845   7
 -10  -4   9-306.051 307.678  13
 -10   4  -9 61.4798 199.475   7
 -10   4   9 280.132 274.817  16
 -10  -4  10 7719.74 649.548  13
  10  -4 -10 7674.41 611.338   4
 -10   4  10 6488.96 646.375  16
 -10  -4  11 413.556 253.377  13
  10  -4 -11 321.982 253.788   4
 -10   4  11 317.450 282.534  16
 -10  -4  12 703.129 296.673  13
  10  -4 -12 1305.20 344.124   5
  10  -4 -12 942.457 290.569   4
 -10   4  12 1002.57 337.283  16
  10  -4 -13 426.505 264.947   5
  10  -4 -13 122.362 220.836   4
  10  -4 -14 2762.55 336.108  11
  10  -4 -14 3473.47 410.421   5
  10  -4 -15 1845.55 322.723   5
  10  -4 -15 1785.99 252.280  11
  10   4 -16 50.8165 196.558   5
  10  -4 -16 8.99890 192.648   5
 -10  -5   0 36717.5 1078.76   3
 -10  -5  -1 364.516 181.844   3
 -10  -5   1 356.588 161.253   3
 -10   5   2 173.152 186.550   9
 -10  -5  -2-62.0810 174.530   3
 -10  -5  -3 18.2006 164.159   3
  10   5  -3-4.54990 153.376   1
 -10   5   3 112.301 207.993   9
  10   5  -4 6644.32 487.917   1
 -10   5   4 6644.00 563.388   9
 -10  -5  -4 6408.76 490.063   3
  10   5  -5-131.814 161.155   1
 -10   5   5 72.7689 195.011   9
 -10   5   6-59.2320 235.371   9
 -10   5   7-45.8915 196.087   9
 -10   5   7 321.069 288.821  16
 -10  -5   7 131.526 171.511  14
 -10   5   8 105.303 284.299  16
 -10   5  -8 242.551 209.011   7
 -10  -5   9 280.080 270.901  13
  10  -5  -9 653.772 290.748   4
 -10   5   9 595.433 318.656  16
 -10   5  -9 311.765 219.507   7
 -10  -5  10 1934.77 370.173  13
  10  -5 -10 2621.97 400.557   4
 -10   5  10 1966.12 411.245  16
 -10   5 -10 2172.46 328.295   7
 -10  -5  11 413.243 283.432  13
  10  -5 -11 215.254 245.497   4
 -10   5  11-413.738 295.874  16
 -10   5 -11-57.7870 204.521   7
  10  -5 -12 188.767 248.324   4
 -10   5  12 127.048 246.805  16
  10  -5 -13-71.8967 230.594   5
  10  -5 -13-49.3330 226.955   4
  10  -5 -14 210.835 240.385   5
  10  -5 -14 110.525 229.539   4
  10  -5 -14 621.503 223.993  11
  10  -5 -15-455.377 198.780  11
  10  -5 -15-203.254 221.864   5
  10   5 -16-356.321 206.683   5
  10  -5 -16-472.676 178.911  11
  10  -5 -16-151.964 190.368   5
 -10  -6   0 69288.5 1545.48   3
 -10  -6  -1 973.722 221.932   3
 -10  -6   1 821.323 228.748   3
 -10  -6  -2 1513.88 281.593   3
 -10  -6   2 1358.48 248.153   3
 -10   6   2 1660.36 315.242   9
  10   6  -3 16025.4 774.745   1
 -10   6   3 15891.8 874.354   9
 -10  -6  -3 14966.7 757.099   3
  10   6  -4 10456.4 632.677   1
 -10   6   4 10335.0 704.682   9
 -10  -6  -4 10926.8 653.571   3
 -10  -6  -5 872.599 237.058   3
 -10   6   5 428.269 221.379   9
 -10   6   6 764.634 282.791   9
 -10   6   6 1199.44 313.968  16
 -10  -6   6 973.645 251.224  14
 -10   6   7 6979.63 643.262  16
  10  -6  -8 3671.79 433.213   4
 -10   6   8 2932.95 482.145  16
  10  -6  -9 566.380 271.343   4
 -10   6   9 524.189 293.431  16
 -10   6  -9 354.647 240.282   7
 -10  -6  10 3017.88 447.396  13
  10  -6 -10 3213.49 441.162   4
 -10   6  10 2806.16 472.807  16
 -10   6 -10 3098.91 392.002   7
 -10  -6  11 101.047 229.644  13
  10  -6 -11-25.6910 240.495   4
 -10   6  11-21.7238 280.402  16
 -10   6 -11-386.314 219.355   7
  10  -6 -12 1180.12 314.534   4
 -10   6  12 467.800 275.878  16
  10  -6 -13 3008.50 350.307  11
  10  -6 -13 926.082 308.278   4
  10  -6 -14 746.407 252.712   4
  10  -6 -14 753.779 216.550  11
  10  -6 -14 1460.43 285.340   5
  10  -6 -15 92.2430 148.757  11
  10   6 -16 172.268 181.811   5
  10  -6 -16-307.641 150.679  11
 -10  -7   0 2644.97 340.249   3
 -10  -7  -1 539.309 207.678   3
 -10  -7   1 777.832 227.232   3
 -10  -7  -2 1530.60 289.556   3
 -10  -7   2 1413.54 261.679   3
 -10   7   3 5443.06 522.250   9
 -10  -7  -3 5130.63 475.441   3
 -10  -7  -4 108.106 185.588  14
 -10  -7  -4 239.241 201.840   3
 -10   7   4-0.55856 214.480   9
 -10   7   4 92.9833 220.250  16
 -10  -7  -5 349.327 225.508  14
  10   7  -5 422.904 228.830  12
 -10   7   5 350.015 244.647  16
 -10  -7   5 542.173 232.597  14
  10  -7  -6 786.177 277.974   4
 -10   7   6 513.057 303.673  16
  10  -7  -7 4774.16 457.435   4
 -10   7   7 5147.56 576.240  16
  10  -7  -8-80.5985 262.370   4
 -10   7   8 556.010 303.670  16
  10  -7  -9 142.700 233.772   4
 -10   7   9 156.932 291.245  16
 -10  -7  10 1174.38 334.595  13
  10  -7 -10 1011.28 320.096   4
 -10   7 -10 640.196 236.745   7
 -10  -7  11 386.028 257.019  13
  10  -7 -11 630.953 279.077   4
 -10   7 -11 105.901 202.453   7
  10  -7 -12 241.181 227.647   4
 -10   7 -12-96.5438 201.964   7
  10  -7 -13 1499.04 286.314  11
  10  -7 -13 189.570 206.694   4
  10  -7 -14 176.590 171.929  11
  10  -7 -15 0.94855 147.199  11
 -10  -8   0 5547.29 523.223  14
 -10  -8   0 4498.47 451.401   3
 -10  -8   1 3837.26 439.373  14
 -10  -8  -1 3869.21 445.363  14
 -10  -8   1 3297.63 382.183   3
 -10  -8   2 218.166 195.729  14
 -10  -8  -2-180.910 244.815  14
 -10  -8   2 100.520 142.090   3
 -10  -8   3 11562.2 696.315  14
 -10  -8  -3 11170.7 727.200  14
 -10  -8   4 1933.02 345.996  14
 -10  -8  -4 1733.32 360.225  14
  10   8  -4 1531.20 320.341  12
  10   8  -5 3367.48 428.482  12
  10  -8  -5 3511.88 408.806   4
 -10  -8  -5 3804.97 456.112  14
  10  -8  -6 6546.96 551.346   4
  10  -8  -7 16553.2 827.167   4
  10  -8  -8 269.176 237.975   4
  10  -8  -9 371.678 252.297   4
 -10  -8  10 924.185 327.506  13
  10  -8 -10 243.597 243.262   4
  10  -8 -11 579.494 266.779   4
 -10   8 -11 87.6158 198.272   7
  10  -8 -12 2924.22 358.239  11
  10  -8 -12-114.201 219.416   4
  10  -8 -13 832.170 212.906  11
  10  -8 -14-212.261 159.456  11
 -10  -9   0 7874.13 594.800  14
 -10  -9   1 182.869 230.488  14
 -10  -9  -1 176.036 238.187  14
 -10  -9   2-150.790 209.816  14
 -10  -9  -2-0.12186 250.941  14
 -10  -9   3 1412.33 298.094  14
 -10  -9  -3 1449.41 331.594  14
  10   9  -3 1231.48 305.847  12
 -10  -9  -4-5.72266 215.583  14
  10   9  -4 69.7055 230.070  12
 -10  -9  -5 385.096 256.227  14
  10   9  -5 210.731 233.430  12
  10  -9  -5 159.159 229.232   4
  10  -9  -6 339.355 244.921   4
  10   9  -6 3277.01 229.492   7
  10  -9  -7 1085.28 301.926   4
  10   9  -7 2114.94 217.911   7
  10  -9  -8 185.673 223.214   4
  10  -9  -9 411.833 247.824   4
 -10  -9  10 1289.52 322.866  13
  10  -9 -10 1283.94 314.195   4
 -10  -9 -11-13.0472 205.697  14
  10  -9 -11 221.931 227.704   4
  10  -9 -12 2013.53 279.858  11
  10  -9 -13 339.084 170.574  11
  10  -9 -14-38.0613 137.347  11
 -10 -10   0 17275.1 854.123  14
 -10 -10   1 3608.55 423.601  14
 -10 -10  -1 3752.69 443.667  14
 -10 -10   2 174.701 197.399  14
 -10 -10  -2 132.350 226.477  14
  10  10  -2-29.3427 236.475  12
 -10 -10  -3 248.457 222.198  14
  10  10  -3 53.2201 238.160  12
 -10 -10  -4 281.343 234.736  14
  10  10  -4 401.419 252.684  12
 -10 -10  -5 107.769 222.194  14
  10  10  -5-12.4451 233.895  12
 -10 -10  -6 149.522 224.602  14
  10 -10  -6 400.623 249.337   4
 -10 -10  -7 594.153 250.063  14
  10  10  -7 853.171 175.666   7
  10 -10  -7 530.523 240.538   4
  10 -10  -8 2690.21 383.568   4
 -10 -10  -8 2728.13 392.304  14
  10 -10  -9 2353.30 384.923   4
 -10 -10  -9 2907.74 388.547  14
  10 -10 -10 5371.84 487.660   4
 -10 -10 -10 5040.13 483.126  14
 -10 -10 -11 131.333 185.624  14
  10 -10 -11 3065.61 323.761  11
 -10 -10 -12-4.60461 159.182  14
  10 -10 -12 601.299 194.509  11
  10 -10 -13 62.9986 143.133  11
 -10 -11   0 140.351 211.008  14
 -10 -11   1 15.9137 185.281  14
 -10 -11  -1-51.3543 197.691  14
  10  11  -1-115.734 218.712  12
 -10 -11  -2 164.789 215.617  14
  10  11  -2-208.402 250.116  12
 -10 -11  -3 109.128 209.018  14
  10  11  -3-66.8359 223.598  12
 -10 -11  -4 133.373 213.223  14
  10  11  -4 340.066 255.802  12
 -10 -11  -5-19.0838 208.717  14
  10  11  -5 251.460 219.380  12
 -10 -11  -6 289.653 223.162  14
  10  11  -6 1366.42 211.668   7
 -10 -11  -7 202.700 202.099  14
  10  11  -7 160.159 135.840   7
  10 -11  -7 433.823 249.923   4
 -10 -11  -8 1412.53 322.065  14
  10 -11  -8 1815.60 322.924   4
 -10 -11  -9 1007.48 259.353  14
  10  11  -9 533.052 176.125   7
 -10 -11 -10 655.155 213.392  14
  10 -11 -10 3804.75 319.550  11
 -10 -11 -11 67.1988 154.435  14
  10 -11 -11 696.132 191.766  11
 -10 -11 -12 119.420 147.708  14
 -10 -12   0 1607.60 281.701  14
  10  12   0 1720.51 316.381  12
 -10 -12  -1 244.236 203.756  14
  10  12  -1 290.509 220.114  12
 -10 -12  -2 2071.87 329.796  14
  10  12  -2 1970.24 338.802  12
  10  12  -3 2934.98 409.749  12
 -10 -12  -3 3150.54 405.603  14
 -10 -12  -4 394.227 222.862  14
  10  12  -4 284.751 228.279  12
 -10 -12  -5 251.212 214.294  14
  10  12  -5 56.0892 205.055  12
 -10 -12  -6 2079.19 351.751  14
  10  12  -6 1472.89 219.505   7
  10  12  -7 1761.63 261.313   7
 -10 -12  -7 3474.80 402.961  14
 -10 -12  -8 1905.95 317.442  14
  10  12  -8 1231.43 204.347   7
 -10  12   8 1449.57 305.578   6
 -10 -12  -9-67.2356 165.507  14
  10  12  -9 311.538 154.376   7
 -10  12   9-159.737 200.420   6
 -10 -12 -10-522.891 188.552  14
 -10  12  10 12.6540 190.035   6
 -10 -12 -11 202.568 161.024  14
  10  13   0 363.213 207.841  12
  10  13  -1-204.080 188.794  12
  10  13  -1 7479.47 257.304   7
 -10 -13  -2 177.939 180.847  14
  10  13  -2 317.053 213.460  12
 -10 -13  -3 273.263 188.585  14
  10  13  -3 205.540 211.005  12
 -10 -13  -4 651.179 216.578  14
  10  13  -4 1033.13 258.468  12
 -10 -13  -5 339.044 204.265  14
  10  13  -5 830.114 177.835   7
 -10 -13  -6 60.2759 174.680  14
  10  13  -6-211.899 142.975   7
 -10 -13  -7 465.537 208.150  14
  10  13  -7-165.830 158.534   7
 -10 -13  -8 669.376 202.292  14
  10  13  -8 212.624 147.615   7
 -10 -13  -9 161.705 159.301  14
  10  13  -9-57.7781 120.540   7
 -10  13   9 17.9574 172.395   6
  10  14   0 3264.64 363.184  12
  10  14   0 5296.36 247.382   7
  10  14  -1 1643.02 294.293  12
  10  14   1 1583.43 276.608  12
  10  14  -2 49.7169 180.357  12
  10  14  -2 2703.14 226.619   7
 -10 -14  -3-165.366 167.138  14
  10  14  -3 172.804 186.470  12
 -10 -14  -4 428.396 183.802  14
  10  14  -4 827.128 229.196  12
  10  14  -4 795.229 181.265   7
 -10 -14  -5 221.297 167.183  14
  10  14  -5-69.2730 143.864   7
 -10 -14  -6 573.608 200.022  14
  10  14  -6-154.627 158.772   7
 -10 -14  -7 509.638 192.446  14
  10  14  -7 665.913 170.014   7
  10  15   0 828.043 202.205  12
  10  15   0 1217.47 162.315   7
  10  15  -1 146.975 152.608  12
  10  15   1 306.827 179.144  12
  10  15  -1 616.214 141.994   7
  10  15  -2 145.662 171.296  12
  10  15  -2-94.7041 110.320   7
  10  15  -3 39.4376 154.564  12
  10  15  -3-119.300 126.588   7
  10  15  -4-393.090 159.174   7
  11   0   0-116.472 162.346   1
  11   0   1-76.6831 143.685   1
  11   0  -1-112.986 152.440   1
  11   0   2 17234.9 741.728   1
 -11   0   2 18055.8 862.508   9
  11   0  -2 18393.4 791.455   1
  11   0  -3-32.0813 155.346   1
 -11   0   3 112.212 196.956   9
  11   0  -4 5202.00 461.793   1
 -11   0   4 5851.13 528.149   9
 -11   0   5 178.936 190.782   9
  11   0  -5-17.1878 182.391   1
 -11   0   6-89.4597 207.848   9
  11   0  -6 241.587 186.721   1
 -11   0   7 0.12317 210.443  13
  11   0  -7 52.1055 175.482   1
 -11   0   8 11949.4 790.852  13
 -11   0   9 102.253 251.969  13
 -11   0  10 39.6981 251.954  13
  11   0 -11-121.933 273.406   5
  11   0 -12 8378.25 639.210   5
  11   0 -13-138.459 260.921   5
  11   0 -14-70.5238 240.043   5
 -11   0  14-210.139 234.300  16
  11   0 -15 150.159 201.289   5
 -11   0  15 52.6902 222.328  18
  11   0 -16-150.087 175.585   5
 -11   0  16-302.841 216.899  18
  11  -1   0-13.9643 140.302   1
  11   1   0 284.549 180.615   1
  11   1  -1 26257.4 931.860   1
  11   1   1 25271.0 905.625   1
  11  -1  -1 26792.2 939.084   1
  11  -1   1 25394.4 884.204   1
  11   1   2 2984.84 336.583   1
 -11   1   2 2950.85 388.882   9
  11  -1  -2 3091.09 361.396   1
  11   1  -2 3442.22 372.898   1
  11   1   3 18981.8 785.957   1
  11  -1  -3 19506.1 843.708   1
 -11   1   3 19163.7 911.719   9
  11   1  -3 18719.8 823.835   1
  11  -1  -4 34585.3 1111.84   1
 -11   1   4 35829.9 1255.77   9
  11   1  -4 36026.4 1142.52   1
 -11   1   5 640.311 258.990   9
  11   1  -5 404.090 188.300   1
  11  -1  -5 259.087 165.847   1
  11  -1  -6 8470.76 597.440   1
  11   1  -6 8432.12 572.663   1
 -11   1   6 8191.26 664.463   9
 -11   1   7 2724.70 395.011  13
 -11  -1   7 2896.02 403.892  13
  11  -1  -7 2503.21 371.398   1
  11   1  -7 2757.39 364.590   1
 -11   1   7 2151.62 370.222   9
 -11   1   7 3090.44 464.402  18
 -11   1   8 5342.58 546.107  13
 -11  -1   8 6339.19 560.870  13
 -11   1   9 134.729 249.014  13
 -11  -1   9 264.651 241.297  13
 -11  -1  10 205.597 254.398  13
 -11  -1  11 1658.75 354.249  13
  11  -1 -12 103.894 258.451   5
  11   1 -12 256.467 272.070   5
 -11   1  12 442.899 292.144  16
  11  -1 -13 1208.56 327.454   5
  11   1 -13 924.719 321.412   5
 -11   1  13 830.995 311.633  16
  11  -1 -14 2058.39 372.831   5
  11   1 -14 2420.82 374.655   5
 -11   1  14 1625.99 364.687  18
 -11   1  14 2381.95 396.160  16
  11  -1 -15 461.677 235.348   5
  11   1 -15 249.215 217.678   5
 -11   1  15-230.638 236.829  18
  11  -1 -16 78.2107 178.959   5
  11   1 -16 55.3349 181.034   5
 -11  -1  16 127.022 197.319  18
  11  -2   0-99.4811 148.008   1
  11   2   0-121.897 161.313   1
  11   2  -1 3197.28 377.570   1
  11   2   1 3026.73 346.873   1
  11  -2  -1 3280.34 352.334   1
  11   2  -2 494.458 176.323   1
 -11   2   2 794.446 261.090   9
  11  -2  -2 549.902 199.380   1
 -11   2   3 522.020 234.567   9
  11  -2  -3 373.642 176.671   1
  11   2  -3 250.370 160.349   1
 -11   2   4 133.680 186.131   9
  11   2  -4-97.9446 178.335   1
  11  -2  -4-35.6671 158.833   1
  11  -2  -5 27522.5 1029.81   1
 -11   2   5 27566.4 1134.26   9
  11   2  -5 27561.6 1022.06   1
  11   2  -6-24.1612 155.250   1
  11  -2  -6 277.498 205.335   1
 -11   2   6 172.632 209.175   9
 -11   2   7 3394.10 434.811  13
 -11  -2   7 3689.49 475.836  13
  11   2  -7 3529.47 398.998   1
 -11   2   7 4100.58 490.965   9
 -11  -2   7 3922.27 472.809  17
 -11   2   7 4313.05 556.556  18
 -11  -2   8 1315.90 340.725  13
 -11   2   8 1336.38 380.460  18
 -11  -2   9 1713.89 364.474  13
 -11   2   9 1501.52 394.413  18
 -11  -2  10 269.947 240.436  13
 -11   2  10 607.980 318.705  18
 -11   2  10 578.451 357.521  16
 -11  -2  11 493.188 281.254  13
 -11   2  11 453.883 291.542  18
  11  -2 -11 623.373 275.815   4
 -11   2  11 262.185 280.022  16
 -11  -2  12 753.173 279.818  13
 -11   2  12 1202.67 356.200  18
 -11   2  12 403.219 288.153  16
  11  -2 -13 245.477 254.270   5
  11   2 -13 240.644 242.491   5
 -11   2  13 227.090 250.438  18
 -11   2  13 454.767 275.158  16
  11  -2 -14 121.937 228.518   5
  11   2 -14-215.417 234.477   5
  11  -2 -15 1354.97 297.785   5
  11   2 -15 1075.62 270.790   5
  11  -2 -16 264.185 198.667   5
  11   2 -16 263.440 197.647   5
  11   3  -1 28001.0 1003.01   1
  11  -3  -1 27955.6 959.857   1
 -11   3   2 1068.70 277.499   9
  11  -3  -2 909.482 223.910   1
  11   3  -2 686.647 202.025   1
  11  -3  -3 23194.7 905.059   1
 -11   3   3 22956.8 1032.97   9
  11   3  -3 21676.8 892.965   1
  11  -3  -4 3419.63 387.185   1
 -11   3   4 3458.80 431.191   9
  11   3  -4 2944.18 359.522   1
  11  -3  -5 380.947 205.807   1
  11   3  -5 688.552 227.341   1
 -11   3   5 598.343 272.128   9
 -11  -3   6 2770.33 412.260  13
  11   3  -6 2096.02 318.425   1
 -11   3   6 2017.65 374.652   9
 -11   3   6 2537.00 404.909  16
 -11   3   7 6429.61 647.944  18
 -11  -3   7 6287.37 581.812  13
 -11   3   7 5240.35 580.939  16
 -11  -3   8 466.588 261.097  13
 -11   3   8 286.565 299.822  18
 -11   3   8 322.440 312.288  16
 -11  -3   9 349.665 270.433  13
 -11   3   9-121.825 273.494  18
 -11   3   9 287.873 283.229  16
 -11  -3  10-28.6604 246.372  13
 -11   3  10-45.4469 265.029  18
 -11   3  10 405.441 317.413  16
 -11  -3  11 9365.87 689.299  13
  11  -3 -11 9323.41 625.574   4
 -11   3  11 8356.23 742.366  18
 -11   3  11 8788.45 713.622  16
 -11  -3  12-85.8937 225.187  13
  11  -3 -12 54.7490 222.303   4
 -11   3  12 348.142 278.983  16
 -11   3  13 2947.40 442.522  16
  11  -3 -13 3112.37 417.371   5
  11  -3 -14 721.031 270.479   5
  11   3 -14 782.823 282.145   5
  11  -3 -14 420.302 191.266  11
  11  -3 -15 345.168 217.397   5
  11   3 -15 37.4803 200.584   5
  11  -3 -16 10.1368 170.930   5
  11   3 -16-23.5328 187.653   5
 -11  -4   0-57.6278 145.243   3
  11   4  -1 866.528 226.159   1
 -11  -4   1 1091.20 230.333   3
 -11  -4  -1 1106.10 236.313   3
  11  -4  -2 27877.8 979.006   1
  11   4  -2 26651.6 1003.31   1
 -11   4   2 27972.2 1136.30   9
  11  -4  -3 548.633 206.039   1
 -11   4   3 734.379 253.650   9
  11   4  -3 652.016 204.533   1
  11   4  -4 298.573 172.444   1
 -11   4   4-13.5046 200.447   9
 -11   4   5 5362.58 541.050   9
  11   4  -5 5053.54 460.053   1
  11   4  -6 1150.29 264.443   1
 -11   4   6 1445.49 386.815  18
 -11   4   6 1575.93 377.981  16
 -11  -4   6 1054.12 273.063  14
 -11   4   7-137.843 292.916  18
 -11   4   7 343.730 310.190  16
 -11  -4   8 3256.39 469.212  13
 -11   4   8 3408.83 502.845  18
 -11   4   8 3186.28 493.732  16
 -11  -4   9 272.050 295.215  13
 -11   4   9-123.713 282.176  16
 -11  -4  10 276.406 269.667  13
  11  -4 -10 125.674 236.430   4
 -11   4  10 753.788 317.073  16
 -11  -4  11 488.319 289.775  13
  11  -4 -11 233.331 243.424   4
 -11   4  11 91.1144 270.084  16
 -11  -4  12 2018.33 363.262  13
  11  -4 -12 2045.59 352.228   4
 -11   4  12 1759.33 366.104  16
 -11  -4  13 324.296 221.301  13
  11  -4 -13 867.929 280.318   4
 -11   4  13 122.827 234.604  16
  11  -4 -14 245.669 227.968   5
  11  -4 -14 491.618 203.618  11
  11  -4 -15 176.711 208.837   5
  11   4 -15 464.983 219.474   5
  11  -4 -15-281.452 174.842  11
  11   4 -16 157.791 185.767   5
 -11  -5   0 102.287 169.364   3
 -11  -5  -1-76.6899 176.672   3
 -11  -5   1-23.4551 145.960   3
 -11  -5  -2 304.291 196.601   3
 -11   5   2 759.322 282.744   9
  11   5  -2 166.825 167.671   1
  11   5  -3 2271.61 327.281   1
 -11   5   3 2091.89 363.494   9
 -11  -5  -3 2314.76 330.734   3
 -11   5   4 23214.4 1102.74   9
  11   5  -4 22664.8 940.298   1
 -11   5   5 3803.66 480.042  18
 -11   5   5 4524.22 518.761  16
  11   5  -5 3912.42 409.910   1
 -11  -5   5 4133.34 454.385  14
 -11  -5  -5 4104.98 440.254  14
 -11   5   6 11994.4 817.264  18
 -11   5   6 11509.0 802.807  16
 -11  -5   6 12014.0 723.004  14
 -11  -5  -6 10771.5 669.757  14
 -11   5   7 87.3308 281.699  16
 -11  -5   8 4732.14 543.598  13
 -11   5   8 4811.03 569.849  16
 -11  -5   9 62.6917 246.872  13
  11  -5  -9 210.474 238.345   4
 -11   5   9 641.344 319.036  16
 -11  -5  10 182.529 247.724  13
  11  -5 -10 170.714 255.163   4
 -11   5  10-161.709 262.045  16
 -11  -5  11-144.741 242.594  13
  11  -5 -11-378.429 259.152   4
 -11   5  11-87.5087 261.058  16
 -11  -5  12-72.8136 221.814  13
  11  -5 -12 499.606 250.713   4
 -11   5  12 348.448 252.112  16
  11  -5 -13 139.260 227.633   4
 -11   5  13-360.346 252.414  16
  11  -5 -14 1900.32 279.373  11
  11  -5 -14 1946.12 315.368   4
  11   5 -15 237.891 194.438   5
  11  -5 -15-245.263 168.149  11
 -11  -6   0-59.1815 152.912   3
 -11  -6  -1 4299.08 430.704   3
 -11  -6   1 4498.21 425.599   3
 -11  -6  -1 5159.19 495.265  14
  11   6  -2 12976.3 724.142   1
 -11   6   2 14776.0 846.352  16
 -11  -6  -2 12949.3 737.819   3
 -11  -6   2 15172.5 802.869  14
 -11  -6  -2 15068.6 792.177  14
 -11  -6   3 1466.69 309.161  14
 -11  -6  -3 1237.55 296.447  14
  11   6  -3 1280.37 259.562   1
 -11   6   3 1340.27 318.516  18
 -11   6   3 1646.25 367.022  16
 -11  -6  -4 898.613 281.200  14
 -11   6   4 1069.92 314.088  18
 -11   6   4 803.693 301.335  16
 -11  -6   4 891.767 275.785  14
 -11   6   5 6606.32 632.124  16
 -11  -6   5 6687.87 573.029  14
 -11  -6  -5 6279.44 558.277  14
 -11  -6  -6 252.617 243.371  14
 -11   6   6 110.382 264.742  16
 -11  -6   6 10.0039 208.918  14
 -11  -6  -7 7.97112 205.486  14
 -11   6   7 66.6113 282.126  16
  11  -6  -8 493.648 244.328   4
 -11   6   8 661.447 292.411  16
 -11  -6   9-298.992 280.904  13
  11  -6  -9 370.986 270.771   4
 -11   6   9-346.402 284.182  16
 -11  -6  10 429.123 266.773  13
  11  -6 -10 76.1325 227.810   4
 -11   6  10 430.385 284.711  16
 -11  -6  11 656.138 272.501  13
  11  -6 -11 473.502 229.093   4
 -11   6  11 528.698 286.984  16
 -11  -6  12 987.624 271.504  13
  11  -6 -12 863.660 264.230   4
  11  -6 -13 2111.97 283.612  11
  11  -6 -13 472.797 244.413   4
  11  -6 -14-252.383 201.882   4
  11  -6 -14 276.372 162.285  11
  11   6 -15 504.769 211.080   5
  11  -6 -15-67.8322 142.106  11
 -11  -7   0 161.304 243.093  14
 -11  -7   0-99.8013 244.539  17
 -11  -7   1 16900.7 875.119  14
 -11  -7  -1 17225.5 888.220  14
 -11  -7   2 3061.74 419.104  14
 -11  -7  -2 3224.00 424.091  14
 -11  -7   3 7124.30 576.771  14
 -11  -7  -3 7152.47 592.826  14
 -11  -7   4 8805.26 628.704  14
 -11  -7  -4 8262.25 629.912  14
 -11  -7  -5 2109.77 363.622  14
 -11  -7   5 2063.68 351.817  14
  11  -7  -6 4212.73 457.010   4
 -11  -7   6 4298.48 458.991  14
 -11  -7  -6 3908.06 457.442  14
 -11  -7  -7 345.818 245.665  14
  11  -7  -7 463.862 260.609   4
 -11   7   7 74.9805 258.115  16
 -11  -7  -8 195.798 203.936  14
  11  -7  -8 33.1503 228.373   4
 -11  -7  -9 129.789 216.103  14
 -11  -7   9 398.743 289.458  13
  11  -7  -9 88.7620 220.171   4
 -11  -7  10 617.843 286.939  13
  11  -7 -10 608.053 257.098   4
 -11  -7  11 2516.69 394.525  13
  11  -7 -11 2317.13 378.735   4
  11  -7 -12 6517.61 458.245  11
  11  -7 -12 903.951 276.778   4
  11  -7 -13 481.243 218.779   4
  11  -7 -13 1737.28 258.679  11
  11  -7 -14 529.342 168.587  11
 -11  -8   0-191.039 211.744  14
 -11  -8   1 758.415 267.872  14
 -11  -8  -1 967.638 306.006  14
 -11  -8   2 1791.81 340.280  14
 -11  -8  -2 1487.95 338.782  14
 -11  -8   3 279.474 232.040  14
 -11  -8  -3 452.202 242.475  14
 -11  -8  -4 907.083 289.317  14
 -11  -8   4 1247.93 297.040  14
  11  -8  -5 6180.58 515.685   4
 -11  -8   5 5867.99 526.890  14
 -11  -8  -5 5578.30 538.871  14
 -11  -8  -6 390.559 256.207  14
  11  -8  -6 212.957 231.012   4
 -11  -8  -7 272.109 216.927  14
  11  -8  -7 303.823 242.311   4
 -11  -8  -8 977.321 279.441  14
  11  -8  -8 1234.03 319.120   4
 -11  -8  -9 380.635 215.237  14
  11  -8  -9 1096.82 299.698   4
 -11  -8 -10-104.928 196.243  14
 -11  -8  10-132.579 211.265  13
  11  -8 -10 196.084 214.238   4
 -11  -8  11-63.5091 201.029  13
  11  -8 -11-39.6043 205.519   4
  11  -8 -12 3524.74 330.381  11
  11  -8 -12 43.7587 189.449   4
  11  -8 -13 551.006 186.530  11
  11  -8 -14-217.584 141.132  11
 -11  -9   0 161.091 233.835  14
 -11  -9   1 3774.80 439.365  14
 -11  -9  -1 4180.78 466.611  14
 -11  -9   2 1036.96 278.822  14
 -11  -9  -2 1587.95 350.990  14
 -11  -9   3 5149.83 489.290  14
 -11  -9  -3 5351.66 533.900  14
 -11  -9  -4 1199.56 321.782  14
  11   9  -4 1066.74 294.986  12
 -11  -9  -5 2921.94 420.588  14
  11   9  -5 7006.32 240.880   7
 -11  -9  -6 95.8421 210.547  14
  11  -9  -6 131.798 226.044   4
 -11  -9  -7 1295.86 298.813  14
  11  -9  -7 1339.39 307.550   4
  11  -9  -8 3532.57 419.539   4
 -11  -9  -8 3405.41 421.390  14
 -11  -9  -9 479.764 229.440  14
  11  -9  -9 429.512 245.160   4
 -11  -9 -10 232.956 210.359  14
 -11  -9  10 228.752 236.660  13
  11  -9 -10-10.3370 214.946   4
 -11  -9 -11 1701.60 288.956  14
  11  -9 -11 1806.48 298.282   4
  11  -9 -12 1654.57 231.519  11
  11  -9 -13 177.393 139.625  11
 -11 -10   0 181.670 205.106  14
 -11 -10   1 128.128 188.366  14
 -11 -10  -1-125.947 212.769  14
 -11 -10   2 481.807 247.472  14
 -11 -10  -2 256.880 219.360  14
 -11 -10  -3 388.950 231.941  14
 -11 -10  -4 851.270 273.183  14
  11  10  -4 529.263 238.543  12
 -11 -10  -5 483.056 245.166  14
  11  10  -5 5372.00 246.522   7
 -11 -10  -6 87.3356 207.144  14
  11 -10  -6 636.915 258.657   4
 -11 -10  -7 434.221 202.186  14
  11  10  -7 600.315 156.716   7
  11 -10  -7 671.426 250.135   4
 -11 -10  -8 2012.88 333.904  14
  11 -10  -8 1967.63 349.850   4
 -11 -10  -9 332.254 214.049  14
  11 -10  -9 404.440 231.606   4
 -11 -10 -10 689.427 212.977  14
 -11 -10  10 410.306 208.286  13
  11 -10 -10 207.648 195.319   4
 -11 -10 -11 405.725 189.926  14
  11 -10 -11 2707.67 283.295  11
  11 -10 -12 1186.52 202.432  11
 -11 -11   0-105.287 185.072  14
 -11 -11   1 1569.46 287.700  14
 -11 -11  -1 1332.91 293.380  14
 -11 -11  -2 632.740 240.712  14
 -11 -11  -3-87.6529 202.065  14
  11  11  -3 292.868 232.147  12
  11  11  -4 5429.72 500.762  12
  11  11  -4 6406.61 278.852   7
 -11 -11  -4 5796.80 513.891  14
 -11 -11  -5 1657.91 335.880  14
  11  11  -5 3816.38 244.862   7
 -11 -11  -6 1641.44 317.721  14
  11  11  -6 1971.52 210.699   7
 -11 -11  -7 191.747 198.900  14
  11  11  -7-262.262 155.347   7
 -11 -11  -8 910.920 241.509  14
  11  11  -8-13.4376 123.869   7
 -11 -11  -9 415.397 193.877  14
 -11 -11   9 349.912 200.689  13
 -11 -11 -10 247.043 176.120  14
  11 -11 -10 2296.55 253.147  11
 -11 -12   0-246.584 200.195  14
 -11 -12  -1 611.399 215.669  14
 -11 -12  -2 183.497 177.528  14
  11  12  -2-105.623 195.297  12
 -11 -12  -3 58.8464 174.680  14
  11  12  -3 150.909 230.832  12
 -11 -12  -4 800.216 241.219  14
  11  12  -4 2730.23 249.035   7
 -11 -12  -5 1773.05 313.164  14
  11  12  -5 2488.54 231.827   7
 -11 -12  -6 224.606 181.814  14
  11  12  -6-50.8536 132.452   7
 -11 -12  -7 27.9444 165.849  14
  11  12  -7-171.079 146.705   7
 -11 -12  -8-26.6369 148.098  14
  11  12  -8-186.438 140.414   7
 -11 -12  -9 276.458 159.225  14
 -11 -12   9 230.286 168.860  13
  11  13   0 9044.85 254.352   7
 -11 -13  -1 1880.15 285.960  14
  11  13  -1 7890.54 272.927   7
 -11 -13  -2 1250.44 242.576  14
  11  13  -2 844.885 233.921  12
 -11 -13  -3 896.188 234.083  14
  11  13  -3 881.303 228.808  12
 -11 -13  -4-51.8869 153.435  14
  11  13  -4 1082.64 178.694   7
 -11 -13  -5-105.295 160.796  14
  11  13  -5-103.633 127.750   7
 -11 -13  -6 96.5416 149.642  14
  11  13  -6-366.031 149.905   7
 -11 -13  -7 202.236 162.014  14
  11  13  -7-72.5189 131.071   7
 -11 -13  -8 47.2177 124.532  14
  11  14   0 3892.14 207.537   7
  11  14  -1 2908.77 210.979   7
  11  14   1 5183.99 218.096   7
 -11 -14  -2 575.905 174.563  14
  11  14  -2 327.890 176.122  12
 -11 -14  -3 369.282 168.798  14
  11  14  -3 879.469 160.292   7
 -11 -14  -4 33.9497 140.762  14
  11  14  -4-84.0050 129.817   7
 -11 -14  -5-42.8374 137.372  14
  11  14  -5-509.627 159.953   7
  12   0   0 17502.6 795.093   1
  12   0   1-25.2776 138.232   1
  12   0  -1 17.3917 167.682   1
  12   0  -2 18101.6 841.729   1
  12   0   2 16238.3 754.574   1
  12   0  -3 22.5505 154.565   1
  12   0  -4 1336.48 282.321   1
 -12   0   5 119.193 205.783  13
 -12   0   5-38.5829 278.237  18
 -12   0  -5-13.3355 216.846  17
 -12   0   5-130.630 207.170  17
 -12   0   6 36744.6 1300.41  13
 -12   0   6 38010.6 1516.84  18
 -12   0  -6 37237.3 1365.24  17
 -12   0   7 28.8025 247.880  13
 -12   0   7 216.458 296.210  18
 -12   0   8 9176.50 701.232  13
 -12   0   8 8757.01 773.324  18
 -12   0   9 223.408 225.838  13
 -12   0   9 342.958 302.992  18
 -12   0  10 337.244 278.278  18
 -12   0  11-271.159 258.881  18
 -12   0  12 374.492 260.078  18
 -12   0  12 429.467 288.909  16
  12   0 -13-173.758 245.630   5
 -12   0  13 5.72786 238.031  18
 -12   0  13 370.820 259.266  16
  12   0 -14 394.400 223.861   5
 -12   0  14-30.3831 203.438  18
 -12   0  14 238.627 207.378  16
  12   0 -15-162.127 194.669   5
 -12   0  15-413.064 222.785  18
  12  -1   0 2753.32 327.506   1
  12   1   0 2571.33 322.673   1
  12   1   1 5540.14 461.842   1
  12  -1  -1 6237.44 501.296   1
  12  -1   1 6082.96 469.496   1
  12   1  -1 5943.49 484.771   1
  12   1   2 4793.55 429.879   1
  12  -1  -2 5239.13 462.347   1
  12   1  -2 4816.80 448.265   1
  12   1  -3 1359.97 280.359   1
 -12   1   3 1466.70 317.408   9
  12  -1  -3 1224.78 263.217   1
  12  -1  -4 7148.36 549.215   1
  12   1  -4 7484.29 566.886   1
 -12   1   4 7212.92 615.323   9
 -12   1   4 8418.94 694.497  18
 -12   1  -4 7541.40 607.102  17
 -12   1   5 480.047 255.876  13
 -12  -1   5 240.904 244.508  13
 -12   1   5-160.738 255.408   9
 -12   1   5 166.654 282.065  18
 -12  -1   5 891.553 371.690  18
 -12   1  -5 162.164 250.879  17
 -12  -1  -5 150.525 220.877  17
 -12  -1   5 487.527 286.909  17
 -12   1   6 7014.16 588.344  13
 -12  -1   6 7564.05 625.896  13
 -12   1   6 7333.29 702.300  18
 -12  -1   6 7236.89 680.461  18
 -12   1  -6 7338.43 649.615  17
 -12  -1   6 7090.09 628.358  17
 -12   1   7 552.547 275.240  13
 -12  -1   7 541.021 281.323  13
 -12   1   7 719.613 317.091  18
 -12  -1   7 661.265 324.260  18
 -12   1   8 1886.17 378.285  13
 -12  -1   8 2392.40 381.087  13
 -12   1   8 2115.10 431.182  18
 -12  -1   8 2152.96 441.344  18
 -12  -1   9 2501.03 428.028  13
 -12   1   9 2424.88 473.518  18
 -12  -1  10-315.909 268.592  13
 -12   1  10 64.3112 256.791  18
 -12   1  11 275.798 289.538  18
 -12   1  11 549.679 301.185  16
  12   1 -12 405.676 254.913   5
 -12   1  12 671.972 299.696  18
 -12   1  12 479.913 311.432  16
  12   1 -13 151.930 237.013   5
 -12   1  13-0.52450 220.959  18
 -12  -1  13 200.214 257.034  18
 -12   1  13 60.9313 231.914  16
  12  -1 -14-286.959 215.179   5
  12   1 -14-141.218 210.310   5
 -12   1  14-66.8509 210.718  18
 -12  -1  14 29.0968 196.357  18
 -12   1  14-388.661 245.406  16
 -12  -1  14-129.140 220.356  16
  12  -1 -15 31.1029 180.552   5
  12   1 -15-234.638 196.137   5
 -12   1  15 49.4564 183.046  18
 -12  -1  15 120.904 193.452  18
 -12  -1  15 55.6381 182.597  16
  12  -2   0 1352.82 262.297   1
  12   2   0 1345.96 262.223   1
  12   2   1 25818.5 998.619   1
  12  -2  -1 27238.0 1004.33   1
  12   2  -1 27014.5 1019.94   1
  12  -2  -2 641.647 209.137   1
  12   2  -2 514.656 211.183   1
  12   2   2 695.450 224.604   1
  12  -2  -3 3460.42 400.746   1
  12   2   3 3579.63 383.830   1
 -12   2   3 3187.92 429.016   9
  12   2  -3 3463.93 396.094   1
 -12  -2   4 350.379 208.093  13
  12   2  -4 243.896 174.908   1
  12  -2  -4 344.035 209.182   1
 -12   2   4 453.375 249.374   9
 -12   2   4 417.406 269.671  18
 -12  -2   4 354.886 269.203  18
 -12   2  -4 335.201 224.338  17
 -12  -2  -4 165.897 227.657  17
 -12  -2   4 449.128 266.948  17
 -12   2   4 339.116 246.916  16
 -12  -2   4 445.976 222.994  14
 -12   2   5 1195.60 308.242  13
 -12  -2   5 1145.19 293.305  13
 -12   2   5 1686.15 398.112  18
 -12  -2   5 1987.79 410.472  18
 -12   2  -5 1763.58 367.854  17
 -12  -2   5 1559.68 368.147  17
 -12   2   5 1937.43 424.146  16
 -12   2   6 628.781 269.764  13
 -12  -2   6 1373.36 341.034  13
 -12   2   6 1018.35 350.925  18
 -12  -2   6 1187.67 375.945  18
 -12   2  -6 1199.39 343.838  17
 -12  -2   6 1066.52 298.522  17
 -12   2   6 921.083 356.755  16
 -12  -2   7 2086.05 394.754  13
 -12   2   7 2715.01 470.381  18
 -12  -2   7 2889.40 482.037  18
 -12  -2   7 1888.00 376.946  17
 -12   2   7 2474.33 469.287  16
 -12  -2   8 2129.51 402.891  13
 -12   2   8 1742.02 414.777  18
 -12   2   8 2700.86 476.348  16
 -12  -2   9 5680.02 594.213  13
 -12   2   9 5252.96 632.419  18
 -12   2   9 5807.08 647.463  16
 -12  -2  10-33.7270 262.233  13
 -12   2  10-180.538 259.869  18
 -12   2  10 394.871 307.674  16
 -12  -2  11 1557.49 365.057  13
 -12   2  11 1177.32 368.235  18
  12  -2 -11 2006.03 340.963   4
 -12   2  11 1281.89 372.511  16
  12   2 -12-467.341 273.936   5
  12  -2 -12-188.497 228.932   4
 -12   2  12-65.7458 230.573  18
 -12   2  12-5.17031 248.633  16
  12   2 -13 1618.41 320.732   5
 -12   2  13 1438.42 333.186  18
 -12   2  13 1268.16 329.039  16
  12   2 -14-60.4415 206.316   5
 -12  -2  14-35.3665 196.882  18
 -12   2  14 340.836 237.097  16
 -12  -2  14 9.27603 234.565  16
  12  -2 -15 941.001 237.702   5
  12   2 -15 755.997 224.018   5
 -12  -2  15 467.333 228.921  18
 -12  -2  15 601.556 228.079  16
  12   3   0 144.229 159.322   1
  12   3  -1 11076.5 667.138   1
  12  -3  -1 12297.9 678.217   1
  12   3   1 10633.6 651.769   1
  12   3  -2 153.408 158.247   1
  12  -3  -2 120.489 166.211   1
 -12  -3  -3 2527.67 315.435  14
  12  -3  -3 2841.51 368.971   1
 -12   3   3 2794.48 415.298   9
 -12   3   3 2537.51 404.753  18
 -12   3  -3 2316.47 366.707  17
 -12  -3  -3 2561.53 359.967  17
 -12  -3   3 3283.97 437.418  17
  12   3  -3 2787.85 361.941   1
 -12  -3   3 2496.73 343.745  14
 -12   3   4 311.179 294.023  18
 -12  -3   4-46.2348 280.387  18
 -12   3  -4-300.314 263.346  17
 -12  -3   4-494.401 278.091  17
 -12   3   4-218.918 308.895  16
 -12  -3   4 99.8382 209.777  14
 -12  -3   5-327.129 298.617  13
 -12   3   5 5.08605 275.454  18
 -12  -3   5-2.62470 272.093  18
 -12   3  -5-31.9389 255.442  17
 -12  -3   5-164.355 276.696  17
 -12   3   5-31.6157 277.862  16
 -12  -3   5 64.4699 218.391  14
 -12  -3   6 4004.68 500.793  13
 -12   3   6 4337.71 567.676  18
 -12  -3   6 4025.47 532.344  18
 -12  -3   6 3577.97 479.843  17
 -12   3   6 3659.77 517.578  16
 -12  -3   7-127.452 271.745  13
 -12   3   7 347.543 281.176  18
 -12  -3   7 375.003 266.195  17
 -12   3   7 461.519 298.615  16
 -12  -3   8 119.636 246.657  13
 -12   3   8 52.2540 282.208  18
 -12  -3   8 140.680 273.813  17
 -12   3   8-65.3585 284.794  16
 -12  -3   9 7322.78 666.061  13
 -12   3   9 7289.63 694.022  18
 -12   3   9 6794.72 678.614  16
 -12  -3  10 650.805 306.740  13
 -12   3  10 1015.87 376.178  18
 -12   3  10 1062.08 365.562  16
 -12  -3  11 156.664 234.323  13
 -12   3  11 42.4408 250.009  18
  12  -3 -11 354.320 223.036   4
 -12   3  11 11.7129 274.578  16
 -12  -3  12 44.1413 207.268  13
  12  -3 -12 77.8221 224.895   4
 -12   3  12-86.1318 259.425  18
 -12   3  12-55.8066 230.653  16
  12   3 -13 1053.21 301.294   5
  12  -3 -13 1226.95 270.063   4
 -12   3  13 866.792 293.084  16
  12   3 -14 495.420 230.028   5
 -12   3  14 137.266 205.582  16
  12   3 -15 94.9476 186.594   5
 -12  -3  15 100.374 175.316  18
 -12  -3  15 211.374 205.368  16
 -12  -4   0 1516.53 277.472  14
  12   4   0 1298.95 275.118   1
 -12   4   0 1285.08 308.134  18
 -12   4   0 1248.70 307.445  17
 -12  -4   0 1528.01 324.205  17
  12   4  -1 6170.88 507.877   1
 -12   4   1 6744.05 591.401  18
 -12   4  -1 7289.07 606.782  17
 -12   4   1 6380.07 564.678  17
 -12  -4  -1 7183.40 600.338  17
 -12  -4   1 8325.45 662.340  17
 -12  -4   1 7395.28 571.011  14
 -12  -4  -1 7415.42 548.002  14
 -12  -4  -2 1605.44 289.278  14
  12  -4  -2 1795.93 299.294   1
 -12   4   2 1416.26 352.326  18
 -12   4  -2 1946.35 375.083  17
 -12  -4  -2 1580.34 330.641  17
 -12  -4   2 1957.12 392.536  17
 -12  -4   2 1828.68 327.454  14
 -12  -4  -3 141.478 205.554  14
 -12   4   3-74.8570 247.167  18
 -12   4  -3 112.303 272.088  17
 -12  -4  -3-78.4890 217.901  17
 -12  -4   3 382.740 283.845  17
 -12   4   3 112.724 276.355  16
 -12  -4   3-41.6202 219.391  14
 -12  -4  -4 1777.71 322.672  14
 -12   4   4 2271.53 426.157  18
 -12  -4   4 2102.66 399.965  17
 -12   4   4 2125.64 416.906  16
 -12  -4   4 2514.19 388.956  14
 -12   4   5 2350.26 430.237  18
 -12  -4   5 2638.67 442.158  18
 -12  -4   5 2292.49 420.640  17
 -12   4   5 2460.24 445.570  16
 -12  -4   5 2793.27 401.838  14
 -12  -4   6 7423.13 663.176  13
 -12   4   6 7494.75 706.989  18
 -12  -4   6 6569.63 677.116  18
 -12  -4   6 6770.76 643.723  17
 -12   4   6 7464.28 693.153  16
 -12  -4   7 1259.57 360.428  13
 -12   4   7 1564.82 386.160  18
 -12  -4   7 1126.15 328.470  17
 -12   4   7 1349.28 367.311  16
 -12  -4   8 940.273 342.272  13
 -12   4   8 1124.64 347.113  18
 -12  -4   8 712.434 296.294  17
 -12   4   8 1485.99 384.526  16
 -12  -4   9 993.648 333.091  13
 -12   4   9 1098.99 340.463  18
 -12  -4   9 676.629 303.237  17
 -12   4   9 1136.17 358.714  16
 -12  -4  10 148.958 249.276  13
  12  -4 -10 175.011 260.109   4
 -12   4  10-0.28694 253.636  16
 -12  -4  11 49.7091 227.517  13
  12  -4 -11 439.381 231.583   4
 -12   4  11 122.981 234.897  16
 -12  -4  12 171.223 212.664  13
  12  -4 -12 364.469 224.479   4
 -12   4  12-7.37053 232.577  16
  12  -4 -13 529.305 229.717   4
 -12   4  13 816.701 291.680  16
  12   4 -14 447.639 218.287   5
  12  -4 -14 412.669 168.558  11
 -12  -4  15 161.513 183.436  18
 -12  -5   0 1292.87 291.149  14
 -12   5   0 1492.01 331.131  17
 -12  -5   0 2058.39 399.699  17
 -12  -5   1 488.829 253.135  14
 -12  -5  -1 553.712 240.536  14
 -12   5   1 682.905 284.399  18
 -12   5  -1 12.2785 236.535  17
 -12   5   1 316.525 228.731  17
 -12  -5  -1 901.962 310.912  17
 -12  -5   1 666.064 324.734  17
 -12   5   2 8110.44 681.043  18
 -12   5  -2 8721.96 697.065  17
 -12  -5  -2 7244.65 632.563  17
 -12  -5   2 9220.31 737.960  17
 -12   5   2 8122.76 664.130  16
 -12  -5   2 9322.73 659.229  14
 -12  -5  -2 7992.75 594.493  14
 -12  -5  -3 1020.81 278.655  14
 -12   5   3 1158.25 340.721  18
 -12  -5   3 1154.11 352.901  17
 -12   5   3 1099.10 360.670  16
 -12  -5   3 922.179 274.868  14
 -12   5   4 3971.46 490.185  18
 -12  -5   4 4103.85 510.753  17
 -12   5   4 3905.42 530.153  16
 -12  -5   4 4121.19 463.643  14
 -12  -5  -4 4027.52 437.227  14
 -12  -5  -5-8.10182 198.034  14
 -12   5   5-82.9276 253.064  18
 -12   5   5 56.3973 268.267  16
 -12  -5   5 7.02274 222.108  14
 -12   5   6 7095.12 658.433  18
 -12   5   6 6765.38 653.893  16
 -12  -5   6 7244.02 582.613  14
 -12  -5  -6 6856.21 550.775  14
 -12  -5   7 397.411 282.099  13
 -12   5   7 496.950 310.641  18
 -12   5   7 557.656 308.359  16
 -12  -5   8 261.506 250.034  13
 -12   5   8 41.6354 252.642  16
 -12  -5   9 336.739 285.464  13
  12  -5  -9 51.1751 244.254   4
 -12   5   9-286.117 283.467  16
 -12  -5  10 455.638 262.832  13
  12  -5 -10 802.795 272.633   4
 -12  -5  10 529.215 265.998  17
 -12   5  10 706.921 329.195  16
 -12  -5  11-54.7934 226.702  13
  12  -5 -11-80.9190 220.939   4
 -12   5  11-25.8066 230.666  16
 -12  -5  12 694.643 265.707  13
  12  -5 -12 514.262 238.086   4
 -12   5  12 355.006 259.374  16
 -12  -5  13 406.702 228.245  13
  12  -5 -13-2.47968 191.013   4
  12   5 -14 160.527 206.302   5
  12  -5 -14 142.333 170.556   4
  12  -5 -14 63.8317 146.464  11
 -12  -6   0 1715.00 312.157  14
 -12  -6   0 1863.63 392.578  17
 -12  -6  -1 7136.93 627.899  17
 -12  -6   1 8082.75 697.413  17
 -12  -6   1 7794.42 620.523  14
 -12  -6  -1 7629.62 604.473  14
 -12  -6   2 1821.03 351.579  14
 -12  -6  -2 1745.68 337.764  14
 -12  -6   2 1790.76 396.064  17
 -12  -6  -3 1962.97 338.466  14
 -12   6   3 1566.99 371.227  18
 -12  -6   3 1666.25 395.231  17
 -12   6   3 1798.29 409.163  16
 -12  -6   3 1329.41 328.128  14
 -12  -6  -4-79.4225 196.867  14
 -12   6   4 340.075 285.819  18
 -12   6   4 73.1499 277.144  16
 -12  -6   4 3.71461 213.931  14
 -12  -6  -5 823.590 256.668  14
 -12   6   5 532.038 267.377  18
 -12   6   5 550.690 311.062  16
 -12  -6   5 799.661 282.107  14
 -12   6   6 4007.89 537.909  16
 -12  -6   6 4449.49 482.502  14
 -12  -6  -6 4356.13 463.241  14
 -12  -6  -7 620.149 248.334  14
  12  -6  -7 346.353 261.909   4
 -12   6   7 613.076 317.530  16
 -12  -6   8 4638.54 544.864  13
  12  -6  -8 3914.37 453.209   4
 -12   6   8 3363.20 498.101  16
 -12  -6   9 295.073 276.106  13
  12  -6  -9 0.63201 222.755   4
 -12   6   9-60.9058 253.168  16
 -12  -6  10 160.104 235.803  13
  12  -6 -10 40.8229 218.852   4
 -12   6  10 213.637 282.971  16
 -12  -6  11 51.4600 232.947  13
  12  -6 -11 241.799 213.484   4
 -12  -6  11 341.535 221.468  17
 -12  -6  12 106.580 196.197  13
  12  -6 -12 28.9848 204.919   4
  12  -6 -13 1638.63 239.170  11
  12  -6 -13 256.390 189.883   4
  12   6 -14 653.739 205.322   5
  12  -6 -14 350.517 147.729  11
 -12  -6  14 148.296 191.623  18
 -12  -7   0 1993.02 357.345  14
 -12  -7   0 1776.39 382.491  17
 -12  -7   1 6486.49 626.404  17
 -12  -7   1 6791.65 576.616  14
 -12  -7  -1 6212.54 559.716  14
 -12  -7   2 1485.08 331.023  14
 -12  -7  -2 1573.14 333.425  14
 -12  -7   2 1641.56 377.976  17
 -12  -7   3 4205.71 536.332  17
 -12  -7   3 4009.14 449.349  14
 -12  -7  -3 3612.90 433.349  14
 -12  -7  -4 631.571 271.556  14
 -12  -7   4 528.240 262.040  14
 -12  -7  -5 251.985 215.141  14
  12  -7  -5 241.473 237.765   4
 -12  -7   5 2.48821 217.241  14
 -12  -7  -6 1180.07 304.841  14
  12  -7  -6 852.781 266.134   4
 -12  -7   6 1383.04 302.647  14
 -12  -7  -7 1000.83 278.749  14
  12  -7  -7 1728.93 332.583   4
 -12  -7  -8-70.7065 191.971  14
 -12  -7   8-196.304 258.088  13
  12  -7  -8-4.78412 228.718   4
 -12  -7   9 3156.60 447.025  13
  12  -7  -9 2818.76 384.172   4
 -12  -7  10 245.841 232.982  13
  12  -7 -10 159.969 217.720   4
 -12  -7  11-21.5710 201.069  13
  12  -7 -11 139.813 200.916   4
 -12  -7  11 233.876 208.099  17
 -12  -7  12 491.315 218.342  13
  12  -7 -12 558.993 211.641   4
  12  -7 -13 639.168 209.010   4
 -12  -7  13 367.854 202.942  18
 -12  -8   0 169.465 234.761  14
 -12  -8   1 8674.99 721.972  17
 -12  -8   1 8083.94 619.226  14
 -12  -8  -1 7695.06 620.101  14
 -12  -8   2 57.0022 207.649  14
 -12  -8  -2 254.339 219.857  14
 -12  -8   2 88.8868 257.388  17
 -12  -8  -3 349.418 239.553  14
 -12  -8   3 51.9710 250.457  17
 -12  -8   3 29.6890 212.580  14
 -12  -8  -4 463.270 245.342  14
 -12  -8   4 310.287 242.715  14
 -12  -8  -5 67.1230 198.389  14
  12  -8  -5 249.257 233.116   4
 -12  -8   5 333.072 214.279  14
 -12  -8  -6 476.559 227.001  14
  12  -8  -6-2.63670 207.932   4
 -12  -8  -7 2524.76 366.473  14
  12  -8  -7 2592.00 369.099   4
 -12  -8  -8 625.939 229.017  14
  12  -8  -8 285.840 225.936   4
 -12  -8  -9 2257.60 337.928  14
 -12  -8   9 2686.63 418.454  13
  12  -8  -9 2485.09 358.048   4
 -12  -8  10 511.750 256.859  13
  12  -8 -10 470.609 235.683   4
 -12  -8  11 527.735 226.910  13
  12  -8 -11 180.614 197.608   4
  12  -8 -12 89.3033 174.417   4
 -12  -8  12 329.303 194.826  17
 -12  -9   0 6405.11 557.067  14
 -12  -9   1 668.874 256.056  14
 -12  -9  -1 406.268 252.922  14
 -12  -9   1 710.517 292.751  17
 -12  -9   2 504.068 233.459  14
 -12  -9  -2 622.930 257.615  14
 -12  -9   2 22.7244 238.085  17
 -12  -9  -3 234.119 226.279  14
 -12  -9   3 449.670 289.307  17
 -12  -9   3-54.8464 197.680  14
 -12  -9  -4 2343.32 376.449  14
 -12  -9   4 2418.00 339.018  14
 -12  -9  -5-107.999 197.472  14
  12   9  -5 4608.95 208.470   7
 -12  -9  -6 2572.35 361.253  14
  12  -9  -6 2829.73 381.641   4
 -12  -9  -7 206.544 218.485  14
  12  -9  -7 390.291 214.967   4
 -12  -9  -8 527.576 216.580  14
  12  -9  -8 1037.42 276.605   4
 -12  -9  -9 1866.66 304.849  14
 -12  -9   9 2556.71 376.875  13
  12  -9  -9 2058.30 318.285   4
 -12  -9 -10 374.510 181.119  14
 -12  -9  10 604.507 240.918  13
  12  -9 -10 558.283 229.751   4
 -12  -9  11 248.629 187.569  13
  12  -9 -11 74.5534 162.583   4
 -12  -9  11 268.176 204.948  17
  12  -9 -12 657.840 163.754  11
 -12 -10   0 3246.07 394.060  14
 -12 -10   1 960.161 252.545  14
 -12 -10  -1 624.967 228.748  14
 -12 -10   2 2717.87 440.241  17
 -12 -10   2 2450.41 343.946  14
 -12 -10  -2 2553.54 391.119  14
 -12 -10  -3 1878.63 338.412  14
 -12 -10   3 1732.33 373.258  17
 -12 -10   3 1590.52 289.410  14
 -12 -10  -4 85.1446 193.412  14
  12  10  -4 5502.95 219.142   7
 -12 -10  -5 156.973 191.994  14
  12  10  -5 3154.32 212.152   7
  12  10  -6 2451.29 214.906   7
 -12 -10  -6 2541.54 357.705  14
 -12 -10  -7 1352.39 289.996  14
  12 -10  -7 1923.71 317.772   4
 -12 -10  -8 1563.64 293.379  14
  12 -10  -8 2062.60 313.640   4
 -12 -10  -9 101.905 162.234  14
 -12 -10   9 220.237 180.641  13
  12 -10  -9-62.3662 175.555   4
 -12 -10 -10-3.15393 153.072  14
 -12 -10  10-151.714 183.231  13
 -12 -11   0 337.474 198.329  14
 -12 -11   1 212.447 183.064  14
 -12 -11  -1 60.3398 172.039  14
 -12 -11  -2 1254.49 277.904  14
 -12 -11   2 965.667 231.860  14
 -12 -11  -3 2299.98 332.569  14
 -12 -11   3 1979.04 350.183  17
 -12 -11  -4 412.190 202.701  14
 -12 -11   4 507.414 253.205  17
 -12 -11  -5-197.926 194.332  14
 -12 -11   5 41.5949 215.906  17
 -12 -11  -6 610.837 206.063  14
  12  11  -6 368.102 141.258   7
 -12 -11  -7 887.703 223.143  14
  12  11  -7 458.789 144.732   7
 -12 -11  -8 226.332 154.908  14
 -12 -11   8 129.692 162.151  13
 -12 -11  -9 312.386 163.558  14
 -12 -11   9 205.610 165.617  13
 -12 -11   9 295.200 191.629  17
 -12 -12   0 1496.38 260.231  14
 -12 -12   1 1026.32 233.366  14
 -12 -12  -1 1258.85 248.320  14
 -12 -12  -2 688.220 215.840  14
  12  12  -2 6479.14 238.012   7
 -12 -12  -3 51.4833 153.680  14
  12  12  -3 4181.38 230.278   7
 -12 -12  -4 215.444 167.446  14
 -12 -12   4-49.7750 216.686  17
 -12 -12  -5-66.3337 166.957  14
 -12 -12   5 116.182 201.419  17
 -12 -12  -6 98.6319 139.937  14
  12  12  -6-288.959 142.476   7
 -12 -12   6-188.872 183.220  17
 -12 -12  -7-23.6526 151.897  14
 -12 -12   7 35.6033 170.919  17
 -12 -12  -8 750.277 187.914  14
 -12 -12   8 908.405 213.299  13
 -12 -12   8 767.235 208.749  17
  12  13   0 6725.76 226.137   7
 -12 -13  -1 565.641 186.653  14
  12  13  -1 4652.53 222.535   7
 -12 -13  -2-19.8214 134.478  14
  12  13  -2 2854.90 201.930   7
 -12 -13  -3 461.976 183.702  14
  12  13  -3 1791.61 190.174   7
 -12 -13  -4 32.1317 134.946  14
  12  13  -4 375.852 140.450   7
 -12 -13  -5-226.282 152.104  14
  12  13  -5-38.7845 120.473   7
  12  14   0 2364.97 171.003   7
  12  14  -1 1650.00 158.222   7
 -13   0   0-55.3560 267.800  18
 -13   0   0 170.109 228.164  17
 -13   0  -1 284.327 279.844  18
 -13   0   1-472.102 288.107  18
 -13   0  -1-241.339 259.625  17
 -13   0   1 51.4229 240.344  17
 -13   0   1-274.027 217.262  14
 -13   0   2 823.414 356.151  18
 -13   0  -2 841.398 298.047  17
 -13   0   2 1052.47 320.151  17
 -13   0   3 99.7980 263.784  18
 -13   0  -3-64.1734 243.368  17
 -13   0   3 96.2673 241.565  17
 -13   0   4 3646.17 444.809  13
 -13   0   4 4061.96 551.445  18
 -13   0  -4 3589.70 476.563  17
 -13   0   4 3665.87 490.408  17
 -13   0   5 16.5667 248.145  13
 -13   0   5-195.640 301.262  18
 -13   0  -5 65.1649 271.357  17
 -13   0   5-71.6590 226.196  17
 -13   0   6 2783.68 414.610  13
 -13   0   6 3007.59 511.791  18
 -13   0  -6 2793.70 441.787  17
 -13   0   7-122.489 241.541  13
 -13   0   7 103.824 272.517  18
 -13   0   8 206.534 247.835  13
 -13   0   8 221.989 284.770  18
 -13   0   9 232.991 308.465  18
 -13   0  10 1283.21 354.806  18
 -13   0  11 202.916 231.584  18
 -13   0  11 152.489 251.972  16
 -13   0  12 824.284 292.651  18
 -13   0  12 198.752 240.655  16
 -13   0  13-56.9521 198.783  18
 -13   0  13-285.379 239.048  16
 -13   0  14 60.7450 181.553  18
 -13   0  14 225.717 187.449  16
 -13   1   0-139.723 259.327  18
 -13  -1   0-48.4752 249.930  18
 -13   1   0 142.312 257.051  17
 -13  -1   0 146.215 238.575  17
 -13  -1   0-223.953 231.985  14
 -13   1  -1 273.883 278.549  18
 -13   1   1 392.579 282.285  18
 -13  -1   1 470.179 286.221  18
 -13   1  -1 485.463 267.574  17
 -13   1   1 369.345 236.244  17
 -13  -1  -1 530.429 276.517  17
 -13  -1   1 814.338 317.531  17
 -13  -1   1 790.603 274.166  14
 -13   1   2 28219.1 1220.88  18
 -13  -1   2 28047.9 1208.65  18
 -13   1  -2 27512.3 1169.66  17
 -13  -1  -2 28637.5 1169.90  17
 -13   1   2 27378.2 1155.25  17
 -13  -1   2 28660.0 1198.23  17
 -13  -1   2 28635.4 1097.70  14
 -13   1   3 1664.71 374.303  18
 -13  -1   3 2031.80 418.566  18
 -13   1  -3 1641.24 357.974  17
 -13  -1  -3 1716.15 356.496  17
 -13   1   3 1764.46 370.526  17
 -13  -1   3 1951.07 386.940  17
 -13  -1   4 1803.38 357.918  13
 -13   1   4 1954.72 407.591  18
 -13  -1   4 2141.47 452.601  18
 -13   1  -4 1974.62 381.405  17
 -13  -1  -4 1629.68 365.821  17
 -13   1   4 2055.24 388.411  17
 -13  -1   4 1766.53 390.358  17
 -13   1   4 2402.04 445.146  16
 -13   1   5 10364.4 704.443  13
 -13  -1   5 10692.4 733.021  13
 -13   1   5 10363.7 823.185  18
 -13  -1   5 11240.0 863.994  18
 -13   1  -5 10517.2 776.455  17
 -13  -1  -5 10133.7 729.282  17
 -13  -1   5 10809.1 756.091  17
 -13   1   5 11227.5 818.399  16
 -13   1   6-227.609 298.071  13
 -13  -1   6-177.055 258.447  13
 -13   1   6 32.1650 283.416  18
 -13  -1   6 59.5736 295.552  18
 -13   1  -6-98.0117 239.704  17
 -13  -1  -6 59.3211 249.477  17
 -13  -1   6 297.591 276.205  17
 -13   1   6-157.242 288.559  16
 -13   1   7 190.948 233.854  13
 -13  -1   7 537.860 319.541  13
 -13   1   7 134.817 284.126  18
 -13  -1   7-154.991 337.127  18
 -13   1   7-70.6029 279.190  16
 -13  -1   8 1169.32 342.155  13
 -13   1   8 1285.89 388.580  18
 -13  -1   8 1199.07 380.511  18
 -13   1   8 1143.62 391.579  16
 -13  -1   9 1368.72 343.749  13
 -13   1   9 1377.96 383.350  18
 -13  -1   9 1088.93 343.869  18
 -13   1   9 1323.91 387.537  16
 -13  -1  10 989.305 308.696  13
 -13   1  10 838.722 340.554  18
 -13  -1  10 344.973 280.376  18
 -13   1  10 874.690 321.731  16
 -13   1  11 168.043 255.951  18
 -13  -1  11 39.1479 248.241  18
  13  -1 -11 79.2280 211.145   4
 -13   1  11-286.282 278.678  16
 -13   1  12 1540.68 346.309  18
 -13  -1  12 1608.32 353.335  18
 -13   1  12 1533.05 357.662  16
 -13  -1  12 1646.72 370.306  16
 -13   1  13 511.136 236.326  18
 -13  -1  13 504.990 242.833  18
 -13   1  13 516.120 246.143  16
 -13  -1  13 710.200 267.112  16
 -13   1  14-139.043 197.085  18
 -13  -1  14-260.017 200.111  18
 -13   1  14-30.2481 188.247  16
 -13  -1  14 156.972 189.866  16
 -13   2   0 211.069 261.282  18
 -13   2   0 264.056 259.419  17
 -13  -2   0-138.959 240.852  17
 -13  -2   0 44.6602 204.831  14
 -13   2   1 154.909 285.999  18
 -13   2  -1 55.3093 235.349  17
 -13   2   1 89.4400 257.023  17
 -13  -2  -1 43.5234 234.625  17
 -13  -2   1 370.239 276.881  17
 -13  -2   1 51.9015 205.336  14
 -13  -2  -1 114.327 193.039  14
 -13   2   2 859.056 339.599  18
 -13  -2   2 821.889 334.514  18
 -13   2  -2 799.068 315.968  17
 -13   2   2 1400.41 351.299  17
 -13  -2  -2 663.790 295.339  17
 -13  -2   2 967.045 320.915  17
 -13  -2   2 1286.82 324.728  14
 -13  -2   3 2699.53 405.897  13
 -13   2   3 2442.40 435.201  18
 -13  -2   3 3064.78 473.573  18
 -13   2  -3 2968.50 444.706  17
 -13   2   3 2635.47 407.216  17
 -13  -2  -3 2746.11 413.338  17
 -13  -2   3 2416.53 444.908  17
 -13  -2   3 2911.50 404.446  14
 -13  -2   4-90.9538 263.509  13
 -13   2   4-326.486 302.504  18
 -13  -2   4 374.391 312.873  18
 -13   2  -4 483.886 297.528  17
 -13  -2  -4-78.2891 253.574  17
 -13  -2   4 199.560 300.903  17
 -13   2   4 192.181 280.817  16
 -13  -2   5 1118.75 319.402  13
 -13   2   5 1767.77 416.913  18
 -13  -2   5 1445.56 367.498  18
 -13   2  -5 1676.40 377.710  17
 -13  -2  -5 1504.87 350.740  17
 -13  -2   5 1721.00 372.344  17
 -13   2   5 1388.09 372.366  16
 -13  -2   6 442.262 275.922  13
 -13   2   6 706.290 347.350  18
 -13  -2   6 788.122 357.344  18
 -13  -2   6 633.165 276.661  17
 -13   2   6 697.996 349.627  16
 -13  -2   7 690.933 281.383  13
 -13   2   7 976.457 356.911  18
 -13  -2   7 856.345 335.300  18
 -13  -2   7 1130.83 355.216  17
 -13   2   7 1288.89 378.954  16
 -13  -2   8 239.051 243.151  13
 -13   2   8 499.341 286.482  18
 -13  -2   8 668.799 321.168  18
 -13   2   8 684.911 352.781  16
 -13  -2   9 266.019 258.058  13
 -13   2   9 46.5679 250.056  18
 -13  -2   9-120.916 265.156  18
 -13   2   9 660.192 328.948  16
 -13  -2  10 138.141 227.014  13
 -13   2  10-57.9764 250.750  18
 -13  -2  10 139.997 237.421  18
 -13   2  10 172.407 256.730  16
 -13   2  11 825.230 314.171  18
 -13  -2  11 1248.17 353.440  18
  13  -2 -11 1147.94 266.005   4
 -13   2  11 1034.72 323.607  16
  13  -2 -12 531.970 223.288   4
 -13   2  12 699.018 260.417  18
 -13  -2  12 694.176 284.437  18
 -13   2  12 710.394 272.365  16
 -13   2  13 213.604 211.279  18
 -13  -2  13-201.590 204.533  18
 -13   2  13 109.049 212.112  16
 -13  -2  13-142.786 227.958  16
  13   2 -14 31.2788 177.580   5
 -13  -2  14-17.4133 188.066  18
 -13   2  14 172.420 202.110  16
 -13  -2  14 70.8489 193.985  16
 -13   3   0 27.5064 252.661  18
 -13   3   0-118.761 242.795  17
 -13  -3   0-397.720 270.220  17
 -13  -3   0-15.4850 218.348  14
 -13  -3  -1-132.180 222.417  14
 -13   3   1 39.8447 263.999  18
 -13   3  -1 384.213 268.341  17
 -13   3   1 78.8249 232.269  17
 -13  -3  -1 271.736 263.974  17
 -13  -3   1-46.2932 270.149  17
 -13  -3   1 130.092 232.020  14
 -13  -3  -2 71.4017 198.059  14
 -13   3   2-240.917 269.902  18
 -13   3  -2 97.2104 254.098  17
 -13   3   2 150.988 251.067  17
 -13  -3  -2 161.096 241.832  17
 -13  -3   2 353.871 300.675  17
 -13  -3   2 394.313 242.521  14
 -13  -3   3 6719.63 596.446  13
 -13   3   3 6773.61 652.150  18
 -13   3  -3 6355.40 620.504  17
 -13  -3  -3 6340.24 595.792  17
 -13  -3   3 6841.98 640.030  17
 -13   3   3 6992.28 632.163  16
 -13  -3   3 6626.42 569.543  14
 -13  -3  -3 5930.08 493.607  14
 -13  -3   4 222.602 269.077  13
 -13   3   4 364.390 288.469  18
 -13  -3   4 0.93670 265.082  18
 -13   3  -4 484.959 309.257  17
 -13  -3  -4 138.640 238.395  17
 -13  -3   4 7.33478 250.668  17
 -13   3   4 513.717 315.397  16
 -13  -3   4 34.1952 223.327  14
 -13  -3   5 18179.7 956.982  13
 -13   3   5 18204.2 1020.58  18
 -13  -3   5 18818.3 1073.21  18
 -13  -3   5 18094.3 996.038  17
 -13   3   5 19094.3 1024.83  16
 -13  -3   6 559.494 279.837  13
 -13   3   6 643.088 304.233  18
 -13  -3   6 335.323 313.551  18
 -13  -3   6 477.904 273.990  17
 -13   3   6 9.01578 282.695  16
 -13  -3   7 82.1094 243.281  13
 -13   3   7-262.852 280.551  18
 -13  -3   7-14.2466 279.534  18
 -13  -3   7 1.64266 243.657  17
 -13   3   7-201.779 298.978  16
 -13  -3   8 2587.85 432.836  13
 -13   3   8 2493.39 449.627  18
 -13  -3   8 2258.13 454.001  18
 -13  -3   8 2368.48 397.509  17
 -13   3   8 3422.03 496.542  16
 -13  -3   9 772.761 291.500  13
 -13   3   9 794.669 356.675  18
 -13  -3   9 537.881 290.326  18
 -13   3   9 474.547 300.513  16
 -13  -3  10 20.2195 223.725  13
 -13   3  10-135.909 272.631  18
 -13  -3  10 31.5563 239.772  18
  13  -3 -10 374.703 242.726   4
 -13   3  10-114.575 245.797  16
 -13  -3  11-229.730 232.811  13
 -13   3  11-155.648 223.069  18
  13  -3 -11 219.041 203.583   4
 -13  -3  11 14.4623 241.407  18
 -13   3  11 30.0058 229.030  16
  13  -3 -12 1502.28 284.862   4
 -13   3  12 971.755 293.136  18
 -13  -3  12 1160.81 307.930  18
 -13   3  12 1243.46 290.580  16
  13   3 -13 1541.04 270.663   5
  13  -3 -13 1532.90 265.056   4
 -13  -3  13 1464.37 320.885  18
 -13   3  13 1209.21 299.302  16
 -13  -3  14-136.152 168.313  18
 -13  -3  14-107.706 202.305  16
 -13  -4   0-110.588 227.467  14
 -13   4   0-246.217 270.275  17
 -13  -4   0-138.662 248.425  17
 -13  -4  -1 17.4810 203.715  14
 -13   4   1 32.8523 271.276  18
 -13   4  -1-60.9716 246.015  17
 -13   4   1-158.460 259.211  17
 -13  -4  -1-291.434 261.525  17
 -13  -4   1-131.356 266.649  17
 -13  -4   1 228.244 229.106  14
 -13  -4  -2 83.9195 200.779  14
 -13   4   2 396.356 282.203  18
 -13   4  -2 264.827 265.210  17
 -13   4   2-15.3039 229.790  17
 -13  -4  -2 4.91187 235.712  17
 -13  -4   2-20.6470 266.508  17
 -13  -4   2-5.61594 238.847  14
 -13  -4  -3 411.795 244.123  14
 -13   4   3 461.544 287.485  18
 -13   4  -3 475.612 303.709  17
 -13  -4  -3 196.863 235.955  17
 -13  -4   3 415.191 294.480  17
 -13   4   3 164.527 258.670  16
 -13  -4   3 198.860 211.971  14
 -13  -4  -4 1052.30 274.717  14
 -13  -4   4 1015.28 312.851  13
 -13   4   4 1492.99 373.081  18
 -13  -4   4 1134.95 356.426  17
 -13   4   4 1139.73 357.802  16
 -13  -4   4 1465.80 336.411  14
 -13  -4   5 381.437 284.949  13
 -13   4   5 503.605 290.461  18
 -13  -4   5 510.135 292.894  17
 -13   4   5 572.289 327.561  16
 -13  -4   6-35.3148 252.015  13
 -13   4   6-0.75885 254.838  18
 -13  -4   6 254.232 264.874  18
 -13  -4   6 180.461 242.592  17
 -13   4   6 268.166 305.918  16
 -13  -4   7 205.208 258.874  13
 -13   4   7-120.119 270.895  18
 -13  -4   7-20.8396 312.810  18
 -13  -4   7-185.160 260.973  17
 -13   4   7 3.57943 265.759  16
 -13  -4   8 125.337 252.401  13
 -13   4   8 27.1949 250.472  18
 -13  -4   8 189.966 262.969  18
 -13  -4   8 212.768 230.219  17
 -13   4   8-19.8898 275.869  16
 -13  -4   9 806.830 314.954  13
 -13   4   9 55.2357 236.272  18
 -13  -4   9 525.239 296.331  18
  13  -4  -9 53.8074 222.566   4
 -13  -4   9 419.422 265.806  17
 -13   4   9 607.896 321.140  16
 -13  -4  10 339.515 246.878  13
 -13   4  10 354.496 233.411  18
 -13  -4  10 294.721 264.060  18
  13  -4 -10 675.657 256.185   4
 -13   4  10 559.512 291.475  16
 -13  -4  11-8.65808 206.725  13
  13  -4 -11 42.4530 197.072   4
 -13  -4  11 102.739 236.969  18
 -13   4  11 276.573 225.592  16
 -13  -4  12 229.436 212.723  13
  13  -4 -12 112.071 182.581   4
 -13  -4  12 282.554 205.611  18
 -13   4  12 142.034 232.945  16
  13   4 -13 103.197 192.815   5
  13  -4 -13 700.172 189.842  11
  13  -4 -13 148.615 178.849   4
 -13  -4  13-105.601 188.678  18
 -13   4  13 143.838 213.803  16
 -13  -5   0 44.0493 239.825  14
 -13   5   0 38.1651 253.150  17
 -13  -5   0-27.4894 269.345  17
 -13  -5  -1 119.675 202.773  14
 -13   5  -1 132.493 274.653  17
 -13   5   1 44.9431 255.271  17
 -13  -5  -1 508.053 288.532  17
 -13  -5   1 142.510 288.635  17
 -13  -5   1-1.84657 217.857  14
 -13   5   2 13497.1 868.805  18
 -13  -5  -2 14736.4 844.287  17
 -13  -5   2 15686.3 943.355  17
 -13  -5   2 16141.9 863.551  14
 -13  -5  -2 14718.2 794.492  14
 -13  -5  -3 610.611 237.347  14
 -13   5   3 789.851 319.738  18
 -13  -5   3 776.468 320.100  17
 -13   5   3 238.202 289.771  16
 -13  -5   3 783.088 286.962  14
 -13  -5  -4-369.465 229.987  14
 -13   5   4 129.123 247.310  18
 -13  -5   4 15.8342 278.299  17
 -13   5   4 7.96146 295.271  16
 -13  -5   4-118.818 241.943  14
 -13  -5  -5 93.4255 188.247  14
 -13  -5   5-214.215 267.338  13
 -13   5   5 227.422 248.113  18
 -13  -5   5 115.942 262.103  17
 -13   5   5 83.8198 283.041  16
 -13  -5   5 44.2117 213.119  14
 -13  -5   6 1990.21 403.067  13
 -13   5   6 2026.04 396.856  18
 -13  -5   6 1426.66 349.323  17
 -13   5   6 2485.01 444.903  16
 -13  -5   7 980.174 341.717  13
 -13   5   7 667.349 309.273  18
 -13  -5   7 787.798 318.894  18
 -13  -5   7 339.314 251.106  17
 -13   5   7 962.511 340.286  16
 -13  -5   8 2735.26 442.666  13
 -13   5   8 2530.11 424.328  18
 -13  -5   8 2328.01 441.678  18
  13  -5  -8 2732.39 383.193   4
 -13  -5   8 2176.15 395.500  17
 -13   5   8 2432.09 429.819  16
 -13  -5   9 311.511 260.177  13
 -13  -5   9-63.2135 240.959  18
  13  -5  -9-85.1831 208.623   4
 -13  -5   9-35.6272 207.947  17
 -13   5   9 149.922 277.849  16
 -13  -5  10 3010.91 426.541  13
  13  -5 -10 3403.99 414.793   4
 -13  -5  10 3254.52 460.335  18
 -13  -5  10 2894.67 399.358  17
 -13   5  10 3364.75 466.063  16
 -13  -5  11 330.993 227.190  13
  13  -5 -11 464.279 237.503   4
 -13  -5  11 693.748 278.588  18
 -13   5  11 560.311 274.228  16
 -13  -5  12 3725.54 416.375  13
  13  -5 -12 4381.71 403.400   4
 -13  -5  12 3487.76 433.290  18
  13   5 -13 219.440 183.366   5
  13  -5 -13-41.8576 168.839   4
 -13  -5  13 46.8433 187.970  18
 -13  -6   0-31.6959 213.442  14
 -13  -6   0 62.0104 242.783  17
 -13  -6   1 359.572 251.953  14
 -13  -6  -1-203.460 218.453  14
 -13  -6  -1-7.64121 244.374  17
 -13  -6   1 225.592 271.508  17
 -13  -6  -2 441.644 235.874  14
 -13  -6   2 547.070 305.955  17
 -13  -6   2 1342.18 314.596  14
 -13  -6  -3-61.2635 199.957  14
 -13  -6   3 178.213 277.078  17
 -13  -6   3 215.525 218.382  14
 -13  -6  -4 1288.83 300.923  14
 -13   6   4 762.937 295.057  18
 -13  -6   4 1029.17 336.980  17
 -13  -6   4 1280.73 311.927  14
 -13  -6  -5-40.2834 183.161  14
 -13   6   5 194.162 270.363  18
 -13  -6   5-106.162 238.858  17
 -13  -6   5-117.486 240.812  14
 -13  -6  -6 19.0445 194.749  14
 -13  -6   6 217.666 288.891  13
 -13   6   6 545.396 284.455  18
 -13  -6   6 29.1709 239.271  17
 -13   6   6 156.957 288.076  16
 -13  -6   7 851.894 329.736  13
  13  -6  -7 289.461 223.250   4
 -13  -6   7 419.080 261.390  17
 -13   6   7 562.732 326.561  16
 -13  -6   8 180.158 251.853  13
  13  -6  -8 242.020 216.688   4
 -13  -6   8 81.7639 214.846  17
 -13   6   8 128.715 249.935  16
 -13  -6   9 394.864 273.148  13
  13  -6  -9 282.257 226.578   4
 -13  -6   9 45.7147 206.401  17
 -13  -6  10-283.983 242.971  13
  13  -6 -10 64.7570 212.762   4
 -13  -6  10 215.734 242.746  18
 -13  -6  10-32.2856 197.713  17
 -13  -6  11-354.402 229.264  13
  13  -6 -11-292.973 206.928   4
 -13  -6  11-208.175 223.578  18
 -13  -6  12 244.860 173.165  13
  13  -6 -12 143.909 183.077   4
 -13  -6  12-8.86330 190.841  18
 -13  -7   0-85.0691 214.419  14
 -13  -7   0-242.127 256.950  17
 -13  -7   1 924.583 291.780  14
 -13  -7  -1 639.403 256.337  14
 -13  -7   1 476.527 306.398  17
 -13  -7  -2-244.086 213.985  14
 -13  -7   2-320.201 279.932  17
 -13  -7   2 83.2167 250.526  14
 -13  -7  -3 478.148 248.876  14
 -13  -7   3 346.187 283.226  17
 -13  -7   3 540.120 259.751  14
  13  -7  -4 2406.97 360.696   4
 -13  -7   4 2417.88 430.730  17
 -13  -7  -4 2707.30 384.981  14
 -13  -7   4 2728.46 385.097  14
  13  -7  -5 7465.64 550.399   4
 -13  -7   5 6640.38 629.716  17
 -13  -7   5 7033.14 559.156  14
 -13  -7  -5 6542.80 529.648  14
  13  -7  -6 4767.59 458.032   4
 -13  -7   6 4537.72 540.406  17
 -13  -7  -6 3949.15 424.164  14
 -13  -7  -7 609.904 241.914  14
 -13  -7   7 1064.18 311.052  13
  13  -7  -7 450.835 216.061   4
 -13  -7   7 665.062 286.635  17
 -13  -7   8 366.756 244.674  13
  13  -7  -8 456.523 227.173   4
 -13  -7   8 407.589 263.215  17
 -13  -7   9 1809.64 355.095  13
  13  -7  -9 1103.54 280.002   4
 -13  -7   9 1718.01 336.862  17
 -13  -7  10 1274.53 293.784  13
  13  -7 -10 1268.23 270.526   4
 -13  -7  10 1215.90 289.730  17
  13  -7 -11 147.345 191.392   4
 -13  -7  11 207.255 196.511  17
 -13  -7  12 287.013 175.966  13
  13  -7 -12 766.563 216.289   4
 -13  -8   0-24.5412 199.313  14
 -13  -8   0 171.986 227.767  17
 -13  -8   1 388.253 240.993  14
 -13  -8  -1 151.621 197.249  14
 -13  -8   1 775.286 315.980  17
 -13  -8  -2 796.814 267.728  14
 -13  -8   2 564.664 322.052  17
 -13  -8   2 1158.79 292.549  14
 -13  -8  -3 773.413 254.266  14
 -13  -8   3 1031.86 326.808  17
 -13  -8   3 813.162 261.418  14
 -13  -8  -4-149.365 193.484  14
 -13  -8   4 147.832 265.468  17
 -13  -8   4-83.2040 192.522  14
 -13  -8  -5 964.195 257.547  14
  13  -8  -5 950.326 260.217   4
 -13  -8   5 1002.97 313.904  17
 -13  -8   5 921.508 266.678  14
 -13  -8  -6-46.3668 197.484  14
  13  -8  -6 104.448 225.073   4
 -13  -8   6 159.167 244.318  17
 -13  -8  -7 213.561 176.467  14
 -13  -8   7 316.183 259.248  13
  13  -8  -7 94.9294 202.078   4
 -13  -8   7 326.278 254.142  17
 -13  -8  -8 83.6996 173.811  14
 -13  -8   8-327.960 244.550  13
  13  -8  -8-350.322 218.573   4
 -13  -8   8-54.4077 196.173  17
 -13  -8   9-93.5392 205.295  13
  13  -8  -9 24.6140 184.091   4
 -13  -8   9-6.95957 187.469  17
 -13  -8  10-116.753 177.246  13
  13  -8 -10 86.4371 169.631   4
 -13  -8  10 42.0737 180.565  17
 -13  -8  11 389.307 191.403  13
  13  -8 -11 489.968 198.386   4
 -13  -8  11 213.111 177.619  17
 -13  -9   0 3.41687 187.500  14
 -13  -9   1 270.541 203.347  14
 -13  -9  -1 292.111 201.572  14
 -13  -9   1 207.057 232.342  17
 -13  -9   2 6188.31 587.807  17
 -13  -9   2 6287.35 504.580  14
 -13  -9  -2 5664.58 515.469  14
 -13  -9   3 5261.47 553.842  17
 -13  -9   3 5083.14 464.184  14
 -13  -9  -3 5061.53 477.143  14
 -13  -9  -4 506.049 237.298  14
 -13  -9   4 706.243 288.321  17
 -13  -9   4 235.817 179.398  14
 -13  -9  -5 2386.60 347.520  14
 -13  -9   5 2474.23 409.286  17
 -13  -9   5 2380.36 335.358  14
 -13  -9  -6 280.567 179.564  14
  13  -9  -6 366.002 201.053   4
 -13  -9   6 632.092 261.372  17
 -13  -9  -7 25.1129 167.867  14
 -13  -9   7 166.756 198.273  13
  13  -9  -7 44.3930 181.849   4
 -13  -9   7-75.4098 200.666  17
 -13  -9  -8 704.454 204.285  14
 -13  -9   8 506.995 237.035  13
  13  -9  -8 722.064 235.652   4
 -13  -9   8 553.726 230.171  17
 -13  -9  -9 590.020 192.076  14
 -13  -9   9 430.402 196.415  13
  13  -9  -9 206.723 179.603   4
 -13  -9   9 379.366 202.806  17
 -13  -9  10 17.7769 173.230  13
  13  -9 -10 55.1470 154.893   4
 -13 -10   0-69.2809 174.416  14
 -13 -10   1-21.6698 168.658  14
 -13 -10  -1-149.224 194.476  14
 -13 -10  -2 38.2570 177.470  14
 -13 -10   2-308.118 254.174  17
 -13 -10   2 122.136 173.067  14
 -13 -10   3 4.44717 222.048  17
 -13 -10   3 110.098 170.187  14
 -13 -10  -4 714.195 227.704  14
 -13 -10   4 592.139 271.133  17
 -13 -10   4 468.779 181.415  14
 -13 -10  -5 566.860 219.674  14
 -13 -10   5 720.048 246.434  17
 -13 -10  -6 618.623 203.550  14
 -13 -10   6 539.943 231.896  17
 -13 -10  -7 43.1491 147.070  14
 -13 -10   7 60.4625 179.579  13
  13 -10  -7 110.796 174.329   4
 -13 -10   7 159.500 184.227  17
 -13 -10  -8 98.1093 151.187  14
 -13 -10   8-60.1477 161.123  13
  13 -10  -8 287.321 173.648   4
 -13 -10   8 16.8389 162.791  17
 -13 -10  -9 110.884 140.422  14
 -13 -10   9 118.903 159.624  13
 -13 -10   9 200.430 150.953  17
 -13 -11   0 15.7451 151.875  14
 -13 -11  -1 1253.93 261.833  14
 -13 -11   1 1084.57 226.832  14
 -13 -11   2 2957.84 317.125  14
 -13 -11  -2 3957.70 396.752  14
 -13 -11  -3 553.769 206.869  14
 -13 -11   3 589.955 247.376  17
 -13 -11  -4 1011.15 234.619  14
 -13 -11   4 649.215 247.447  17
 -13 -11  -5 1333.43 248.114  14
 -13 -11   5 1302.93 281.300  17
  13  11  -5 1723.74 184.419   7
 -13 -11  -6-70.5242 141.332  14
 -13 -11   6-181.919 211.730  17
 -13 -11  -7 1.16927 132.865  14
 -13 -11   7 17.4496 150.624  13
 -13 -11   7 35.8028 162.489  17
  13  12   0 8636.06 230.778   7
 -13 -12   0 28.9616 139.191  14
 -13 -12  -1-47.6004 153.741  14
 -13 -12   1-100.835 143.140  14
 -13 -12  -2 57.9538 155.180  14
  13  12  -2 4318.59 220.078   7
 -13 -12  -3 120.547 161.414  14
  13  12  -3 1885.24 192.066   7
 -13 -12  -4-1.66592 135.091  14
 -13 -12   4-40.9960 175.565  17
 -13 -12  -5 100.120 131.216  14
  13  12  -5-293.955 127.034   7
 -13 -12   5 16.7677 178.927  17
  13  13   0 4245.29 187.260   7
  13  13  -1 2608.81 171.928   7
  13  13   1 5630.21 189.902   7
 -14   0   0 1661.45 389.808  18
 -14   0   0 1664.82 392.380  17
 -14   0   1 66.4267 248.258  18
 -14   0  -1 144.255 265.339  17
 -14   0   1 306.320 288.704  17
 -14   0   2 8507.53 711.099  18
 -14   0  -2 8431.34 691.378  17
 -14   0   2 8671.99 685.649  17
 -14   0   3-23.6956 260.622  18
 -14   0  -3-21.9353 237.503  17
 -14   0   3 219.815 243.428  17
 -14   0   4 584.640 306.605  18
 -14   0  -4 544.417 296.018  17
 -14   0   4 776.469 287.043  17
 -14   0   5-74.1922 243.369  13
 -14   0   5 145.579 302.439  18
 -14   0  -5 259.783 266.872  17
 -14   0   5 200.353 217.716  17
 -14   0   5 378.888 327.757  16
 -14   0   6 9849.47 703.301  13
 -14   0   6 9467.62 780.800  18
 -14   0  -6 9611.92 735.347  17
 -14   0   6 9340.28 755.041  16
 -14   0   7-12.3885 227.534  13
 -14   0   7-199.768 281.743  18
 -14   0   7 36.9874 269.838  16
 -14   0   8 4560.23 566.639  18
 -14   0   8 5495.28 600.376  16
 -14   0   9-253.148 260.164  18
 -14   0   9 51.2710 251.645  16
 -14   0  10 146.712 240.032  18
 -14   0  10 50.4857 243.736  16
 -14   0  11-133.676 213.512  18
 -14   0  11-173.742 243.745  16
 -14   0  12 34.6128 192.036  18
 -14   0  12 134.330 220.213  16
 -14   0  13 122.253 160.090  18
 -14   0  13-106.638 184.467  16
 -14   1   0 8721.25 719.529  18
 -14  -1   0 8253.70 686.133  18
 -14   1   0 9217.53 715.607  17
 -14  -1   0 8922.40 710.446  17
 -14  -1   0 9245.01 626.415  14
 -14   1   1-106.921 257.936  18
 -14  -1   1 411.266 271.610  18
 -14   1  -1 324.083 276.512  17
 -14   1   1 436.395 280.724  17
 -14  -1  -1 124.631 249.252  17
 -14  -1   1 295.303 245.285  17
 -14  -1   1 116.432 201.354  14
 -14   1   2 815.437 314.961  18
 -14  -1   2 584.689 284.213  18
 -14   1  -2 752.333 309.433  17
 -14  -1  -2 802.441 297.543  17
 -14   1   2 763.704 295.134  17
 -14  -1   2 1105.25 325.096  17
 -14   1   3 5546.46 616.034  18
 -14  -1   3 5886.00 624.638  18
 -14   1  -3 5517.35 577.943  17
 -14  -1  -3 5793.10 587.359  17
 -14   1   3 5190.18 564.070  17
 -14  -1   3 5271.39 562.020  17
 -14  -1   4 2061.33 356.611  13
 -14   1   4 2134.13 436.029  18
 -14  -1   4 2059.93 420.563  18
 -14   1  -4 2613.34 435.761  17
 -14  -1  -4 1950.49 380.019  17
 -14   1   4 2104.32 386.325  17
 -14  -1   4 2182.17 393.805  17
 -14   1   4 2129.39 417.542  16
 -14  -1   5 1457.68 345.532  13
 -14   1   5 1794.34 398.178  18
 -14  -1   5 1606.75 389.463  18
 -14   1  -5 1733.39 377.116  17
 -14  -1  -5 1605.39 358.323  17
 -14  -1   5 1110.64 332.781  17
 -14   1   5 1613.62 394.348  16
 -14  -1   6 1173.15 336.463  13
 -14   1   6 1096.44 373.422  18
 -14  -1   6 1241.52 386.425  18
 -14  -1  -6 1161.35 342.718  17
 -14  -1   6 1078.31 310.314  17
 -14   1   6 1134.04 366.214  16
 -14  -1   7 2808.36 416.738  13
 -14   1   7 2350.38 444.363  18
 -14  -1   7 2085.51 421.557  18
 -14   1   7 2474.11 435.098  16
 -14  -1   8 777.708 317.193  13
 -14   1   8 561.853 320.587  18
 -14  -1   8 625.811 308.258  18
 -14   1   8 576.476 330.570  16
 -14   1   9 219.806 261.193  18
 -14  -1   9-26.4680 235.160  18
 -14   1   9 324.243 277.395  16
 -14   1  10 1788.91 365.508  18
 -14  -1  10 1993.04 377.351  18
 -14   1  10 1957.51 367.534  16
 -14  -1  10 1533.67 349.908  16
 -14   1  11 32.2037 194.488  18
 -14  -1  11-297.228 239.693  18
  14  -1 -11 6.91363 192.186   4
 -14   1  11-92.3937 214.089  16
 -14  -1  11 94.7122 219.113  16
 -14   1  12 370.010 222.429  18
 -14  -1  12 31.3157 202.790  18
 -14   1  12 97.7163 203.422  16
 -14  -1  12-132.827 208.499  16
 -14   1  13 55.7631 168.217  18
 -14  -1  13 63.1695 182.081  18
 -14   1  13 349.296 208.414  16
 -14  -1  13 380.214 215.462  16
 -14   2   0 2489.69 414.648  17
 -14  -2   0 2471.40 404.751  17
 -14  -2   0 2820.94 391.993  14
 -14   2   1 11561.3 823.586  18
 -14   2  -1 11834.2 793.765  17
 -14   2   1 12237.1 802.106  17
 -14  -2  -1 11785.4 792.754  17
 -14  -2   1 11509.9 794.244  17
 -14  -2   1 12223.3 731.757  14
 -14  -2  -1 12243.5 708.757  14
 -14   2   2 696.653 334.273  18
 -14  -2   2 1054.43 339.840  18
 -14   2  -2 1210.95 346.095  17
 -14   2   2 1300.02 356.231  17
 -14  -2  -2 1540.13 359.356  17
 -14  -2   2 1045.44 349.067  17
 -14  -2   2 1501.74 335.380  14
 -14   2   3 866.109 303.302  18
 -14  -2   3 1090.69 328.022  18
 -14   2  -3 1069.71 335.277  17
 -14   2   3 1030.98 324.548  17
 -14  -2  -3 1039.64 300.915  17
 -14  -2   3 1058.65 322.787  17
 -14  -2   4 178.540 228.227  13
 -14   2   4 286.197 294.526  18
 -14  -2   4 86.4661 270.941  18
 -14   2  -4 378.089 279.135  17
 -14  -2  -4-12.5378 234.077  17
 -14  -2   4 102.647 254.989  17
 -14   2   4 56.0379 276.847  16
 -14  -2   5 553.239 259.121  13
 -14   2   5 586.920 323.498  18
 -14  -2   5 683.521 303.606  18
 -14  -2  -5 370.066 247.391  17
 -14  -2   5 227.744 247.998  17
 -14   2   5 695.017 317.256  16
 -14  -2   6 2191.16 388.451  13
 -14   2   6 2549.68 444.789  18
 -14  -2   6 2497.92 461.524  18
 -14  -2   6 2385.13 411.196  17
 -14   2   6 2720.07 458.365  16
 -14  -2   7 241.067 240.521  13
 -14   2   7 50.7937 279.082  18
 -14  -2   7 371.688 290.418  18
 -14  -2   7 73.1123 228.728  17
 -14   2   7 181.829 265.663  16
 -14  -2   8 507.400 272.134  13
 -14   2   8 326.017 283.199  18
 -14  -2   8 364.265 283.925  18
 -14   2   8 828.903 322.838  16
 -14  -2   9 2968.22 418.723  13
 -14   2   9 3043.28 447.462  18
 -14  -2   9 3129.83 462.724  18
 -14   2   9 3439.16 489.721  16
 -14   2  10-8.39503 206.764  18
 -14  -2  10 49.2504 214.813  18
  14  -2 -10 160.112 194.875   4
 -14   2  10-34.9414 237.508  16
 -14   2  11 42.4666 199.501  18
 -14  -2  11 244.347 225.958  18
  14  -2 -11 213.125 191.614   4
 -14   2  11 269.123 240.229  16
 -14  -2  11 355.177 248.510  16
  14  -2 -12 207.270 178.542   4
 -14   2  12 115.948 194.199  18
 -14  -2  12 15.7429 180.173  18
 -14   2  12 11.9940 191.235  16
 -14  -2  12-59.2089 193.870  16
 -14  -2  13 537.277 205.889  18
 -14   2  13 714.458 232.436  16
 -14  -2  13 907.532 247.414  16
 -14   3   0 169.326 258.442  17
 -14  -3   0 227.312 242.807  17
 -14  -3   0 321.524 221.906  14
 -14   3   1-176.086 261.868  18
 -14   3  -1-109.650 241.788  17
 -14   3   1 46.5780 237.791  17
 -14  -3  -1-151.961 236.018  17
 -14  -3   1-8.28609 256.656  17
 -14  -3   1-147.105 231.257  14
 -14  -3  -1 288.490 228.624  14
 -14   3   2 226.666 261.736  18
 -14   3  -2-136.761 261.520  17
 -14   3   2-409.779 276.720  17
 -14  -3  -2-260.605 256.804  17
 -14  -3   2-113.150 244.891  17
 -14  -3   2 190.742 247.914  14
 -14  -3  -2 72.3717 206.502  14
 -14   3   3 10665.9 797.233  18
 -14   3  -3 10674.8 786.102  17
 -14   3   3 10788.8 756.746  17
 -14  -3  -3 10691.9 748.210  17
 -14  -3   3 11554.1 800.627  17
 -14  -3   3 11421.6 736.064  14
 -14  -3   4 2.33842 225.228  13
 -14   3   4 95.9846 255.966  18
 -14  -3   4 333.766 278.313  18
 -14  -3  -4 10.5732 238.978  17
 -14  -3   4-179.233 232.704  17
 -14   3   4-146.403 283.479  16
 -14  -3   5-105.084 228.016  13
 -14   3   5-44.5368 247.009  18
 -14  -3   5 229.570 290.189  18
 -14  -3   5 178.019 243.737  17
 -14   3   5 209.781 275.260  16
 -14  -3   6 1117.03 313.419  13
 -14   3   6 1258.16 349.214  18
 -14  -3   6 1316.59 367.142  18
 -14  -3   6 1087.10 304.456  17
 -14   3   6 1343.75 356.444  16
 -14  -3   7 3448.34 450.311  13
 -14  -3   7 3820.61 541.471  18
 -14   3   7 3110.87 475.602  18
 -14  -3   7 3267.03 441.534  17
 -14   3   7 3320.61 486.037  16
 -14  -3   8 1189.36 322.248  13
 -14   3   8 897.112 312.111  18
 -14  -3   8 881.475 328.553  18
 -14  -3   8 729.441 265.893  17
 -14   3   8 712.922 325.184  16
 -14  -3   9-15.9479 226.255  13
 -14   3   9 106.140 256.201  18
 -14  -3   9-43.6849 259.545  18
 -14   3   9 197.076 257.460  16
 -14  -3  10 919.038 263.953  13
 -14   3  10 1078.26 313.521  18
 -14  -3  10 1078.00 296.679  18
  14  -3 -10 1437.03 287.470   4
 -14   3  10 831.546 290.615  16
 -14   3  11 325.744 219.410  18
  14  -3 -11-72.9182 186.976   4
 -14  -3  11 329.192 252.271  18
 -14   3  11 266.243 220.879  16
  14  -3 -12 9.92640 173.905   4
 -14   3  12 252.683 193.666  18
 -14  -3  12 78.4653 184.475  18
 -14   3  12 167.695 212.404  16
 -14  -3  12 116.864 198.295  16
 -14  -3  13 596.232 214.854  18
 -14  -3  13 407.208 197.298  16
 -14   4   0 68.5564 236.533  17
 -14  -4   0 235.415 251.446  17
 -14  -4   0 69.1364 209.760  14
 -14  -4  -1 3574.49 487.947  17
 -14   4  -1 3100.65 456.916  17
 -14   4   1 3197.54 452.263  17
 -14  -4   1 3414.58 472.654  17
 -14  -4  -1 3620.15 408.435  14
 -14  -4   1 3395.69 405.979  14
 -14   4   2 1482.20 370.029  18
 -14   4  -2 1542.49 375.013  17
 -14   4   2 1830.89 363.954  17
 -14  -4  -2 1264.31 328.089  17
 -14  -4   2 1481.73 362.412  17
 -14  -4   2 1219.72 313.658  14
 -14  -4  -2 1421.63 302.380  14
 -14  -4  -3 131.097 186.760  14
 -14  -4   3 75.0101 234.035  13
 -14   4   3 150.044 284.381  18
 -14  -4  -3-153.973 258.435  17
 -14  -4   3 369.811 289.348  17
 -14  -4   3 353.402 242.869  14
 -14  -4   4 933.496 309.481  13
 -14   4   4 897.905 324.122  18
 -14  -4   4 944.358 315.443  17
 -14   4   4 831.786 324.699  16
 -14  -4   5 1018.61 309.102  13
 -14   4   5 970.921 325.697  18
 -14  -4   5 892.415 295.812  17
 -14   4   5 1303.28 355.511  16
 -14  -4   6 1480.63 340.835  13
 -14   4   6 1446.22 352.008  18
 -14  -4   6 1288.74 360.909  18
 -14  -4   6 1624.87 357.002  17
 -14   4   6 1266.07 352.515  16
 -14  -4   7 239.874 270.289  13
 -14   4   7 249.441 261.741  18
 -14  -4   7 376.629 301.791  18
 -14  -4   7 231.779 250.281  17
 -14   4   7 229.315 283.957  16
 -14  -4   8 1463.06 343.750  13
 -14   4   8 1263.80 327.378  18
 -14  -4   8 1381.94 360.443  18
 -14  -4   8 1275.57 299.373  17
 -14   4   8 1732.88 401.398  16
 -14  -4   9 1428.81 311.388  13
 -14   4   9 1555.10 332.200  18
 -14  -4   9 1485.70 357.739  18
  14  -4  -9 1762.07 310.822   4
 -14  -4   9 1780.82 324.160  17
 -14   4   9 1854.84 384.107  16
 -14  -4  10 112.448 209.502  13
 -14   4  10 63.5561 199.951  18
  14  -4 -10-37.7168 195.525   4
 -14  -4  10 278.947 236.826  18
 -14   4  10-67.4969 233.892  16
 -14  -4  11 250.777 213.777  13
  14  -4 -11 298.751 193.443   4
 -14  -4  11 219.100 232.898  18
 -14   4  11 222.993 232.300  16
  14  -4 -12-226.406 176.371   4
 -14  -4  12-61.2784 188.938  18
 -14  -5   0 3947.41 500.675  17
 -14  -5   0 3877.51 453.714  14
 -14   5   1 779.065 286.065  17
 -14  -5  -1 1201.61 329.071  17
 -14  -5   1 1275.44 337.925  17
 -14  -5   1 1164.23 304.086  14
 -14  -5  -1 1246.82 295.611  14
 -14  -5  -2 464.248 214.180  14
 -14  -5  -2 291.357 268.273  17
 -14  -5   2 676.697 299.483  17
 -14  -5   2 442.214 237.058  14
 -14  -5  -3 416.072 222.102  14
 -14  -5   3 361.832 232.286  13
 -14  -5   3 338.505 256.051  17
 -14  -5   3 48.1258 208.641  14
 -14  -5  -4 526.544 217.421  14
 -14  -5   4 648.550 272.628  13
 -14   5   4 488.576 315.354  18
 -14  -5   4 537.504 291.608  17
 -14   5   4 412.455 282.027  16
 -14  -5   4 693.748 279.324  14
 -14  -5  -5 98.6674 186.331  14
 -14  -5   5 243.382 239.048  13
 -14   5   5 42.9720 238.894  18
 -14  -5   5 74.9822 243.633  17
 -14   5   5 211.912 277.782  16
 -14  -5   6 939.098 294.659  13
 -14   5   6 978.620 315.011  18
 -14  -5   6 1205.29 323.324  17
 -14   5   6 1122.07 349.736  16
 -14  -5   7 166.287 228.413  13
 -14   5   7 146.065 221.511  18
 -14  -5   7 181.143 216.660  17
 -14   5   7 16.2950 245.140  16
 -14  -5   8 1023.81 296.063  13
 -14   5   8 709.105 268.224  18
 -14  -5   8 1019.85 312.284  18
  14  -5  -8 943.629 270.360   4
 -14  -5   8 696.819 257.274  17
 -14   5   8 674.875 297.506  16
 -14  -5   9 219.243 226.722  13
 -14  -5   9 214.082 232.490  18
  14  -5  -9-33.1696 195.441   4
 -14  -5   9 77.2683 190.864  17
 -14   5   9 58.8682 220.776  16
 -14  -5  10 2864.70 376.254  13
  14  -5 -10 3170.03 362.837   4
 -14  -5  10 2343.80 372.911  18
 -14  -5  10 2187.79 325.231  17
 -14  -5  11 157.118 173.217  13
 -14  -5  11 379.866 228.778  18
  14  -5 -12 576.278 184.644   4
 -14  -6   0 167.240 246.230  17
 -14  -6   0 235.693 222.621  14
 -14  -6  -1 719.692 249.843  14
 -14  -6  -1 923.646 298.698  17
 -14  -6   1 663.681 281.460  17
 -14  -6   1 1164.57 282.447  14
 -14  -6  -2 2518.97 361.854  14
 -14  -6   2 2487.36 421.334  17
 -14  -6   2 2364.81 390.546  14
 -14  -6  -3 549.732 235.094  14
 -14  -6   3 557.047 279.293  17
 -14  -6   3 557.000 236.270  14
 -14  -6  -4 1437.00 291.833  14
 -14  -6   4 1699.08 355.997  13
 -14  -6   4 1529.56 356.701  17
 -14  -6   4 1304.72 313.864  14
 -14  -6  -5 393.777 217.591  14
 -14  -6   5 626.198 274.953  13
 -14  -6   5 539.225 258.349  17
 -14  -6  -6 2007.87 325.093  14
 -14  -6   6 2911.30 409.941  13
 -14   6   6 2485.46 392.751  18
  14  -6  -6 2706.21 356.472   4
 -14  -6   6 1795.70 346.970  17
 -14  -6   7 84.0089 230.618  13
  14  -6  -7 20.4968 197.332   4
 -14  -6   7 6.53690 203.644  17
 -14  -6   8 3783.92 454.054  13
  14  -6  -8 3691.80 402.264   4
 -14  -6   8 2950.66 397.313  17
 -14  -6   9 417.106 230.209  13
  14  -6  -9 594.497 226.876   4
 -14  -6   9 554.763 245.236  17
 -14  -6  10 176.557 201.459  13
  14  -6 -10 272.787 196.506   4
 -14  -6  10 361.178 195.434  17
 -14  -6  11 13.0109 159.826  13
  14  -6 -11 176.165 169.286   4
 -14  -6  11 345.447 194.814  18
 -14  -7   0 548.278 242.094  17
 -14  -7   0 615.482 254.729  14
 -14  -7  -1 843.971 267.269  14
 -14  -7  -1 504.744 237.593  17
 -14  -7   1 1196.61 333.331  17
 -14  -7   1 758.380 255.917  14
 -14  -7  -2 289.086 200.953  14
 -14  -7   2 213.565 242.430  17
 -14  -7   2 70.2812 195.207  14
 -14  -7   3 4328.00 508.751  17
 -14  -7   3 4301.66 443.763  14
 -14  -7  -3 4236.57 431.217  14
 -14  -7  -4 736.301 240.848  14
 -14  -7   4 1129.98 336.465  17
 -14  -7   4 615.041 262.245  14
 -14  -7  -5 693.065 225.563  14
 -14  -7   5 764.933 273.035  13
  14  -7  -5 966.801 265.441   4
 -14  -7   5 349.643 249.343  17
 -14  -7  -6 62.0612 159.905  14
 -14  -7   6-88.7232 228.665  13
  14  -7  -6-120.281 210.326   4
 -14  -7   6-86.0693 224.676  17
 -14  -7  -7 1689.56 266.711  14
 -14  -7   7 1894.32 346.680  13
  14  -7  -7 1655.39 287.891   4
 -14  -7   7 1660.93 312.834  17
 -14  -7   8 780.430 264.287  13
  14  -7  -8 529.890 224.742   4
 -14  -7   8 627.382 244.839  17
 -14  -7   9 466.354 189.947  13
  14  -7  -9 347.848 195.616   4
 -14  -7   9 202.768 188.111  17
 -14  -7  10 454.615 194.798  13
  14  -7 -10 940.945 209.116   4
 -14  -7  10 617.354 210.034  17
 -14  -8   0 754.446 303.555  17
 -14  -8   0 293.156 203.297  14
 -14  -8   1 5641.98 545.611  17
 -14  -8   1 5462.19 488.336  14
 -14  -8  -1 5238.69 490.027  14
 -14  -8  -2 123.340 209.933  14
 -14  -8   2 198.485 252.375  17
 -14  -8   2 206.895 192.777  14
 -14  -8  -3 146.956 192.366  14
 -14  -8   3 437.507 271.586  17
 -14  -8   3 370.888 211.823  14
 -14  -8  -4 6.44576 166.841  14
 -14  -8   4 328.071 265.976  17
 -14  -8   4 38.2699 165.860  14
 -14  -8  -5 379.215 195.036  14
 -14  -8   5 435.698 240.227  13
 -14  -8   5 672.861 256.030  17
 -14  -8  -6-175.456 192.338  14
 -14  -8   6 10.5901 204.877  13
  14  -8  -6 118.633 184.875   4
 -14  -8   6-30.0783 199.960  17
 -14  -8  -7 125.670 158.568  14
 -14  -8   7 217.229 216.840  13
  14  -8  -7 160.613 182.767   4
 -14  -8   7 192.078 182.049  17
 -14  -8  -8-123.030 148.976  14
 -14  -8   8-237.056 202.172  13
  14  -8  -8-24.6125 170.675   4
 -14  -8   8 120.312 179.509  17
 -14  -8   9 921.947 228.300  13
  14  -8  -9 1091.34 231.275   4
 -14  -8   9 932.197 230.191  17
 -14  -8  10 158.366 150.778  13
  14  -8 -10 67.8544 144.537   4
 -14  -9   0 1550.25 291.026  14
 -14  -9  -1 1399.32 282.586  14
 -14  -9   1 1140.67 297.328  17
 -14  -9   1 1026.11 241.549  14
 -14  -9  -2 25.5624 171.573  14
 -14  -9   2 150.221 245.222  17
 -14  -9   2 84.2948 166.218  14
 -14  -9  -3 567.478 216.014  14
 -14  -9   3 391.484 241.970  17
 -14  -9   3 467.099 201.648  14
 -14  -9  -4 2111.71 303.689  14
 -14  -9   4 1979.57 350.697  17
 -14  -9   4 1631.13 275.283  14
 -14  -9  -5 510.069 181.873  14
 -14  -9   5 607.380 240.597  13
 -14  -9   5 184.234 199.850  17
 -14  -9  -6 630.251 200.779  14
 -14  -9   6 577.298 225.906  13
 -14  -9   6 835.477 252.333  17
 -14  -9  -7 269.481 176.539  14
 -14  -9   7 398.130 212.230  13
  14  -9  -7 534.842 199.982   4
 -14  -9   7 392.227 206.832  17
 -14  -9  -8-4.01730 129.273  14
 -14  -9   8 265.558 169.750  13
  14  -9  -8 242.159 166.544   4
 -14  -9   8-62.4148 151.650  17
 -14 -10   0 360.787 180.211  14
 -14 -10  -1 843.031 222.178  14
 -14 -10   1 598.659 209.247  14
 -14 -10  -2 1441.23 260.021  14
 -14 -10   2 1400.49 289.490  17
 -14 -10   2 1478.69 251.126  14
 -14 -10  -3 345.666 185.651  14
 -14 -10   3 82.9388 191.982  17
 -14 -10   3-115.155 157.075  14
 -14 -10  -4-23.3271 152.075  14
 -14 -10   4-19.4946 187.399  17
 -14 -10  -5 365.768 192.317  14
 -14 -10   5 632.304 230.282  13
 -14 -10   5 687.923 227.968  17
 -14 -10  -6 1537.33 245.729  14
 -14 -10   6 1328.12 259.147  13
 -14 -10   6 1125.84 252.761  17
 -14 -10  -7 115.813 130.735  14
 -14 -10   7 453.125 182.700  13
 -14 -10   7 545.172 199.057  17
 -14 -11   0 1792.48 261.378  14
 -14 -11   1 985.957 210.901  14
 -14 -11  -1 743.734 202.441  14
 -14 -11  -2-83.5849 142.658  14
 -14 -11   2 137.343 137.985  14
 -14 -11  -3 1243.54 224.296  14
 -14 -11   3 1505.67 279.869  17
 -14 -11   3 1321.76 212.890  14
 -14 -11  -4 328.639 162.802  14
  14  11  -4 640.910 134.125   7
 -14 -11  -5-15.0905 132.115  14
 -14 -11   5 176.447 151.433  13
 -15   0   0-251.668 283.268  17
 -15   0   1 57.7264 276.230  18
 -15   0  -1 134.180 255.397  17
 -15   0   1 79.9802 241.752  17
 -15   0   2 1577.51 357.995  18
 -15   0  -2 1643.09 354.708  17
 -15   0   2 1688.12 359.324  17
 -15   0   3-162.935 237.238  18
 -15   0  -3-90.9756 253.493  17
 -15   0   3 181.318 242.114  17
 -15   0   4 10561.4 777.540  18
 -15   0  -4 10589.0 750.209  17
 -15   0   4 10531.3 738.769  17
 -15   0   5-219.065 260.147  18
 -15   0  -5 314.405 284.199  17
 -15   0   5-82.5030 218.914  17
 -15   0   5 301.586 265.992  16
 -15   0   6 4223.54 515.788  18
 -15   0   6 3854.14 488.571  16
 -15   0   7 487.984 288.311  18
 -15   0   7 168.893 238.348  16
 -15   0   8 1867.06 353.756  18
 -15   0   8 2265.66 389.087  16
 -15   0   9-219.398 225.895  18
 -15   0   9 272.104 243.296  16
 -15   0  10 777.857 253.271  18
 -15   0  10 606.761 249.057  16
 -15   0  11-4.57965 163.356  18
 -15   0  11-124.739 198.917  16
 -15   0  12-41.9869 168.195  16
 -15   1   0 141.747 234.605  17
 -15  -1   0 81.8084 242.727  17
 -15   1   1 910.816 303.728  18
 -15  -1   1 871.341 326.921  18
 -15   1  -1 778.083 313.041  17
 -15   1   1 1153.49 330.974  17
 -15  -1  -1 1306.14 347.924  17
 -15  -1   1 608.077 275.124  17
 -15   1   2 322.361 249.657  18
 -15  -1   2 247.122 255.094  18
 -15   1  -2 559.289 289.001  17
 -15  -1  -2 346.383 252.250  17
 -15   1   2 73.5242 233.845  17
 -15  -1   2 225.966 264.641  17
 -15   1   3 714.830 322.937  18
 -15  -1   3 936.960 335.106  18
 -15   1  -3 980.939 321.718  17
 -15  -1  -3 619.486 283.910  17
 -15   1   3 501.542 261.554  17
 -15  -1   3 857.633 298.615  17
 -15   1   4 9392.97 739.078  18
 -15  -1   4 9022.50 737.703  18
 -15   1  -4 8659.41 696.972  17
 -15  -1  -4 8332.45 674.815  17
 -15   1   4 8989.24 668.438  17
 -15  -1   4 9436.96 697.032  17
 -15  -1   5 387.350 255.067  13
 -15   1   5-101.160 234.063  18
 -15  -1   5 365.310 300.414  18
 -15  -1  -5 120.169 241.491  17
 -15  -1   5 229.311 248.635  17
 -15   1   5 422.442 282.008  16
 -15  -1   6 1947.65 344.527  13
 -15   1   6 1797.31 391.633  18
 -15  -1   6 2117.21 401.395  18
 -15  -1   6 1826.92 329.437  17
 -15   1   6 1740.37 369.879  16
 -15  -1   6 2126.17 381.353  16
 -15   1   7 1365.25 358.958  18
 -15  -1   7 1500.44 375.211  18
 -15   1   7 1939.91 382.188  16
 -15  -1   7 1600.87 352.065  16
 -15   1   8 749.791 280.354  18
 -15  -1   8 1106.58 299.785  18
 -15   1   8 622.587 267.096  16
 -15  -1   8 1247.60 325.291  16
 -15   1   9 72.5367 204.650  18
 -15  -1   9-321.303 229.893  18
 -15   1   9 224.501 254.897  16
 -15  -1   9 34.2258 225.035  16
 -15   1  10 761.587 243.353  18
 -15  -1  10 444.044 232.175  18
  15  -1 -10 676.279 218.771   4
 -15   1  10 1181.11 291.292  16
 -15  -1  10 648.567 258.770  16
 -15   1  11 1373.40 270.674  18
 -15  -1  11 1396.47 283.611  18
  15  -1 -11 1673.82 257.996   4
 -15   1  11 1217.49 279.989  16
 -15  -1  11 988.412 261.395  16
 -15   2   0-138.543 239.368  17
 -15  -2   0-27.8329 237.231  17
 -15  -2   0 5.41744 185.491  14
 -15   2  -1 2339.21 428.976  17
 -15   2   1 2309.43 420.881  17
 -15  -2  -1 1870.25 352.278  17
 -15  -2   1 1720.89 341.623  17
 -15  -2  -1 1753.99 306.844  14
 -15   2   2 173.935 259.048  18
 -15  -2   2 165.302 267.284  18
 -15   2  -2 256.594 258.408  17
 -15   2   2 16.6834 256.518  17
 -15  -2  -2 63.8990 235.451  17
 -15  -2   2 550.739 280.711  17
 -15   2   3 3804.45 502.278  18
 -15  -2   3 2910.82 441.864  18
 -15  -2   3 3474.78 443.264  17
 -15   2  -3 3502.48 467.163  17
 -15   2   3 2832.65 424.513  17
 -15  -2  -3 2665.72 416.451  17
 -15   2   4 1066.53 314.451  18
 -15  -2   4 1173.99 324.316  18
 -15  -2  -4 1083.52 318.478  17
 -15  -2   4 854.626 312.710  17
 -15  -2   5 173.233 213.998  13
 -15   2   5 130.631 236.845  18
 -15  -2   5 413.528 291.371  18
 -15  -2  -5 316.304 230.183  17
 -15  -2   5 399.053 232.571  17
 -15   2   5 273.775 241.160  16
 -15  -2   6-97.0479 229.378  13
 -15   2   6 87.6536 228.825  18
 -15  -2   6 278.305 265.065  18
 -15  -2   6 67.8673 196.990  17
 -15   2   6 11.4240 237.596  16
 -15  -2   7 619.011 248.716  13
 -15   2   7 723.345 286.539  18
 -15  -2   7 1062.48 351.629  18
 -15  -2   7 610.192 244.531  17
 -15   2   7 1001.18 329.947  16
 -15  -2   8 403.978 229.789  13
 -15   2   8-56.7618 205.128  18
 -15  -2   8 327.210 264.260  18
 -15   2   8-186.132 247.834  16
 -15  -2   8 302.342 252.779  16
 -15   2   9 250.466 218.573  18
 -15  -2   9 566.949 246.212  18
 -15   2   9 271.943 217.159  16
 -15  -2   9 146.382 247.544  16
 -15   2  10-41.7218 184.433  18
 -15  -2  10 150.567 191.779  18
  15  -2 -10-311.890 201.747   4
 -15   2  10 31.4228 193.606  16
 -15  -2  10-6.61384 193.489  16
  15  -2 -11 1760.10 261.555   4
 -15   2  11 1217.33 261.333  18
 -15  -2  11 1111.94 276.247  18
 -15   2  11 1725.86 303.027  16
 -15  -2  11 1531.70 301.119  16
 -15   3   0-41.4137 238.140  17
 -15  -3   0-44.4030 255.572  17
 -15  -3   0 269.227 221.988  14
 -15   3  -1 4147.12 507.396  17
 -15   3   1 3529.91 469.926  17
 -15  -3  -1 4050.55 493.643  17
 -15  -3   1 3537.74 470.469  17
 -15  -3   1 4262.69 437.679  14
 -15  -3  -1 3633.95 411.519  14
 -15   3  -2 626.927 300.714  17
 -15   3   2 546.014 280.648  17
 -15  -3  -2 423.106 267.114  17
 -15  -3   2 866.275 304.804  17
 -15  -3  -2 665.847 229.304  14
 -15   3   3 8209.39 707.381  18
 -15   3   3 8621.13 669.067  17
 -15  -3  -3 7900.99 650.153  17
 -15  -3   3 7848.07 645.874  17
 -15  -3   4 582.608 242.275  13
 -15   3   4 577.651 301.475  18
 -15  -3   4 812.150 312.105  18
 -15  -3  -4 655.198 272.166  17
 -15  -3   4 724.090 287.707  17
 -15  -3   5 103.446 210.750  13
 -15   3   5 170.011 258.803  18
 -15  -3   5 66.3449 252.258  18
 -15  -3   5-17.6053 225.027  17
 -15   3   5 202.718 260.065  16
 -15  -3   6-235.408 242.126  13
 -15   3   6-102.500 247.483  18
 -15  -3   6 269.431 274.477  18
 -15  -3   6-76.3158 199.756  17
 -15   3   6-44.7502 245.120  16
 -15  -3   7 866.451 263.232  13
 -15   3   7 911.725 284.692  18
 -15  -3   7 644.719 284.822  18
 -15  -3   7 661.108 235.064  17
 -15   3   7 551.073 275.942  16
 -15  -3   8 168.303 198.109  13
 -15   3   8 247.110 207.358  18
 -15  -3   8 345.716 236.722  18
 -15  -3   8 396.727 208.825  17
 -15   3   8 213.417 230.578  16
 -15  -3   9-24.4114 183.930  13
 -15   3   9-23.9782 198.141  18
 -15  -3   9 16.4703 200.598  18
  15  -3  -9-57.9772 186.442   4
 -15   3   9 3.85486 210.869  16
 -15   3  10 241.834 198.393  18
 -15  -3  10 182.786 206.530  18
  15  -3 -10-57.7241 160.453   4
 -15   3  10-53.3001 215.134  16
 -15  -3  10 339.336 223.597  16
  15  -3 -11 2739.40 309.934   4
 -15   3  11 2122.44 310.802  18
 -15  -3  11 2378.57 324.333  18
 -15   3  11 2398.10 348.162  16
 -15  -3  11 2824.79 354.877  16
 -15   4   0-29.7235 241.157  17
 -15  -4   0 151.388 221.954  17
 -15  -4   0-93.7576 200.107  14
 -15   4   1 1297.09 320.445  17
 -15  -4  -1 1018.43 296.113  17
 -15  -4   1 1408.75 332.402  17
 -15  -4   1 1180.17 280.041  14
 -15  -4  -1 1333.24 276.490  14
 -15   4   2 3056.14 428.360  17
 -15  -4  -2 3061.23 418.195  17
 -15  -4   2 3318.09 450.870  17
 -15  -4   2 3934.08 437.869  14
 -15  -4  -2 2788.53 355.473  14
 -15  -4  -3 909.115 302.798  17
 -15  -4   3 286.150 247.083  17
 -15  -4  -3 489.781 211.240  14
 -15  -4   4 2541.77 367.136  13
 -15   4   4 2138.87 399.414  18
 -15  -4   4 2202.17 372.197  17
 -15   4   4 2557.44 419.087  16
 -15  -4   5 86.4861 202.727  13
 -15   4   5 243.341 237.081  18
 -15  -4   5 189.663 237.995  17
 -15   4   5 320.824 269.087  16
 -15  -4   6 1098.72 291.261  13
 -15   4   6 1314.28 322.758  18
 -15  -4   6 548.658 233.466  17
 -15   4   6 746.979 307.454  16
 -15  -4   7 183.621 221.451  13
 -15   4   7 149.584 230.059  18
 -15  -4   7-259.150 240.546  18
 -15  -4   7 235.100 210.801  17
 -15   4   7-72.7933 235.905  16
 -15  -4   8 534.221 230.238  13
 -15   4   8 369.699 221.516  18
 -15  -4   8 301.472 219.682  18
  15  -4  -8 489.841 221.160   4
 -15  -4   8 546.274 212.570  17
 -15   4   8 631.654 251.931  16
 -15  -4   9-135.851 189.644  13
 -15   4   9 98.6398 184.294  18
 -15  -4   9-103.358 211.493  18
  15  -4  -9 164.787 185.117   4
 -15  -4   9 7.24891 163.075  17
 -15   4   9-4.35449 213.816  16
  15  -4 -10 160.113 165.767   4
 -15   4  10-16.3120 174.207  18
 -15  -4  10-292.853 206.322  18
 -15  -4  11 680.905 219.221  16
 -15  -5   0-283.209 235.632  17
 -15  -5   0-201.341 232.714  14
 -15  -5  -1 148.651 215.657  17
 -15  -5   1-98.9081 229.492  17
 -15  -5   1 3.32748 194.107  14
 -15  -5  -1-16.7853 185.126  14
 -15  -5  -2 834.750 304.254  17
 -15  -5   2 325.472 250.905  17
 -15  -5   2 713.213 246.151  14
 -15  -5  -2 608.187 229.497  14
 -15  -5   3 303.629 233.239  13
 -15  -5   3-10.2792 216.136  17
 -15  -5  -3 171.442 183.767  14
 -15  -5   4 6992.45 575.912  13
 -15  -5   4 6745.91 590.188  17
 -15  -5  -4 6382.08 470.990  14
 -15  -5   5 1298.08 297.172  13
 -15  -5   5 1580.84 338.914  17
 -15  -5   6 2561.86 373.468  13
 -15  -5   6 2381.23 362.423  17
 -15  -5   7-84.4091 187.709  13
 -15   5   7 144.857 220.236  18
  15  -5  -7-585.795 223.527   4
 -15  -5   7 88.2493 188.191  17
 -15  -5   8 665.202 224.297  13
 -15   5   8 736.767 239.220  18
  15  -5  -8 466.282 203.836   4
 -15  -5   8 657.597 233.144  17
 -15  -5   9-2.48139 176.769  13
  15  -5  -9-71.2677 177.196   4
 -15  -5   9-60.9665 178.480  18
 -15  -5   9 63.1365 155.061  17
 -15  -5  10 248.289 181.220  13
  15  -5 -10 559.579 180.418   4
 -15  -6   0-161.247 229.802  17
 -15  -6   0-141.203 201.989  14
 -15  -6  -1 550.609 256.064  17
 -15  -6   1 205.011 232.506  17
 -15  -6   1 82.7423 201.465  14
 -15  -6  -1 243.357 207.880  14
 -15  -6  -2 1237.98 290.346  17
 -15  -6   2 1078.84 297.670  17
 -15  -6   2 998.254 258.671  14
 -15  -6  -2 1130.00 266.572  14
 -15  -6   3 310.510 222.754  13
 -15  -6   3 411.776 249.199  17
 -15  -6   3 730.481 240.811  14
 -15  -6  -3 481.000 205.542  14
 -15  -6   4 1220.89 291.117  13
  15  -6  -4 1852.05 299.192   4
 -15  -6   4 1778.23 360.179  17
 -15  -6  -4 1346.84 260.986  14
 -15  -6   5 85.3132 192.396  13
  15  -6  -5 142.336 189.650   4
 -15  -6   5 208.660 220.716  17
 -15  -6  -5 43.1148 185.931  14
 -15  -6   6 942.351 248.837  13
  15  -6  -6 783.411 238.637   4
 -15  -6   6 751.172 256.446  17
 -15  -6   7 71.6789 202.756  13
  15  -6  -7-31.9249 185.218   4
 -15  -6   7-47.4128 182.503  17
 -15  -6   8 384.753 206.369  13
  15  -6  -8 431.571 199.994   4
 -15  -6   8 555.900 210.278  17
 -15  -6   9 17.0916 161.367  13
  15  -6  -9 73.0956 168.076   4
 -15  -6   9 236.240 180.490  17
 -15  -7   0-230.930 227.042  17
 -15  -7   0 83.7880 173.288  14
 -15  -7  -1 1341.98 300.511  17
 -15  -7   1 1361.73 308.853  17
 -15  -7   1 1428.42 296.425  14
 -15  -7  -1 1254.64 267.134  14
 -15  -7   2 406.536 214.644  17
 -15  -7   2 775.180 236.111  14
 -15  -7  -2 551.692 212.745  14
 -15  -7   3 2119.21 335.514  13
 -15  -7   3 2023.84 356.717  17
 -15  -7   3 1958.34 308.334  14
 -15  -7  -3 2203.14 306.140  14
 -15  -7   4 1147.16 275.387  13
 -15  -7   4 1103.54 300.112  17
 -15  -7  -4 916.184 218.942  14
 -15  -7  -5 65.6015 182.278  14
 -15  -7   5-71.1092 184.060  13
  15  -7  -5 329.870 202.225   4
 -15  -7   5-16.7533 193.010  17
 -15  -7  -6-213.858 174.508  14
 -15  -7   6 48.8767 178.100  13
  15  -7  -6 171.501 193.384   4
 -15  -7   6 374.378 220.763  17
 -15  -7   7 944.556 241.289  13
  15  -7  -7 1134.35 247.933   4
 -15  -7   7 573.841 199.041  17
 -15  -7   8 285.307 183.122  13
  15  -7  -8-28.0181 161.326   4
 -15  -7   8 77.0374 159.211  17
 -15  -7   9-113.338 158.355  13
 -15  -8   0 50.2595 193.643  17
 -15  -8   0-107.385 170.846  14
 -15  -8   1 1192.85 287.585  17
 -15  -8   1 1175.84 262.078  14
 -15  -8  -1 1156.90 245.383  14
 -15  -8   2 51.6357 179.260  13
 -15  -8   2 106.109 193.380  17
 -15  -8   2 270.267 186.522  14
 -15  -8  -2 622.005 203.271  14
 -15  -8   3 1296.11 277.101  13
 -15  -8   3 1181.46 290.197  17
 -15  -8   3 1007.96 229.782  14
 -15  -8  -3 889.544 220.742  14
 -15  -8  -4 121.087 158.945  14
 -15  -8   4 320.671 213.627  13
 -15  -8   4 315.622 214.479  17
 -15  -8  -5-159.676 160.050  14
 -15  -8   5-19.2267 183.779  13
 -15  -8   5 214.886 190.314  17
 -15  -8  -6 44.8171 138.649  14
 -15  -8   6 25.9727 182.040  13
  15  -8  -6-112.705 172.319   4
 -15  -8   6-34.1462 171.345  17
 -15  -8   7 430.675 195.621  13
  15  -8  -7 422.956 191.005   4
 -15  -8   7 481.768 182.979  17
 -15  -8  -7 243.193 139.467  14
 -15  -8   8 137.333 154.577  13
 -15  -9   0-35.3188 152.041  14
 -15  -9   1 297.936 184.816  17
 -15  -9   1 133.486 156.663  14
 -15  -9  -1 242.368 160.538  14
 -15  -9   2 810.755 233.711  13
 -15  -9   2 520.259 212.843  17
 -15  -9   2 754.847 197.149  14
 -15  -9  -2 915.456 207.234  14
 -15  -9   3 722.432 226.150  13
 -15  -9   3 762.851 235.752  17
 -15  -9  -3 613.506 191.309  14
 -15  -9   4 1822.53 288.778  13
 -15  -9   4 1413.74 288.017  17
 -15  -9  -4 1329.82 244.071  14
 -15  -9   5 495.622 201.116  13
 -15  -9   5 224.899 180.131  17
 -15  -9  -5 524.674 180.220  14
 -15  -9   6 228.989 177.233  13
 -15  -9   6 306.142 174.088  17
 -15 -10   0 113.387 138.241  14
 -15 -10   1 57.0012 130.992  14
 -15 -10  -1-189.230 147.860  14
 -15 -10   2 98.1501 175.762  13
 -15 -10   2 54.1894 137.501  14
 -15 -10  -2-89.9053 134.485  14
 -15 -10   3 67.5578 167.988  13
 -15 -10  -3 384.852 154.112  14
 -15 -10  -4 1091.22 195.451  14
 -16   0   0 7342.15 617.313  17
 -16   0  -1 127.923 249.759  17
 -16   0   1-59.3226 228.013  17
 -16   0  -2 710.807 289.511  17
 -16   0   2 894.981 298.465  17
 -16   0   3 40.3729 228.546  18
 -16   0  -3 235.835 249.979  17
 -16   0   3 87.2931 222.031  17
 -16   0   4 2250.80 390.386  18
 -16   0  -4 2369.09 382.003  17
 -16   0   4 2028.06 343.738  17
 -16   0   5-96.4355 212.563  18
 -16   0   5-9.60342 191.099  17
 -16   0   6 482.248 263.074  18
 -16   0   6 279.356 214.501  16
 -16   0   7-258.921 214.747  18
 -16   0   7-62.4910 210.902  16
 -16   0   8 289.769 198.998  18
 -16   0   8 388.497 216.947  16
 -16   0   9 65.8623 167.224  18
 -16   0   9 3.71652 174.121  16
 -16   0  10 1461.01 252.638  18
 -16   0  10 1623.37 267.270  16
 -16   1   0-40.1583 230.040  17
 -16  -1   0-42.2568 234.722  17
 -16   1  -1 821.579 268.725  17
 -16   1   1 1227.52 313.006  17
 -16  -1  -1 866.234 275.021  17
 -16  -1   1 1025.00 303.754  17
 -16  -1   2 1045.99 313.596  18
 -16   1  -2 1875.38 379.539  17
 -16  -1  -2 1097.00 302.010  17
 -16   1   2 796.128 271.906  17
 -16  -1   2 1320.65 320.203  17
 -16   1   3 171.820 225.934  18
 -16  -1   3 111.940 232.764  18
 -16   1  -3 60.1010 241.883  17
 -16  -1  -3 372.386 270.050  17
 -16   1   3 241.697 223.767  17
 -16  -1   3-75.7130 204.459  17
 -16   1   4 1231.66 322.605  18
 -16  -1   4 1151.34 313.624  18
 -16  -1  -4 934.465 295.349  17
 -16   1   4 953.053 283.670  17
 -16  -1   4 916.203 270.019  17
 -16   1   5-201.025 221.354  18
 -16  -1   5-135.925 223.992  18
 -16  -1   5 295.890 218.156  17
 -16   1   6 1589.50 339.326  18
 -16  -1   6 1559.50 342.191  18
 -16  -1   6 1288.95 282.812  17
 -16   1   6 1706.23 327.008  16
 -16   1   7 60.1587 199.127  18
 -16  -1   7-49.2659 207.519  18
 -16   1   7 306.825 206.926  16
 -16  -1   7-259.728 219.174  16
 -16   1   8 271.786 221.061  18
 -16  -1   8 301.355 188.414  18
 -16   1   8 366.566 217.311  16
 -16  -1   8 470.401 214.779  16
 -16   1   9 398.052 184.184  18
 -16  -1   9 716.656 227.458  18
  16  -1  -9 698.549 204.168   4
 -16   1   9 444.447 216.656  16
 -16  -1   9 602.405 231.223  16
 -16   1  10-94.5669 147.582  18
 -16  -1  10 167.500 162.447  18
 -16   1  10 21.8498 160.715  16
 -16  -1  10 77.5896 163.854  16
 -16   2   0 2764.97 416.425  17
 -16  -2   0 2963.28 410.941  17
 -16   2  -1-56.4993 236.289  17
 -16   2   1 69.9702 228.881  17
 -16  -2  -1 122.829 222.797  17
 -16  -2   1 228.547 240.693  17
 -16   2  -2 404.076 266.608  17
 -16   2   2-5.29458 225.779  17
 -16  -2  -2 301.516 238.899  17
 -16  -2   2 120.460 220.999  17
 -16  -2   3 6662.34 581.593  18
 -16   2   3 6275.80 561.039  17
 -16  -2  -3 6289.35 561.418  17
 -16  -2   3 5641.66 532.486  17
 -16   2   4 748.214 293.199  18
 -16  -2   4 1041.83 298.723  18
 -16  -2  -4 784.983 279.078  17
 -16  -2   4 804.032 282.019  17
 -16  -2   5 1022.81 253.024  13
 -16   2   5 1361.32 328.797  18
 -16  -2   5 650.888 258.217  18
 -16  -2  -5 805.525 268.926  17
 -16  -2   5 1162.36 285.085  17
 -16   2   6 364.799 233.407  18
 -16  -2   6 465.766 242.722  18
 -16  -2   6 128.953 201.541  17
 -16   2   6 414.666 248.224  16
 -16   2   7 3531.68 417.110  18
 -16  -2   7 3222.78 389.346  18
 -16  -2   7 3332.98 369.913  17
 -16   2   7 3849.73 430.534  16
 -16  -2   7 3581.60 400.322  16
 -16   2   8 157.224 183.150  18
 -16  -2   8-78.2065 193.156  18
 -16   2   8 317.791 225.712  16
 -16  -2   8 22.4977 186.354  16
 -16   2   9-121.847 161.434  18
 -16  -2   9 32.0377 163.095  18
  16  -2  -9 48.0944 156.027   4
 -16   2   9 58.5254 177.809  16
 -16  -2   9-14.8437 183.108  16
 -16   3   0 212.135 226.346  17
 -16  -3   0 325.397 239.645  17
 -16   3   1 2953.03 413.810  17
 -16  -3  -1 2953.71 418.964  17
 -16  -3   1 2991.51 403.606  17
 -16   3   2 146.347 216.512  17
 -16  -3  -2-206.740 223.277  17
 -16  -3   2 163.119 227.494  17
 -16   3   3-246.351 236.910  17
 -16  -3  -3 432.900 252.253  17
 -16  -3   3 408.711 229.867  17
 -16  -3  -4 630.292 244.927  17
 -16  -3   4 675.159 256.822  17
 -16  -3   5 8.03921 190.331  13
 -16   3   5 64.8045 217.137  18
 -16  -3   5-332.227 241.027  18
 -16  -3   5 68.0015 180.945  17
 -16   3   5-124.416 255.809  16
 -16  -3   6 581.243 225.435  13
 -16   3   6 191.531 210.997  18
 -16  -3   6 190.892 207.865  18
 -16  -3   6 563.928 220.069  17
 -16   3   6 404.996 242.317  16
 -16  -3   7 30.6064 174.555  13
 -16   3   7 258.243 214.381  18
 -16  -3   7 34.0869 190.382  18
 -16  -3   7 289.716 174.313  17
 -16   3   7 131.649 214.045  16
 -16  -3   7 21.7750 191.849  16
 -16   3   8-34.7427 180.262  18
 -16  -3   8-317.364 205.982  18
  16  -3  -8-43.5623 156.714   4
 -16  -3   8 22.2431 149.291  17
 -16   3   8-210.099 210.436  16
 -16  -3   8 347.532 217.311  16
 -16   3   9 697.898 201.583  18
 -16  -3   9 582.645 218.504  18
  16  -3  -9 661.651 186.062   4
 -16   3   9 371.272 206.620  16
 -16  -3   9 783.676 224.995  16
 -16  -4   0 3236.29 404.905  17
 -16  -4  -1 352.575 238.772  17
 -16  -4   1 504.456 242.627  17
 -16  -4  -1 423.686 191.516  14
 -16  -4  -2 400.336 253.125  17
 -16  -4   2 708.715 270.900  17
 -16  -4  -2 291.455 197.872  14
 -16  -4  -3 2201.45 369.335  17
 -16  -4   3 2394.06 372.493  17
 -16  -4   4 951.557 259.829  17
 -16  -4   5 238.750 192.517  13
 -16  -4   5 305.297 188.395  17
 -16  -4   6-64.0813 179.963  13
 -16  -4   6 264.600 189.409  17
 -16  -4   7 1529.28 269.693  13
  16  -4  -7 1999.54 282.809   4
 -16  -4   7 1146.59 245.195  17
 -16  -4   8 201.218 177.631  13
 -16  -4   8 527.095 200.287  18
  16  -4  -8 397.503 179.357   4
 -16  -4   8 445.425 176.510  17
 -16  -4   8 408.350 204.794  16
  16  -4  -9 259.493 166.503   4
 -16  -5   0 317.982 242.136  17
 -16  -5   0 517.377 212.080  14
 -16  -5  -1 23.9518 197.145  17
 -16  -5   1-0.81711 205.644  17
 -16  -5  -1-32.1537 158.729  14
 -16  -5  -2 854.812 275.893  17
 -16  -5   2 859.717 257.876  17
 -16  -5  -2 697.026 199.124  14
 -16  -5   3 86.7039 230.721  17
 -16  -5  -3 249.162 173.359  14
 -16  -5   4 851.586 236.077  13
 -16  -5   4 1005.20 266.057  17
 -16  -5   5-82.5536 175.073  13
  16  -5  -5-148.541 184.789   4
 -16  -5   5-37.0962 170.941  17
 -16  -5   6 1040.13 244.088  13
  16  -5  -6 1400.98 252.481   4
 -16  -5   6 1053.75 240.920  17
 -16  -5   7-101.448 180.874  13
  16  -5  -7 159.681 165.880   4
 -16  -5   7-167.634 162.994  17
 -16  -5   8 557.341 188.749  13
  16  -5  -8 596.781 187.173   4
 -16  -5   8 652.916 198.115  17
 -16  -6   0 4650.57 482.628  17
 -16  -6   0 4916.17 408.707  14
 -16  -6  -1 99.6250 187.026  17
 -16  -6   1-170.422 196.260  17
 -16  -6   1 191.293 175.390  14
 -16  -6  -1 206.954 163.486  14
 -16  -6   2 619.637 263.315  17
 -16  -6  -2 842.245 216.247  14
 -16  -6   3 1595.28 302.182  17
 -16  -6  -3 1654.89 259.590  14
 -16  -6   4 171.176 175.176  13
  16  -6  -4 357.611 182.544   4
 -16  -6   4 589.724 214.874  17
 -16  -6  -4 394.937 157.317  14
 -16  -6   5-52.7464 160.974  13
  16  -6  -5 50.3005 169.442   4
 -16  -6   5-24.4023 174.308  17
 -16  -6   6-218.217 173.610  13
  16  -6  -6-272.075 189.471   4
 -16  -6   6-72.3361 161.072  17
 -16  -6   7 496.599 185.464  13
  16  -6  -7 431.479 178.834   4
 -16  -6   7 308.151 165.007  17
 -16  -7   0 395.121 218.315  17
 -16  -7   0 594.565 195.133  14
 -16  -7   1 543.198 216.637  17
 -16  -7   1 899.313 214.637  14
 -16  -7  -1 513.483 175.900  14
 -16  -7   2 273.004 207.259  17
 -16  -7  -2 326.850 156.684  14
 -16  -7   3 154.524 188.187  17
 -16  -7  -3 375.115 169.235  14
 -16  -7   4 215.778 171.156  13
 -16  -7   4 205.604 185.766  17
 -16  -7  -4 52.5535 132.362  14
 -16  -7   5-100.558 164.096  13
 -16  -7   5-39.1730 153.179  17
 -16  -7  -5-59.3661 143.090  14
 -16  -7   6 100.790 150.519  13
 -16  -7   6 28.8906 142.465  17
 -16  -8   0-42.4975 144.390  14
 -16  -8   1 137.639 169.539  17
 -16  -8   1-221.793 151.979  14
 -16  -8  -1 94.6867 140.574  14
 -16  -8   2-8.18582 160.239  17
 -16  -8  -2 103.935 133.258  14
 -16  -8   3 1315.06 231.634  13
 -16  -8   3 1431.83 267.768  17
 -16  -8  -3 1566.81 237.598  14
 -16  -8   4 402.816 182.437  17
 -16  -8  -4 269.847 149.484  14
 -16  -9   0 124.438 135.864  14
 -16  -9  -1 366.514 149.226  14
 -17   0   0-13.8075 202.305  17
 -17   0  -1 261.458 238.922  17
 -17   0   1 64.8165 197.179  17
 -17   0  -2 4843.30 486.187  17
 -17   0   2 4357.11 449.731  17
 -17   0   3-123.384 194.429  17
 -17   0   4 21.9739 171.569  17
 -17   0   5-351.006 223.594  18
 -17   0   5 9.77065 170.882  17
 -17   0   6-9.09501 184.881  18
 -17   0   7 160.646 177.375  18
 -17   1   0-282.455 244.157  17
 -17  -1   0-171.646 212.103  17
 -17   1  -1 6.07773 204.798  17
 -17   1   1 147.186 208.846  17
 -17  -1  -1 169.547 210.421  17
 -17  -1   1-27.8896 193.052  17
 -17  -1  -2 682.894 250.746  17
 -17   1   2 917.700 270.089  17
 -17  -1   2 689.021 248.987  17
 -17  -1  -3 298.506 222.484  17
 -17   1   3 137.461 209.574  17
 -17  -1   3 423.399 215.213  17
 -17   1   4 1187.80 271.335  17
 -17  -1   4 594.047 216.734  17
 -17  -1   5 317.179 216.078  18
 -17  -1   5 241.085 174.702  17
 -17   1   6 91.9585 170.826  18
 -17  -1   6 365.900 211.313  18
 -17  -1   6-117.659 153.524  17
 -17   1   7-209.337 183.369  18
 -17  -1   7 23.7891 160.687  18
 -17   2   0-274.538 217.023  17
 -17  -2   0-119.090 203.424  17
 -17   2   1 298.915 204.022  17
 -17  -2  -1 286.817 221.296  17
 -17  -2   1 572.784 242.458  17
 -17   2   2 922.338 273.149  17
 -17  -2  -2 1064.35 271.800  17
 -17  -2   2 1224.11 270.175  17
 -17   2   3-237.514 218.584  17
 -17  -2  -3 79.9383 208.168  17
 -17  -2   3-184.531 192.327  17
 -17  -2   4-100.518 174.265  17
 -17  -2   5 3902.57 405.896  18
 -17  -2   5 3309.36 359.301  17
 -17  -2   6 341.959 211.900  18
 -17  -2   6 69.8301 158.010  17
 -17  -3   0 81.9895 215.878  17
 -17  -3  -1 173.495 220.697  17
 -17  -3   1-34.0832 181.885  17
 -17  -3  -2 119.050 203.754  17
 -17  -3   2 374.951 216.878  17
 -17  -3  -3 841.273 255.832  17
 -17  -3   3 1280.72 268.561  17
 -17  -3  -4-151.894 181.348  17
 -17  -3   4 104.237 174.733  17
 -17  -3   5 1781.84 282.404  17
 -17  -3   6 331.548 184.013  17
  17  -3  -7-9.91032 141.588   4
 -17  -4   0 45.7416 183.630  17
 -17  -4  -1 296.999 199.007  17
 -17  -4   1 266.223 213.705  17
 -17  -4  -2 1981.22 320.294  17
 -17  -4   2 2039.78 314.252  17
 -17  -4  -3-157.456 190.183  17
 -17  -4   3-1.95539 164.689  17
 -17  -4   4 193.623 169.785  17
 -17  -4   5 837.837 221.309  17
  17  -4  -5 908.648 204.914   4
  17  -4  -6-107.006 151.792   4
 -17  -4   6 124.737 145.091  17
 -17  -5   0-46.3865 175.211  17
 -17  -5  -1 305.198 195.273  17
 -17  -5   1 112.357 185.462  17
 -17  -5  -2 1031.95 252.204  17
 -17  -5   2 1110.76 255.185  17
 -17  -5   3 217.304 179.964  17
  17  -5  -4 1197.61 214.792   4
 -17  -5   4 633.558 196.420  17
 -17  -5   5 124.497 145.435  17
 -17  -6   0-75.2848 165.127  17
 -17  -6  -1 172.777 189.919  17
 -17  -6   1 132.511 176.736  17
 -17  -6   2 901.398 218.801  17
 -17  -6   3-19.5743 147.141  17
 -18   0   0 213.849 169.986  17
 -18   0   1-68.1496 173.225  17
 -18   0   2 369.562 177.473  17
 -18   0   3-38.5855 164.021  17
 -18  -1   0 492.766 187.373  17
 -18  -1  -1 161.282 172.893  17
 -18  -1   1-66.8025 178.284  17
 -18   1   2 185.173 164.325  17
 -18  -1   2 244.932 180.946  17
 -18  -1   3 44.3449 153.521  17
 -18  -2   0 151.072 171.463  17
 -18  -2  -1 1388.96 263.649  17
 -18  -2   1 1704.77 281.283  17
 -18  -2  -2-28.0977 178.241  17
 -18  -2   2 323.788 182.895  17
 -18  -2   3 196.760 154.127  17
 -18  -3   0 26.7581 161.485  17
 -18  -3  -1 516.496 194.709  17
 -18  -3   1 565.644 205.735  17
 -18  -3   2 4.46605 141.219  17
   0   0   0    0.00    0.00   0
TITL exp_564_JW_3 in Pbca
REM Pbca (#61 in standard setting)
CELL 1.54184  15.696957  15.969389  17.928180  90.0000  90.0000  90.0000
ZERR   20.00   0.000822   0.001031   0.001555   0.0000   0.0000   0.0000
LATT  1
SYMM -x+1/2,-y, z+1/2
SYMM -x, y+1/2,-z+1/2
SYMM  x+1/2,-y+1/2,-z
SFAC C H N F Zn
UNIT 150.00 127.60 80.00 7.60 20.00
TREF
HKLF 4
END
;
_shelx_hkl_checksum              57585
loop_
_space_group_symop_operation_xyz
'x, y, z'
'-x+1/2, -y, z+1/2'
'-x, y+1/2, -z+1/2'
'x+1/2, -y+1/2, -z'
'-x, -y, -z'
'x-1/2, y, -z-1/2'
'x, -y-1/2, z-1/2'
'-x-1/2, y-1/2, z'
loop_
_atom_site_label
_atom_site_type_symbol
_atom_site_fract_x
_atom_site_fract_y
_atom_site_fract_z
_atom_site_U_iso_or_equiv
_atom_site_adp_type
_atom_site_occupancy
_atom_site_site_symmetry_order
_atom_site_calc_flag
_atom_site_refinement_flags_posn
_atom_site_refinement_flags_adp
_atom_site_refinement_flags_occupancy
_atom_site_disorder_assembly
_atom_site_disorder_group
Zn1 Zn 0.30725(5) 0.35588(6) 0.09601(5) 0.0821(4) Uani 1 1 d . . . . .
Zn2 Zn 0.50575(5) 0.16039(6) 0.31335(5) 0.0796(3) Uani 1 1 d . . . . .
N2 N 0.4500(4) 0.1877(4) 0.2176(3) 0.0881(16) Uani 1 1 d . . . . .
N8 N 0.0706(3) 0.2575(3) 0.1466(3) 0.0853(16) Uani 1 1 d . . . . .
N7 N 0.1853(3) 0.3296(4) 0.1107(4) 0.0873(17) Uani 1 1 d . . . . .
N1 N 0.3739(4) 0.2598(4) 0.1357(3) 0.0844(15) Uani 1 1 d . . . . .
N4 N 0.4134(4) 0.5653(3) 0.1950(3) 0.0838(15) Uani 1 1 d . . . . .
N3 N 0.3389(4) 0.4546(4) 0.1561(4) 0.0875(16) Uani 1 1 d . . . . .
C6 C 0.3994(4) 0.5100(5) 0.1417(4) 0.088(2) Uani 1 1 d . . . . .
H6 H 0.429964 0.509921 0.097236 0.105 Uiso 1 1 calc R U . . .
C1 C 0.4171(4) 0.2589(5) 0.1990(4) 0.088(2) Uani 1 1 d . . . . .
H1 H 0.423486 0.306577 0.228367 0.105 Uiso 1 1 calc R U . . .
C5 C 0.3124(6) 0.4775(6) 0.2247(6) 0.135(4) Uani 1 1 d . . . . .
H5 H 0.268950 0.451606 0.251405 0.162 Uiso 1 1 calc R U . . .
C2 C 0.4247(8) 0.1365(6) 0.1625(6) 0.136(4) Uani 1 1 d . . . . .
H2 H 0.436074 0.079428 0.159996 0.164 Uiso 1 1 calc R U . . .
C14 C 0.1550(4) 0.2601(4) 0.1399(4) 0.0828(18) Uani 1 1 d . . . . .
H14 H 0.189890 0.216082 0.154750 0.099 Uiso 1 1 calc R U . . .
C4 C 0.3586(7) 0.5443(6) 0.2489(6) 0.130(3) Uani 1 1 d . . . . .
H4 H 0.353096 0.570710 0.294935 0.157 Uiso 1 1 calc R U . . .
C3 C 0.3799(7) 0.1808(6) 0.1107(5) 0.129(4) Uani 1 1 d . . . . .
H3 H 0.357672 0.160110 0.066316 0.155 Uiso 1 1 calc R U . . .
C15A C 0.0450(5) 0.3316(5) 0.1161(5) 0.1082(17) Uani 0.575(8) 1 d . . P A 1
H15A H -0.011224 0.349015 0.110718 0.130 Uiso 0.575(8) 1 calc R U P A 1
C16A C 0.1140(5) 0.3751(5) 0.0952(5) 0.1082(17) Uani 0.575(8) 1 d . . P A 1
H16A H 0.113385 0.427958 0.073515 0.130 Uiso 0.575(8) 1 calc R U P A 1
N6A N 0.4155(4) 0.3693(4) -0.1136(4) 0.0989(19) Uani 0.743(10) 1 d D . P B 1
N5A N 0.3389(4) 0.3749(4) -0.0092(4) 0.103(2) Uani 0.743(10) 1 d D . P B 1
C7A C 0.4103(7) 0.3539(8) -0.0421(7) 0.079(3) Uani 0.743(10) 1 d D . P B 1
H7A H 0.455028 0.329420 -0.016003 0.094 Uiso 0.743(10) 1 calc R U P B 1
C9A C 0.2899(9) 0.3919(14) -0.0705(11) 0.216(11) Uani 0.743(10) 1 d . . P B 1
H9A H 0.231868 0.403607 -0.068665 0.259 Uiso 0.743(10) 1 calc R U P B 1
C8A C 0.3350(8) 0.3896(13) -0.1323(8) 0.204(10) Uani 0.743(10) 1 d . . P B 1
H8A H 0.314946 0.399995 -0.180167 0.245 Uiso 0.743(10) 1 calc R U P B 1
C15B C 0.0450(5) 0.3316(5) 0.1161(5) 0.1082(17) Uani 0.425(8) 1 d . . P A 2
C16B C 0.1140(5) 0.3751(5) 0.0952(5) 0.1082(17) Uani 0.425(8) 1 d . . P A 2
C17 C 0.1071(11) 0.4510(12) 0.0499(12) 0.1082(17) Uani 0.425(8) 1 d . . P A 2
H17 H 0.154798 0.479804 0.033057 0.130 Uiso 0.425(8) 1 calc R U P A 2
C19 C -0.0416(12) 0.4377(12) 0.0589(13) 0.1082(17) Uani 0.425(8) 1 d . . P A 2
C18 C 0.0199(11) 0.4791(12) 0.0327(13) 0.1082(17) Uani 0.425(8) 1 d . . P A 2
C20 C -0.0409(12) 0.3587(11) 0.0989(12) 0.1082(17) Uani 0.425(8) 1 d . . P A 2
H20 H -0.089636 0.329037 0.111940 0.130 Uiso 0.425(8) 1 calc R U P A 2
F2 F -0.1228(8) 0.4657(10) 0.0502(11) 0.188(7) Uani 0.425(8) 1 d . . P A 2
N5B N 0.3389(4) 0.3749(4) -0.0092(4) 0.103(2) Uani 0.257(10) 1 d . . P B 2
N6B N 0.4155(4) 0.3693(4) -0.1136(4) 0.0989(19) Uani 0.257(10) 1 d . . P B 2
C7B C 0.390(2) 0.341(3) -0.055(2) 0.079(14) Uiso 0.257(10) 1 d . . P B 2
H7B H 0.411684 0.289262 -0.041175 0.094 Uiso 0.257(10) 1 calc R U P B 2
C8B C 0.3813(13) 0.4635(17) -0.1082(17) 0.165(9) Uani 0.257(10) 1 d G . P B 2
C9B C 0.3335(16) 0.4669(18) -0.0430(16) 0.165(9) Uani 0.257(10) 1 d G . P B 2
C10 C 0.2949(15) 0.541(2) -0.0216(13) 0.165(9) Uani 0.257(10) 1 d G . P B 2
H10 H 0.262929 0.543694 0.021983 0.198 Uiso 0.257(10) 1 calc R U P B 2
C11 C 0.3040(16) 0.6126(18) -0.0655(17) 0.165(9) Uani 0.257(10) 1 d G . P B 2
H11 H 0.278199 0.662536 -0.051237 0.198 Uiso 0.257(10) 1 calc R U P B 2
C12 C 0.3518(18) 0.6093(18) -0.1307(16) 0.165(9) Uani 0.257(10) 1 d G . P B 2
C13 C 0.3905(14) 0.535(2) -0.1521(13) 0.165(9) Uani 0.257(10) 1 d G . P B 2
H13 H 0.422420 0.532458 -0.195692 0.198 Uiso 0.257(10) 1 calc R U P B 2
F1 F 0.3588(16) 0.6685(15) -0.1755(14) 0.165(9) Uani 0.257(10) 1 d . . P B 2
H18 H 0.021255 0.547853 0.006863 0.166 Uiso 0.425(8) 1 d . U P A 2
loop_
_atom_site_aniso_label
_atom_site_aniso_U_11
_atom_site_aniso_U_22
_atom_site_aniso_U_33
_atom_site_aniso_U_23
_atom_site_aniso_U_13
_atom_site_aniso_U_12
Zn1 0.0661(5) 0.0843(6) 0.0957(7) 0.0097(5) -0.0003(4) -0.0073(4)
Zn2 0.0654(5) 0.0825(6) 0.0908(7) 0.0009(5) -0.0087(4) -0.0006(4)
N2 0.093(4) 0.079(4) 0.092(4) 0.000(3) -0.015(3) 0.008(3)
N8 0.059(3) 0.084(4) 0.112(4) 0.008(3) 0.006(3) 0.000(3)
N7 0.063(3) 0.082(4) 0.116(5) 0.017(3) 0.005(3) -0.001(3)
N1 0.082(3) 0.083(4) 0.088(4) 0.002(3) -0.007(3) 0.002(3)
N4 0.078(3) 0.082(4) 0.092(4) -0.003(3) 0.006(3) -0.002(3)
N3 0.076(3) 0.080(4) 0.106(4) 0.002(3) 0.010(3) -0.004(3)
C6 0.087(5) 0.084(5) 0.092(5) 0.000(4) 0.015(4) -0.009(4)
C1 0.090(4) 0.081(5) 0.092(5) -0.007(4) -0.017(4) 0.002(4)
C5 0.130(7) 0.125(7) 0.150(9) -0.022(6) 0.065(7) -0.043(6)
C2 0.183(10) 0.082(5) 0.143(8) -0.023(6) -0.057(8) 0.023(6)
C14 0.071(4) 0.081(5) 0.097(5) 0.008(4) 0.002(4) 0.007(3)
C4 0.145(8) 0.127(7) 0.120(6) -0.037(6) 0.046(6) -0.038(7)
C3 0.176(10) 0.094(6) 0.117(7) -0.022(5) -0.060(7) 0.029(6)
C15A 0.077(3) 0.092(3) 0.156(5) 0.026(3) 0.004(3) 0.010(2)
C16A 0.077(3) 0.092(3) 0.156(5) 0.026(3) 0.004(3) 0.010(2)
N6A 0.075(4) 0.131(5) 0.091(4) 0.020(4) -0.002(3) 0.022(3)
N5A 0.071(3) 0.146(6) 0.091(4) 0.027(4) -0.001(3) 0.020(4)
C7A 0.054(5) 0.090(8) 0.092(8) 0.000(6) -0.028(6) 0.000(5)
C9A 0.080 0.38(3) 0.187(16) 0.087(19) 0.028(10) 0.097(11)
C8A 0.083 0.40(3) 0.127(11) 0.107(15) 0.030(8) 0.114(10)
C15B 0.077(3) 0.092(3) 0.156(5) 0.026(3) 0.004(3) 0.010(2)
C16B 0.077(3) 0.092(3) 0.156(5) 0.026(3) 0.004(3) 0.010(2)
C17 0.077(3) 0.092(3) 0.156(5) 0.026(3) 0.004(3) 0.010(2)
C19 0.077(3) 0.092(3) 0.156(5) 0.026(3) 0.004(3) 0.010(2)
C18 0.077(3) 0.092(3) 0.156(5) 0.026(3) 0.004(3) 0.010(2)
C20 0.077(3) 0.092(3) 0.156(5) 0.026(3) 0.004(3) 0.010(2)
F2 0.110 0.184(14) 0.271(19) 0.023(14) -0.020(11) 0.048(9)
N5B 0.071(3) 0.146(6) 0.091(4) 0.027(4) -0.001(3) 0.020(4)
N6B 0.075(4) 0.131(5) 0.091(4) 0.020(4) -0.002(3) 0.022(3)
C8B 0.167(15) 0.165(15) 0.164(15) 0.057(11) -0.016(11) -0.026(11)
C9B 0.167(15) 0.165(15) 0.164(15) 0.057(11) -0.016(11) -0.026(11)
C10 0.167(15) 0.165(15) 0.164(15) 0.057(11) -0.016(11) -0.026(11)
C11 0.167(15) 0.165(15) 0.164(15) 0.057(11) -0.016(11) -0.026(11)
C12 0.167(15) 0.165(15) 0.164(15) 0.057(11) -0.016(11) -0.026(11)
C13 0.167(15) 0.165(15) 0.164(15) 0.057(11) -0.016(11) -0.026(11)
F1 0.167(15) 0.165(15) 0.164(15) 0.057(11) -0.016(11) -0.026(11)
loop_
_atom_type_symbol
_atom_type_description
_atom_type_scat_dispersion_real
_atom_type_scat_dispersion_imag
_atom_type_scat_source
C C 0.0181 0.0091 'International Tables Vol C Tables 4.2.6.8 and 6.1.1.4'
H H 0.0000 0.0000 'International Tables Vol C Tables 4.2.6.8 and 6.1.1.4'
N N 0.0311 0.0180 'International Tables Vol C Tables 4.2.6.8 and 6.1.1.4'
F F 0.0727 0.0534 'International Tables Vol C Tables 4.2.6.8 and 6.1.1.4'
Zn Zn -1.5491 0.6778 'International Tables Vol C Tables 4.2.6.8 and 6.1.1.4'
O O 0.0492 0.0322 'International Tables Vol C Tables 4.2.6.8 and 6.1.1.4'
loop_
_geom_angle_atom_site_label_1
_geom_angle_atom_site_label_2
_geom_angle_atom_site_label_3
_geom_angle
_geom_angle_site_symmetry_1
_geom_angle_site_symmetry_3
N3 Zn1 N5B 109.6(3) . .
N3 Zn1 N5A 109.6(3) . .
N3 Zn1 N7 109.9(3) . .
N5B Zn1 N7 113.8(3) . .
N5A Zn1 N7 113.8(3) . .
N3 Zn1 N1 106.8(2) . .
N5B Zn1 N1 109.1(3) . .
N5A Zn1 N1 109.1(3) . .
N7 Zn1 N1 107.3(2) . .
N2 Zn2 N4 112.7(3) . 3_645
N2 Zn2 N6A 108.0(3) . 7_566
N4 Zn2 N6A 108.9(3) 3_645 7_566
N2 Zn2 N8 111.6(3) . 6_656
N4 Zn2 N8 107.2(2) 3_645 6_656
N6A Zn2 N8 108.3(2) 7_566 6_656
C1 N2 C2 103.2(7) . .
C1 N2 Zn2 126.5(5) . .
C2 N2 Zn2 129.5(6) . .
C14 N8 C15B 103.4(6) . .
C14 N8 C15A 103.4(6) . .
C14 N8 Zn2 124.5(5) . 6_556
C15A N8 Zn2 132.0(5) . 6_556
C14 N7 C16B 103.5(6) . .
C14 N7 C16A 103.5(6) . .
C14 N7 Zn1 125.6(5) . .
C16B N7 Zn1 130.9(5) . .
C16A N7 Zn1 130.9(5) . .
C1 N1 C3 103.9(6) . .
C1 N1 Zn1 125.8(5) . .
C3 N1 Zn1 130.0(5) . .
C6 N4 C4 104.4(6) . .
C6 N4 Zn2 124.3(5) . 3_655
C4 N4 Zn2 131.2(6) . 3_655
C6 N3 C5 102.6(7) . .
C6 N3 Zn1 127.5(5) . .
C5 N3 Zn1 129.5(5) . .
N4 C6 N3 115.2(6) . .
N2 C1 N1 115.7(7) . .
N3 C5 C4 109.8(7) . .
N2 C2 C3 109.7(8) . .
N7 C14 N8 114.9(6) . .
N4 C4 C5 108.0(8) . .
N1 C3 C2 107.3(8) . .
C16A C15A N8 108.8(7) . .
C15A C16A N7 109.3(7) . .
C7A N6A C8A 103.3(9) . .
C7A N6A Zn2 130.2(6) . 7_565
C8A N6A Zn2 124.3(8) . 7_565
C7A N5A C9A 99.8(10) . .
C7A N5A Zn1 127.4(7) . .
C9A N5A Zn1 131.0(8) . .
N6A C7A N5A 116.6(9) . .
C8A C9A N5A 111.5(11) . .
C9A C8A N6A 107.7(12) . .
C16B C15B N8 108.8(7) . .
C16B C15B C20 122.5(10) . .
N8 C15B C20 128.3(10) . .
C15B C16B N7 109.3(7) . .
C15B C16B C17 121.6(10) . .
N7 C16B C17 128.0(10) . .
C16B C17 C18 116.0(15) . .
C18 C19 F2 120.1(18) . .
C18 C19 C20 129.3(18) . .
F2 C19 C20 110.5(17) . .
C19 C18 C17 118.3(18) . .
C19 C18 C18 102(2) . 5_565
C17 C18 C18 134(2) . 5_565
C15B C20 C19 111.9(16) . .
C7B N5B C9B 100(3) . .
C7B N5B Zn1 135(2) . .
C9B N5B Zn1 119.5(14) . .
C7B N6B C8B 101(3) . .
N6B C7B N5B 128(4) . .
C9B C8B C13 120.0 . .
C9B C8B N6B 106(2) . .
C13 C8B N6B 134(2) . .
C8B C9B C10 120.0 . .
C8B C9B N5B 105(2) . .
C10 C9B N5B 135(2) . .
C11 C10 C9B 120.0 . .
C10 C11 C12 120.0 . .
F1 C12 C11 124(3) . .
F1 C12 C13 116(3) . .
C11 C12 C13 120.0 . .
C12 C13 C8B 120.0 . .
loop_
_geom_bond_atom_site_label_1
_geom_bond_atom_site_label_2
_geom_bond_distance
_geom_bond_site_symmetry_2
Zn1 N3 1.972(6) .
Zn1 N5B 1.974(6) .
Zn1 N5A 1.974(6) .
Zn1 N7 1.977(5) .
Zn1 N1 1.989(6) .
Zn2 N2 1.976(6) .
Zn2 N4 1.984(6) 3_645
Zn2 N6A 1.986(6) 7_566
Zn2 N8 1.990(5) 6_656
N2 C1 1.292(8) .
N2 C2 1.342(10) .
N8 C14 1.330(8) .
N8 C15B 1.363(9) .
N8 C15A 1.363(9) .
N7 C14 1.317(8) .
N7 C16B 1.362(9) .
N7 C16A 1.362(9) .
N1 C1 1.323(8) .
N1 C3 1.342(10) .
N4 C6 1.320(8) .
N4 C4 1.336(10) .
N3 C6 1.323(8) .
N3 C5 1.350(10) .
C5 C4 1.362(11) .
C2 C3 1.362(12) .
C15A C16A 1.341(11) .
N6A C7A 1.308(12) .
N6A C8A 1.346(12) .
N5A C7A 1.310(12) .
N5A C9A 1.369(17) .
C9A C8A 1.32(2) .
C15B C16B 1.341(11) .
C15B C20 1.45(2) .
C16B C17 1.463(19) .
C17 C18 1.47(2) .
C19 C18 1.26(2) .
C19 F2 1.36(2) .
C19 C20 1.45(2) .
C18 C18 1.49(4) 5_565
N5B C7B 1.27(4) .
N5B C9B 1.59(2) .
N6B C7B 1.21(4) .
N6B C8B 1.60(3) .
C8B C9B 1.3900 .
C8B C13 1.3900 .
C9B C10 1.3900 .
C10 C11 1.3900 .
C11 C12 1.3900 .
C12 F1 1.25(3) .
C12 C13 1.3900 .
