#------------------------------------------------------------------------------
#$Date: 2020-08-22 01:46:46 +0300 (Sat, 22 Aug 2020) $
#$Revision: 255517 $
#$URL: file:///home/coder/svn-repositories/cod/cif/4/13/51/4135164.cif $
#------------------------------------------------------------------------------
#
# This file is available in the Crystallography Open Database (COD),
# http://www.crystallography.net/
#
# All data on this site have been placed in the public domain by the
# contributors.
#
data_4135164
loop_
_publ_author_name
'Yan, Yong'
'Carrington, Elliot J.'
'P\'etuya, R\'emi'
'Whitehead, George F. S.'
'Verma, Ajay'
'Hylton, Rebecca K.'
'Tang, Chiu C.'
'Berry, Neil G.'
'Darling, George R.'
'Dyer, Matthew S.'
'Antypov, Dmytro'
'Katsoulidis, Alexandros P.'
'Rosseinsky, Matthew J.'
_publ_section_title
;
 Amino Acid Residues Determine the Response of Flexible Metal-Organic
 Frameworks to Guests.
;
_journal_name_full               'Journal of the American Chemical Society'
_journal_paper_doi               10.1021/jacs.0c03853
_journal_year                    2020
_chemical_formula_moiety         'C6 H5 N3 O3 Zn, 0.79(C3 H7 N O)'
_chemical_formula_sum            'C8.38 H10.55 N3.79 O3.79 Zn'
_chemical_formula_weight         290.48
_space_group_crystal_system      trigonal
_space_group_IT_number           161
_space_group_name_Hall           'R 3 -2"c'
_space_group_name_H-M_alt        'R 3 c :H'
_atom_sites_solution_hydrogens   geom
_atom_sites_solution_primary     direct
_audit_creation_date             2018-06-20
_audit_creation_method
;
Olex2 1.2
(compiled 2018.05.29 svn.r3508 for OlexSys, GUI svn.r5506)
;
_cell_angle_alpha                90
_cell_angle_beta                 90
_cell_angle_gamma                120
_cell_formula_units_Z            18
_cell_length_a                   28.7263(9)
_cell_length_b                   28.7263(9)
_cell_length_c                   10.1348(4)
_cell_measurement_reflns_used    11779
_cell_measurement_temperature    100
_cell_measurement_theta_max      26.3610
_cell_measurement_theta_min      2.4480
_cell_volume                     7242.8(4)
_computing_cell_refinement       'CrysAlisPro 1.171.38.46 (Rigaku OD, 2015)'
_computing_data_collection       'CrysAlisPro 1.171.38.46 (Rigaku OD, 2015)'
_computing_data_reduction        'CrysAlisPro 1.171.38.46 (Rigaku OD, 2015)'
_computing_molecular_graphics    'Olex2 (Dolomanov et al., 2009)'
_computing_publication_material  'Olex2 (Dolomanov et al., 2009)'
_computing_structure_refinement  'ShelXL (Sheldrick, 2015)'
_computing_structure_solution    'ShelXS (Sheldrick, 2008)'
_diffrn_ambient_temperature      100
_diffrn_detector                 'CCD plate'
_diffrn_measured_fraction_theta_full 0.999
_diffrn_measured_fraction_theta_max 0.999
_diffrn_measurement_details
;
List of Runs (angles in degrees, time in seconds):

  # Type    Start    End  Width  t~exp~   \w     \q     \k     \f   Frames
--------------------------------------------------------------------------
  1  \w   -110.00  15.00   1.00   10.00    --  -20.00 -68.00   0.00  125
  2  \w   -110.00  15.00   1.00   10.00    --  -20.00 -68.00 120.00  125
  3  \w   -110.00  15.00   1.00   10.00    --  -20.00 -68.00 240.00  125
  4  \w   -110.00  15.00   1.00   10.00    --  -20.00 -30.00  90.00  125
;
_diffrn_measurement_device       'abstract diffractometer'
_diffrn_measurement_device_type
'Rigaku Mo Rotating Anode Source With Saturn Detector'
_diffrn_measurement_method       '\w scans'
_diffrn_orient_matrix_type
'CrysAlisPro convention (1999,Acta A55,543-557)'
_diffrn_orient_matrix_UB_11      -0.0156435000
_diffrn_orient_matrix_UB_12      0.0120779000
_diffrn_orient_matrix_UB_13      0.0157014000
_diffrn_orient_matrix_UB_21      -0.0235509000
_diffrn_orient_matrix_UB_22      -0.0236690000
_diffrn_orient_matrix_UB_23      -0.0204015000
_diffrn_orient_matrix_UB_31      -0.0036891000
_diffrn_orient_matrix_UB_32      -0.0103449000
_diffrn_orient_matrix_UB_33      0.0650729000
_diffrn_radiation_monochromator  graphite
_diffrn_radiation_probe          x-ray
_diffrn_radiation_type           MoK\a
_diffrn_radiation_wavelength     0.71073
_diffrn_reflns_av_R_equivalents  0.0711
_diffrn_reflns_av_unetI/netI     0.0386
_diffrn_reflns_Laue_measured_fraction_full 0.999
_diffrn_reflns_Laue_measured_fraction_max 0.999
_diffrn_reflns_limit_h_max       35
_diffrn_reflns_limit_h_min       -35
_diffrn_reflns_limit_k_max       35
_diffrn_reflns_limit_k_min       -35
_diffrn_reflns_limit_l_max       10
_diffrn_reflns_limit_l_min       -12
_diffrn_reflns_number            27220
_diffrn_reflns_point_group_measured_fraction_full 0.964
_diffrn_reflns_point_group_measured_fraction_max 0.954
_diffrn_reflns_theta_full        25.242
_diffrn_reflns_theta_max         26.372
_diffrn_reflns_theta_min         2.456
_diffrn_source                   'fine-focus sealed X-ray tube'
_diffrn_source_type              'Enhance (Mo) X-ray Source'
_exptl_absorpt_coefficient_mu    1.531
_exptl_absorpt_correction_T_max  1.00000
_exptl_absorpt_correction_T_min  0.60492
_exptl_absorpt_correction_type   multi-scan
_exptl_absorpt_process_details
;
CrysAlisPro 1.171.38.46 (Rigaku Oxford Diffraction, 2015)
Empirical absorption correction using spherical harmonics,
 implemented in SCALE3 ABSPACK scaling algorithm.
;
_exptl_crystal_colour            white
_exptl_crystal_colour_primary    white
_exptl_crystal_density_diffrn    1.199
_exptl_crystal_description       needle
_exptl_crystal_F_000             2659
_exptl_crystal_preparation       'Stored in DMF'
_exptl_crystal_size_max          0.4
_exptl_crystal_size_mid          0.024
_exptl_crystal_size_min          0.022
_refine_diff_density_max         0.600
_refine_diff_density_min         -0.579
_refine_diff_density_rms         0.135
_refine_ls_abs_structure_details
;
 Flack x determined using 1157 quotients [(I+)-(I-)]/[(I+)+(I-)]
 (Parsons, Flack and Wagner, Acta Cryst. B69 (2013) 249-259).
;
_refine_ls_abs_structure_Flack   0.032(14)
_refine_ls_extinction_method     none
_refine_ls_goodness_of_fit_ref   1.101
_refine_ls_hydrogen_treatment    constr
_refine_ls_matrix_type           full
_refine_ls_number_parameters     141
_refine_ls_number_reflns         3145
_refine_ls_number_restraints     28
_refine_ls_restrained_S_all      1.102
_refine_ls_R_factor_all          0.0652
_refine_ls_R_factor_gt           0.0584
_refine_ls_shift/su_max          0.001
_refine_ls_shift/su_mean         0.000
_refine_ls_structure_factor_coef Fsqd
_refine_ls_weighting_details
'w=1/[\s^2^(Fo^2^)+(0.1130P)^2^+16.3576P] where P=(Fo^2^+2Fc^2^)/3'
_refine_ls_weighting_scheme      calc
_refine_ls_wR_factor_gt          0.1639
_refine_ls_wR_factor_ref         0.1689
_reflns_Friedel_coverage         0.900
_reflns_Friedel_fraction_full    0.928
_reflns_Friedel_fraction_max     0.909
_reflns_number_gt                2856
_reflns_number_total             3145
_reflns_threshold_expression     'I > 2\s(I)'
_cod_data_source_file            ZnGlyPyr_DMF_100K.cif
_cod_data_source_block           ZnGlyPyr_DMF_100K
_cod_original_cell_volume        7242.8(5)
_cod_original_sg_symbol_H-M      'R 3 c'
_cod_database_code               4135164
_shelx_shelxl_version_number     2014/7
_chemical_oxdiff_formula         'Zn C8 N3 O3 H8'
_shelx_space_group_comment
;
The symmetry employed for this shelxl refinement is uniquely defined
by the following loop, which should always be used as a source of
symmetry information in preference to the above space-group names.
They are only intended as comments.
;
_reflns_odcompleteness_completeness 99.83
_reflns_odcompleteness_iscentric 1
_reflns_odcompleteness_theta     26.32
_olex2_refinement_description
;
1. Fixed Uiso
 At 1.2 times of:
  All C(H) groups, All C(H,H) groups, All N(H) groups
 At 1.5 times of:
  All C(H,H,H) groups
2. Rigid bond restraints
 N1, N2, C3, C2, C1
 with sigma for 1-2 distances of 0.01 and sigma for 1-3 distances of 0.01
 C6, O2, O1
 with sigma for 1-2 distances of 0.01 and sigma for 1-3 distances of 0.01
3. Uiso/Uaniso restraints and constraints
N1 \\sim N2 \\sim C3 \\sim C2 \\sim C1: within 2A with sigma of 0.04 and sigma
for terminal atoms of 0.08
C6 \\sim O2 \\sim O1: within 2A with sigma of 0.04 and sigma for terminal atoms
of 0.08
C9A \\sim N4A \\sim C7A \\sim C8A: within 2A with sigma of 0.04 and sigma for
terminal atoms of 0.08
O4 \\sim C7: within 2A with sigma of 0.02 and sigma for terminal atoms of 0.04
C9A \\sim C8: within 2A with sigma of 0.01 and sigma for terminal atoms of 0.02
C8A \\sim C7: within 2A with sigma of 0.01 and sigma for terminal atoms of 0.02
4. Others
 Sof(O4)=Sof(C7)=Sof(H7)=Sof(N4)=Sof(C8)=Sof(H8A)=Sof(H8B)=Sof(H8C)=Sof(C9)=
 Sof(H9A)=Sof(H9B)=Sof(H9C)=Sof(C9A)=Sof(H9AA)=Sof(H9AB)=Sof(H9AC)=Sof(N4A)=
 Sof(C8A)=Sof(H8AA)=Sof(H8AB)=Sof(H8AC)=Sof(C7A)=Sof(H7A)=Sof(O4A)=0.5*FVAR(2)
5.a Free rotating group:
 O4(C7,N4,C8,C9), C9A(N4A,C8A,C7A,O4A)
5.b Secondary CH2 refined with riding coordinates:
 C5(H5A,H5B)
5.c Me refined with riding coordinates:
 C8(H8A,H8B,H8C), C9(H9A,H9B,H9C), C9A(H9AA,H9AB,H9AC), C8A(H8AA,H8AB,H8AC)
5.d Aromatic/amide H refined with riding coordinates:
 N3(H3), C2(H2), C1(H1), C7(H7), C7A(H7A)
;
_shelx_res_file
;
    yy_zn_gly_pyr_dmf.res created by SHELXL-2014/7

TITL YY_Zn_Gly_Pyr_DMF in R3c #161
REM reset to R3c #161
CELL 0.71073 28.726335 28.726335 10.134804 90 90 120
ZERR 18 0.000876 0.000876 0.000353 0 0 0
LATT -3
SYMM -Y,+X-Y,+Z
SYMM +Y-X,-X,+Z
SYMM +Y-X,+Y,0.5+Z
SYMM +X,+X-Y,0.5+Z
SYMM -Y,-X,0.5+Z
SFAC C H N O Zn
UNIT 150.83 189.94 68.28 68.28 18
DELU N1 N2 C3 > C1
DELU C6 O2 O1
SIMU N1 N2 C3 > C1
SIMU C6 O2 O1
SIMU C9A N4A C7A C8A
SIMU 0.02 0.04 2 O4 C7
SIMU 0.01 0.02 2 C9A C8
SIMU 0.01 0.02 2 C8A C7

L.S. 16
PLAN  20
TEMP -173.15
BOND
fmap 2
acta
REM <olex2.extras>
REM <HklSrc "%.\\YY_Zn_Gly_Pyr_DMF.hkl">
REM </olex2.extras>

WGHT    0.113000   16.357599
FVAR       0.83676   0.79313
ZN1   5    0.980195    0.337026    0.132200    11.00000    0.02722    0.03145 =
         0.01156    0.00110    0.00120    0.01546
N1    3    1.026259    0.307457    0.079619    11.00000    0.02888    0.04166 =
         0.01687   -0.00305   -0.00144    0.02040
O3    4    0.790896    0.207289    0.068631    11.00000    0.05365    0.03630 =
         0.01832   -0.00012   -0.00402    0.00506
C6    1    0.902332    0.300660   -0.096061    11.00000    0.02894    0.02288 =
         0.01390    0.00407   -0.00071    0.01023
O2    4    0.932456    0.333867   -0.009776    11.00000    0.03620    0.02764 =
         0.02240   -0.00468   -0.00919    0.01559
N2    3    0.931680    0.303729    0.282208    11.00000    0.02526    0.02435 =
         0.01232   -0.00301   -0.00232    0.00797
C4    1    0.783161    0.196175   -0.050982    11.00000    0.02572    0.02970 =
         0.02341    0.00022   -0.00223    0.01094
N3    3    0.806932    0.233957   -0.144643    11.00000    0.03251    0.03098 =
         0.01335   -0.00138   -0.00640    0.01222
AFIX  43
H3    2    0.799068    0.225304   -0.228236    11.00000   -1.20000
AFIX   0
O1    4    1.027895    0.415789    0.153461    11.00000    0.03533    0.02188 =
         0.02596    0.00024   -0.01288    0.01022
C5    1    0.845990    0.289649   -0.108328    11.00000    0.02813    0.02651 =
         0.02278   -0.00003   -0.00198    0.01256
AFIX  23
H5A   2    0.834977    0.298062   -0.023153    11.00000   -1.20000
H5B   2    0.844956    0.314046   -0.175775    11.00000   -1.20000
AFIX   0
C3    1    0.747100    0.141260   -0.095371    11.00000    0.02777    0.02871 =
         0.02140   -0.00033   -0.00335    0.01054
C2    1    0.878070    0.270594    0.278758    11.00000    0.02870    0.02562 =
         0.01251   -0.00557   -0.00338    0.00779
AFIX  43
H2    2    0.856658    0.260806    0.201188    11.00000   -1.20000
AFIX   0
C1    1    1.056590    0.293735    0.150354    11.00000    0.04559    0.05798 =
         0.00983   -0.00486   -0.00453    0.03438
AFIX  43
H1    2    1.061206    0.298013    0.243236    11.00000   -1.20000
AFIX   6

PART -1
O4    4    0.932001    0.170311    0.390103    20.50000    0.13308
C7    1    0.936451    0.180971    0.273023    20.50000    0.05189
AFIX  43
H7    2    0.970634    0.208377    0.243170    20.50000   -1.20000
AFIX   5
N4    3    0.896891    0.157200    0.180773    20.50000    0.05180
C8    1    0.843461    0.114849    0.218144    20.50000    0.07405
AFIX  33
H8A   2    0.820333    0.102489    0.139901    20.50000   -1.50000
H8B   2    0.845750    0.084733    0.256454    20.50000   -1.50000
H8C   2    0.828271    0.128765    0.283276    20.50000   -1.50000
AFIX   5
C9    1    0.906220    0.172850    0.043003    20.50000    0.08718
AFIX  33
H9A   2    0.873069    0.151226   -0.007234    20.50000   -1.50000
H9B   2    0.917229    0.210986    0.034923    20.50000   -1.50000
H9C   2    0.934665    0.166914    0.008219    20.50000   -1.50000
AFIX   6
PART 0
PART -2
C9A   1    0.860192    0.087413    0.188302    20.50000    0.16349
AFIX  33
H9AA  2    0.874055    0.072924    0.255429    20.50000   -1.50000
H9AB  2    0.824668    0.080967    0.215084    20.50000   -1.50000
H9AC  2    0.857235    0.069611    0.103704    20.50000   -1.50000
AFIX   5
N4A   3    0.896627    0.144742    0.174519    20.50000    0.08397
C8A   1    0.944318    0.169238    0.257238    20.50000    0.11045
AFIX  33
H8AA  2    0.944745    0.141675    0.313368    20.50000   -1.50000
H8AB  2    0.976472    0.185602    0.201380    20.50000   -1.50000
H8AC  2    0.943906    0.196960    0.312762    20.50000   -1.50000
AFIX   5
C7A   1    0.886972    0.175065    0.087429    20.50000    0.11924
AFIX  43
H7A   2    0.855192    0.156993    0.035825    20.50000   -1.20000
AFIX   5
O4A   4    0.915346    0.223184    0.069727    20.50000    0.12568
AFIX   0
HKLF 4

REM  YY_Zn_Gly_Pyr_DMF in R3c #161
REM R1 =  0.0584 for    2856 Fo > 4sig(Fo)  and  0.0652 for all    3145 data
REM    141 parameters refined using     28 restraints

END

WGHT      0.1129     16.3646

REM Highest difference peak  0.600,  deepest hole -0.579,  1-sigma level  0.135
Q1    1   0.8510  0.1397  0.1413  11.00000  0.05    0.60
Q2    1   0.9451  0.1512  0.3615  11.00000  0.05    0.59
Q3    1   0.9897  0.0966  0.0318  11.00000  0.05    0.58
Q4    1   1.0082  0.1230 -0.0491  11.00000  0.05    0.58
Q5    1   0.9070  0.0199  0.1452  11.00000  0.05    0.55
Q6    1   0.9563  0.1029  0.4507  11.00000  0.05    0.51
Q7    1   0.9289  0.0482  0.0041  11.00000  0.05    0.51
Q8    1   0.9694  0.1561  0.3136  11.00000  0.05    0.50
Q9    1   0.9294  0.0512  0.0808  11.00000  0.05    0.50
Q10   1   1.0114  0.1116  0.1672  11.00000  0.05    0.50
Q11   1   0.7530  0.1197 -0.0536  11.00000  0.05    0.50
Q12   1   0.8941  0.1363  0.2246  11.00000  0.05    0.49
Q13   1   0.7521  0.1320 -0.1526  11.00000  0.05    0.46
Q14   1   0.7280  0.1261 -0.0686  11.00000  0.05    0.44
Q15   1   0.7722  0.1560 -0.0843  11.00000  0.05    0.44
Q16   1   0.7264  0.1944  0.0557  11.00000  0.05    0.43
Q17   1   1.0331  0.1074  0.1417  11.00000  0.05    0.41
Q18   1   0.7407  0.1438 -0.1461  11.00000  0.05    0.40
Q19   1   0.9959  0.3209  0.1847  11.00000  0.05    0.40
Q20   1   0.7064  0.2645 -0.1799  11.00000  0.05    0.40
;
_shelx_res_checksum              9639
_shelx_hkl_file
;
   0   0 -12 18420.8 1445.65   1
   0   0 -12 18343.5 1403.60   2
   0   0  -9 688.640 409.045   1
   0   0  -9 722.627 561.860   3
   0   0  -6 77042.2 1948.59   1
   0   0  -6 81004.4 2266.52   3
   0   0  -3 105.406 83.7576   4
   0   0  -3 125.198 217.562   1
   0   0   3 138.433 200.597   1
   0   0   6 82409.5 2061.87   1
  -1   0 -10-47.0432 554.430   3
   1  -1 -10-52.8248 653.242   3
   0   1 -10 784.940 668.978   3
  -1   0 -10 151.020 477.065   1
   0   1 -10-257.170 430.638   1
   1  -1 -10 513.077 469.655   1
  -1   0  -7 48.2972 126.652   4
  -1   0  -7 274.594 314.446   1
  -1   0  -7 8.26037 403.223   3
   1  -1  -7 278.327 354.162   1
   1  -1  -7 492.333 431.390   3
   1  -1  -7-292.265 270.597   2
   0   1  -7-329.704 330.096   1
   0   1  -7 247.873 389.185   3
  -1   0  -7-12.4670 249.746   2
   0   1  -4 3530.86 401.758   1
   1  -1  -4 4380.31 456.175   1
  -1   0  -4 3514.01 483.148   3
   1  -1  -4 3444.39 187.910   4
  -1   0  -4 4615.26 399.324   1
  -1   0  -4 4224.52 274.159   4
   0   1  -4 3790.37 202.540   4
   1  -1  -1 17.9285 110.194   1
  -1   0  -1-66.8811 111.778   3
  -1   0   2 24140.9 719.131   1
   0   1   2 23073.3 452.048   4
   0   1   2 23144.9 620.331   1
   0   1   5-97.2598 277.296   1
  -1   0   5 40.6199 279.062   1
   0  -1 -11-508.895 455.026   1
   1   0 -11-61.9404 418.263   2
  -1   1 -11-246.094 474.564   1
  -1   1 -11 280.127 618.398   3
   1   0 -11-967.477 712.830   3
   0  -1 -11 1199.38 791.688   3
   1   0 -11-92.6992 501.137   1
   1   0  -8 1721.45 648.795   3
   1   0  -8 1411.19 423.395   2
   0  -1  -8 1993.16 670.937   3
  -1   1  -8 528.322 118.497   4
  -1   1  -8 2334.36 597.941   3
  -1   1  -8 1328.10 455.191   1
   1   0  -8 1790.18 492.328   1
  -1   1  -8 803.602 113.250   4
   0  -1  -8 1718.00 505.786   1
  -1   1  -5-254.716 330.032   3
   0  -1  -5-469.097 332.309   3
   0  -1  -5 206.504 118.088   4
  -1   1  -5-45.6421 264.862   1
   0  -1  -5-75.7306 284.368   1
   0  -1  -5-271.608 220.066   2
  -1   1  -5 304.010 131.937   4
   1   0  -5 365.759 350.400   1
   0  -1  -2 21952.5 596.794   1
   0  -1  -2 22679.0 452.273   4
  -1   1  -2 22404.1 691.861   3
   0  -1  -2 20686.6 563.303   2
  -1   1  -2 22195.1 581.500   1
   1   0  -2 20519.9 670.774   1
  -1   1   1 30.1216 107.822   1
   1   0   1 29.5545 112.978   3
  -1   1   4 4196.76 454.538   1
   1   0   4 4296.62 412.230   1
  -1   1   7-10.5482 367.584   1
   0   2 -11 564.490 483.180   2
  -2   0 -11 518.805 599.747   3
   0   2 -11 503.262 522.342   1
   2  -2 -11 513.736 549.387   1
   2  -2 -11-562.545 756.503   3
  -2   0 -11 254.047 470.657   1
   0   2 -11 1102.16 676.581   3
  -2   0  -8 5750.96 649.997   1
   2  -2  -8 5793.71 902.894   3
  -2   0  -8 5051.75 384.830   4
   0   2  -8 6477.15 861.754   3
   2  -2  -8 5289.24 717.810   1
  -2   0  -8 5374.45 800.931   3
   0   2  -8 5633.66 760.001   1
   2  -2  -8 4464.28 565.620   2
   2  -2  -5-473.237 356.551   1
  -2   0  -5-273.532 393.555   3
   2  -2  -5-75.9412 168.975   2
  -2   0  -5 39.6053 149.205   4
   0   2  -5 29.7277 69.0758   4
  -2   0  -5 55.2482 234.713   1
   0   2  -5-271.506 281.010   1
   0   2  -5-14.4265 69.4986   4
   2  -2  -2 8408.88 290.920   2
  -2   0  -2 8122.52 353.331   4
   2  -2  -2 8574.85 464.430   1
  -2   0  -2 7613.23 287.113   1
  -2   0  -2 7809.47 473.797   3
   0   2  -2 7665.48 265.241   4
   2  -2   1 0.17128 102.033   3
   0   2   1-53.4015 86.9940   1
   0   2   1 10.2952 81.1156   2
  -2   0   1-51.6801 132.889   1
   0   2   1-60.9715 104.687   4
   0   2   4 10119.1 427.101   4
  -2   0   4 9873.34 706.831   1
   0   2   4 10175.1 636.464   1
   0   2   7-45.6245 337.937   1
   1  -2 -12 6760.52 1258.18   3
   1   1 -12 6853.16 1248.54   3
  -1  -1 -12 2558.54 702.699   1
   1   1 -12 3696.76 718.959   2
  -2   1 -12 5327.10 1078.28   3
  -2   1 -12 3517.25 790.490   1
   2  -1 -12 3200.16 814.051   1
   2  -1 -12 5147.98 1213.42   3
  -1   2 -12 4563.57 827.510   2
  -1   2 -12 4147.14 823.868   1
   1  -2 -12 5335.18 865.608   1
  -1   2 -12 5692.56 1145.28   3
   1   1 -12 3952.14 893.872   1
  -1  -1 -12 6933.86 1226.92   3
  -2   1  -9 24116.6 1608.63   3
   2  -1  -9 21453.3 1372.76   1
  -1   2  -9 19067.8 1443.92   3
   1   1  -9 21674.3 1535.32   3
  -1   2  -9 21891.2 1342.53   1
   1  -2  -9 23133.3 1629.08   3
   2  -1  -9 23825.8 1669.82   3
  -1  -1  -9 20265.8 1211.28   1
  -1  -1  -9 23566.9 1606.60   3
  -2   1  -9 22171.2 1277.31   1
   1   1  -9 20640.7 1369.89   1
   1  -2  -9 21808.4 1342.25   1
  -1   2  -6 27007.1 620.398   4
  -1   2  -6 26897.1 1187.15   1
  -1   2  -6 28642.5 1343.17   3
   1   1  -6 29330.3 1308.09   1
   2  -1  -6 30679.1 1303.21   1
   2  -1  -6 29303.5 1057.60   2
  -2   1  -6 28207.0 1131.19   1
  -1  -1  -6 27788.9 1371.10   3
   1  -2  -6 31289.6 1120.61   2
   1  -2  -6 27396.5 1187.06   1
  -1  -1  -6 31298.1 1212.80   2
   1  -2  -6 27813.8 641.572   4
  -1   2  -6 28584.8 665.203   4
  -2   1  -6 30339.3 817.248   4
  -1  -1  -6 29323.5 1144.09   1
  -1  -1  -6 29216.3 809.536   4
  -2   1  -6 28330.4 1351.69   3
   1  -2  -3 93610.1 1532.75   1
  -2   1  -3 91202.0 1710.27   3
  -1   2  -3 89891.4 1484.90   1
   1  -2  -3 93713.3 1354.83   2
   1  -2  -3 99439.3 1049.17   4
  -1  -1  -3 93772.7 1354.14   1
  -2   1  -3 93982.9 1190.98   4
  -1   2  -3 87920.7 1588.95   3
  -1  -1  -3 92098.2 1512.04   2
   2  -1  -3 86513.6 1657.21   1
  -1  -1  -3 86744.4 1727.64   3
  -1  -1  -3 98769.6 1245.82   4
   1   1  -3 92127.8 1652.15   1
  -2   1  -3 90521.5 1307.15   1
   1   1   3 97265.7 1217.93   4
  -2   1   3 102275. 1805.16   1
  -1   2   3 99196.8 1044.92   4
  -1  -1   3 103417. 1738.31   1
  -1   2   3 98924.3 1668.01   1
   1   1   3 99287.6 1437.54   1
  -1   2   6 29822.8 1307.48   1
   1   1   6 29394.6 1219.56   1
  -2   1   6 29329.9 1380.47   1
   0  -2 -10 4008.17 859.683   3
   2   0 -10 2831.20 656.312   1
  -2   2 -10 3465.99 667.779   1
   2   0 -10 3024.37 759.703   3
   0  -2 -10 2595.36 628.346   1
   2   0 -10 2163.26 562.345   2
  -2   2 -10 3165.65 788.036   3
   0  -2  -7-601.271 351.270   1
   0  -2  -7-75.9579 131.297   4
  -2   2  -7 115.336 424.542   3
  -2   2  -7 56.4413 126.417   4
   0  -2  -7 139.159 232.502   2
   0  -2  -7 415.376 501.611   3
   2   0  -7 647.897 382.350   1
  -2   2  -7 271.100 301.760   1
   2   0  -4 7528.17 636.636   1
   0  -2  -4 8178.88 514.792   2
  -2   2  -4 9223.23 412.607   4
  -2   2  -4 8320.49 649.917   3
  -2   2  -4 9880.70 572.596   1
   0  -2  -4 8575.61 564.431   1
   0  -2  -4 9340.47 414.746   4
   0  -2  -1 77.1021 93.1001   1
   0  -2  -1 3.24703 105.408   4
   2   0  -1 67.6839 145.003   1
  -2   2  -1 67.8380 104.032   3
   0  -2  -1-41.7639 105.674   2
   2   0   2 9134.68 528.015   3
   2   0   2 9294.33 388.986   4
   2   0   2 10079.0 325.095   1
  -2   2   2 10291.9 508.069   1
   2   0   5-363.527 300.470   1
  -2   2   5 371.328 341.741   1
  -3   0 -12 14916.5 1571.21   3
   3  -3 -12 11355.3 1196.10   1
   0   3 -12 9642.66 1117.30   2
   3  -3 -12 14172.5 1636.78   3
   0   3 -12 10549.8 1232.33   1
   0   3 -12 17573.2 1691.60   3
   0   3  -9 747.148 428.178   1
   0   3  -9 412.399 432.322   2
   3  -3  -9 850.817 524.814   3
   3  -3  -9 400.286 500.983   1
  -3   0  -9 741.763 509.980   3
  -3   0  -9-130.308 188.384   4
   0   3  -9-101.729 463.008   3
  -3   0  -9 208.011 341.475   1
   0   3  -6 167820. 3019.93   1
  -3   0  -6 166030. 2961.71   2
  -3   0  -6 163001. 2418.12   1
  -3   0  -6 171386. 2235.04   4
  -3   0  -6 164065. 3263.72   3
   3  -3  -6 156963. 2916.19   1
   3  -3  -6 175601. 2443.09   2
   0   3  -6 161917. 3059.13   3
   0   3  -3 314.076 218.280   2
  -3   0  -3 430.286 199.067   4
   3  -3  -3 242.220 109.899   4
   0   3  -3 236.586 231.931   1
   3  -3  -3 237.796 104.607   2
  -3   0  -3 23.9090 323.262   3
  -3   0  -3 324.883 145.832   1
   0   3  -3 311.492 127.063   4
  -3   0  -3 291.422 232.990   2
   3  -3  -3 187.557 296.778   1
   3  -3   0 210040. 1455.45   1
   0   3   0 213520. 1418.80   1
  -3   0   0 216021. 1309.10   3
   0   3   0 208061. 1525.30   2
  -3   0   0 209801. 1431.36   2
  -3   0   0 214939. 1624.26   4
  -3   0   0 214651. 1463.18   1
   0   3   0 208473. 1646.58   4
   0   3   3 434.379 236.352   1
   0   3   3 325.159 229.271   2
   0   3   3 112.010 179.994   4
   3  -3   3 214.826 263.176   3
  -3   0   3 250.476 274.501   1
  -3   0   6 100155. 2504.28   1
   0   3   6 102026. 2300.13   1
   2  -3 -10 317.091 472.791   1
  -1   3 -10 27.8603 552.911   3
  -2  -1 -10 381.000 655.853   3
   1   2 -10 145.101 358.271   2
  -3   1 -10 363.428 405.391   1
  -3   1 -10 281.078 557.646   3
  -1   3 -10 382.063 527.468   1
   3  -2 -10 76.8599 677.089   3
   3  -2 -10 510.978 442.596   1
   1   2 -10 342.604 706.955   3
  -2  -1 -10 256.064 373.369   1
   1   2 -10 356.172 499.685   1
   2  -3 -10 86.2046 590.852   3
  -1   3 -10 155.758 442.066   2
  -2  -1  -7 13577.1 864.961   1
   3  -2  -7 14108.7 775.105   2
  -1   3  -7 11589.9 414.001   4
   2  -3  -7 14049.0 962.540   1
   1   2  -7 13459.7 1048.93   3
  -3   1  -7 14844.5 1122.14   3
   3  -2  -7 15118.0 1037.65   1
  -1   3  -7 14050.1 1052.99   3
  -1   3  -7 14729.2 987.014   1
  -2  -1  -7 12955.9 1075.09   3
  -1   3  -7 12023.7 418.135   4
   1   2  -7 15715.4 1046.83   1
  -3   1  -7 15110.9 670.544   4
   2  -3  -7 14036.9 817.561   2
  -2  -1  -7 14612.4 657.401   4
  -3   1  -7 12655.1 818.465   1
   1   2  -4 2430.80 388.524   1
   2  -3  -4 2758.74 223.108   4
   2  -3  -4 2295.29 362.393   1
  -2  -1  -4 2730.96 356.854   2
   3  -2  -4 2858.48 278.019   2
  -1   3  -4 2629.46 214.292   4
   3  -2  -4 2923.95 456.610   1
   2  -3  -4 3003.55 297.883   2
  -3   1  -4 2736.76 315.129   1
  -3   1  -4 2055.01 468.327   3
  -3   1  -4 2826.04 297.997   4
  -1   3  -4 2490.03 368.303   1
  -2  -1  -4 2805.12 302.207   1
  -2  -1  -4 2836.49 301.177   4
  -2  -1  -4 2781.75 492.254   3
  -1   3  -4 2881.63 441.398   3
  -2  -1  -1 4407.08 285.089   2
   2  -3  -1 3942.18 275.195   1
   1   2  -1 3799.77 235.978   2
  -2  -1  -1 4106.35 277.960   4
  -1   3  -1 4143.94 243.132   4
  -2  -1  -1 4041.07 275.153   3
   2  -3  -1 4227.00 240.659   4
   1   2  -1 3809.91 214.548   4
   2  -3  -1 3833.37 192.513   2
   3  -2  -1 3596.91 294.509   1
  -3   1  -1 3784.12 260.784   3
  -1   3  -1 4078.72 286.090   2
  -3   1   2 49494.9 1152.09   1
   1   2   2 47547.4 981.413   2
   1   2   2 48029.3 803.479   1
   1   2   2 47081.5 892.393   4
   3  -2   2 46298.8 1032.42   3
  -1   3   2 48875.8 972.937   1
  -1   3   2 48429.5 869.924   2
  -1   3   2 47826.6 813.553   4
   2  -3   2 48610.8 992.367   3
  -1   3   5 249.556 298.948   1
  -1   3   5 471.535 154.362   4
  -3   1   5 322.937 351.661   1
   1   2   5 287.503 275.227   1
   1   2   8 976.582 446.302   1
  -1  -2 -11-250.792 446.831   1
   1  -3 -11-110.324 475.845   1
  -2   3 -11-415.517 494.707   1
   3  -1 -11 226.483 391.346   2
   1  -3 -11 414.954 719.562   3
   3  -1 -11-458.240 695.702   3
  -1  -2 -11 387.065 698.656   3
   2   1 -11 45.1755 388.761   2
   3  -1 -11 285.301 615.760   1
  -3   2 -11-580.450 559.584   3
  -3   2 -11 861.274 560.867   1
   2   1 -11 353.060 633.376   3
   2   1 -11-302.679 592.717   1
  -2   3 -11 590.787 622.485   3
  -2   3 -11-357.049 461.640   2
   3  -1  -8 868.313 519.579   1
  -1  -2  -8 145.054 339.588   1
  -1  -2  -8 10.0385 494.689   3
  -1  -2  -8 491.624 177.037   4
  -2   3  -8 267.923 425.503   3
  -2   3  -8 588.802 148.139   4
  -3   2  -8 873.702 394.622   1
  -2   3  -8 308.207 130.562   4
  -3   2  -8 884.552 225.353   4
   3  -1  -8 609.803 307.026   2
   2   1  -8 917.870 496.246   1
   1  -3  -8 511.799 293.118   2
  -3   2  -8 495.193 469.010   3
  -2   3  -8 870.738 426.164   1
   2   1  -8 494.301 472.823   3
   1  -3  -8 1799.81 673.133   3
   1  -3  -8 368.493 351.285   1
   1  -3  -8 261.039 115.787   4
  -1  -2  -5 113.280 248.279   1
  -3   2  -5 416.723 178.829   4
   2   1  -5 664.701 341.866   1
  -3   2  -5 359.039 248.161   1
  -1  -2  -5 493.926 240.753   2
  -3   2  -5 397.312 377.695   3
  -1  -2  -5 115.377 164.096   4
  -1  -2  -5 350.809 396.339   3
   1  -3  -5 435.567 311.057   1
   3  -1  -5-234.003 358.544   1
  -2   3  -5 291.852 351.197   3
   1  -3  -5 435.051 203.141   2
   1  -3  -5 327.409 140.229   4
  -2   3  -5 405.257 285.798   1
   1  -3  -2 47653.8 812.185   4
   2   1  -2 46683.1 793.474   2
  -1  -2  -2 48101.8 1113.09   3
  -1  -2  -2 47726.1 965.314   2
   1  -3  -2 48554.0 830.844   2
   1  -3  -2 47372.4 941.744   1
   2   1  -2 48578.3 1111.22   1
  -2   3  -2 48296.6 948.439   3
  -1  -2  -2 47855.3 895.554   4
  -1  -2  -2 46844.9 754.222   1
   3  -1  -2 47687.8 1110.02   1
  -3   2  -2 47749.0 1008.14   3
   2   1   1 4085.49 278.722   4
   1  -3   1 4700.86 288.980   2
  -2   3   1 3855.74 269.921   1
   2   1   1 4546.72 287.499   2
  -2   3   1 3927.82 186.897   2
  -1  -2   1 4460.71 218.919   4
   3  -1   1 4133.41 276.332   3
  -3   2   1 3797.05 293.837   1
  -1  -2   1 3964.09 246.211   2
  -2   3   1 4150.37 237.580   4
   1  -3   1 4681.67 247.538   4
   2   1   1 4548.22 297.763   3
   2   1   4 3169.82 361.317   1
  -2   3   4 2553.39 416.382   1
  -2   3   4 2663.19 220.087   4
  -3   2   4 2766.75 424.783   1
  -2   3   7 15569.3 1124.22   1
   2   1   7 14017.2 891.605   1
  -3   3 -12 13457.2 1262.41   1
  -3   3 -12 13702.5 1334.90   2
   3   0 -12 18758.7 1798.83   3
   0  -3 -12 11862.5 1126.24   1
  -3   3 -12 16941.3 1622.97   3
   3   0 -12 13580.3 1433.55   1
   0  -3 -12 19134.3 1860.72   3
   0  -3  -9 222.607 130.902   4
   3   0  -9 533.232 370.064   2
   0  -3  -9 700.029 433.245   1
  -3   3  -9-199.686 139.644   4
   3   0  -9 125.679 588.689   3
  -3   3  -9-45.9889 501.306   3
  -3   3  -9 110.844 465.828   1
   0  -3  -9 1189.34 627.963   3
  -3   3  -9 192.535 148.121   4
   3   0  -9 654.013 487.484   1
   0  -3  -6 91662.9 2040.94   1
   0  -3  -6 98632.1 2096.12   2
   0  -3  -6 100853. 1569.37   4
  -3   3  -6 90775.1 2326.17   3
  -3   3  -6 93942.4 2039.63   1
   0  -3  -6 90268.5 2505.95   3
   3   0  -6 95684.0 2440.88   1
  -3   3  -6 96604.1 1527.39   4
   3   0  -3 705.106 334.264   1
   0  -3  -3 191.645 208.780   2
  -3   3  -3 103.086 243.966   3
   0  -3  -3 94.8636 201.496   1
   3   0  -3 246.627 155.131   2
   0  -3  -3 262.291 179.876   4
   0  -3   0 221101. 1674.57   4
   3   0   0 222510. 1356.88   3
  -3   3   0 224686. 1558.71   2
   3   0   0 219441. 1652.21   4
  -3   3   0 219681. 1496.71   1
  -3   3   3 188.513 294.610   1
   3   0   3 236.413 162.168   1
   3   0   3 231.303 308.971   3
  -3   3   3 21.1270 104.551   4
  -3   3   6 170175. 3324.92   1
   4  -4 -10 6495.92 1085.71   3
  -4   0 -10 5866.38 711.354   1
  -4   0 -10 8106.42 1061.39   3
   0   4 -10 8842.27 1125.29   3
   0   4 -10 8442.79 892.069   2
   4  -4 -10 6791.78 879.608   1
   0   4 -10 7340.21 949.424   1
   4  -4  -7 182.517 214.980   2
  -4   0  -7 236.081 422.223   3
  -4   0  -7-12.9878 211.394   4
   0   4  -7 587.296 410.306   1
   0   4  -7 43.1462 286.890   2
   0   4  -7 340.592 461.047   3
   4  -4  -7 74.0435 410.842   1
  -4   0  -7 248.233 282.532   1
   0   4  -4 7440.62 564.442   2
   4  -4  -4 7611.56 647.373   1
  -4   0  -4 7255.45 482.771   4
   0   4  -4 6080.89 571.765   1
   4  -4  -4 8183.75 387.607   2
   4  -4  -4 7203.62 319.799   4
  -4   0  -4 7862.35 673.626   3
  -4   0  -4 8346.59 628.867   2
   0   4  -4 7997.60 379.085   4
  -4   0  -4 7441.55 379.912   1
   0   4  -1 255.776 173.189   4
  -4   0  -1 211.357 176.793   2
  -4   0  -1 59.7629 169.040   4
   4  -4  -1 79.8671 218.870   1
   4  -4  -1 287.111 165.064   3
   0   4  -1 144.083 183.170   2
   4  -4  -1 44.9770 98.6426   2
  -4   0  -1 286.619 191.551   3
   0   4   2 9940.89 477.995   4
   0   4   2 10773.1 494.545   2
  -4   0   2 10202.3 351.790   4
  -4   0   2 10717.7 601.481   1
   0   4   2 9405.16 445.828   1
  -4   0   2 9105.68 319.353   2
   4  -4   2 9888.39 498.033   3
   0   4   5 92.5096 186.537   4
   0   4   5 142.649 300.360   1
  -4   0   5 266.181 306.100   1
   3  -4 -11 398.056 738.095   3
   1   3 -11-118.925 543.984   1
   4  -3 -11-52.7468 363.258   2
  -4   1 -11-177.380 391.639   1
  -1   4 -11 282.745 577.873   3
   1   3 -11 302.417 695.332   3
   4  -3 -11-975.889 783.257   3
   3  -4 -11 452.889 527.768   1
   1   3 -11 317.065 430.745   2
  -4   1 -11 603.169 658.778   3
   4  -3 -11 221.865 556.569   1
  -3  -1 -11 939.564 744.016   3
  -1   4 -11 288.475 469.376   2
  -3  -1 -11-113.027 418.953   1
  -1   4 -11 997.058 610.832   1
   3  -4  -8 5162.81 546.792   2
   1   3  -8 7070.88 741.745   2
   3  -4  -8 6771.84 962.459   3
   1   3  -8 7337.63 876.283   3
  -4   1  -8 4824.77 568.900   1
   4  -3  -8 5077.78 733.617   1
  -3  -1  -8 7029.72 903.417   3
  -1   4  -8 5252.53 715.856   1
   1   3  -8 4599.70 744.595   1
   4  -3  -8 5668.76 545.501   2
   3  -4  -8 5925.18 746.649   1
  -1   4  -8 5730.39 780.894   3
  -4   1  -8 5796.59 816.804   3
  -3  -1  -8 5389.01 586.367   1
  -3  -1  -8 5336.44 480.855   4
  -4   1  -8 4814.82 445.823   4
   3  -4  -5 9955.16 416.375   4
   4  -3  -5 10816.7 518.121   2
   4  -3  -5 9722.59 794.485   1
   3  -4  -5 10560.7 547.114   2
  -3  -1  -5 10341.4 561.568   1
  -3  -1  -5 9631.27 696.698   2
  -3  -1  -5 9434.40 813.395   3
  -4   1  -5 9210.96 529.580   1
  -4   1  -5 11035.7 834.167   3
   3  -4  -5 9604.08 732.272   1
  -1   4  -5 9531.93 428.060   4
   1   3  -5 8277.09 607.617   2
  -4   1  -5 10125.0 575.371   4
   1   3  -5 7295.08 287.429   4
  -1   4  -5 10683.7 739.784   3
   1   3  -5 11844.7 804.400   1
  -3  -1  -5 10441.5 580.801   4
  -1   4  -5 9940.81 719.119   1
  -4   1  -2 1305.07 235.654   4
   4  -3  -2 2207.70 347.588   1
   3  -4  -2 2217.47 176.071   2
  -1   4  -2 1893.47 232.341   4
   3  -4  -2 1942.05 218.217   4
  -1   4  -2 1542.94 220.203   3
   1   3  -2 1885.61 252.047   2
   1   3  -2 1863.79 199.016   4
  -4   1  -2 1729.20 319.239   3
  -3  -1  -2 2673.47 352.901   3
  -3  -1  -2 1850.64 253.485   4
  -3  -1  -2 1939.16 293.692   2
  -1   4  -2 1702.84 273.693   2
   3  -4  -2 1605.20 313.908   1
   4  -3   1 8185.37 355.198   3
   3  -4   1 8152.50 295.767   3
   3  -4   1 7787.46 304.002   1
   1   3   1 8781.02 397.265   2
  -3  -1   1 7719.12 311.963   3
  -4   1   1 7812.42 360.330   3
  -3  -1   1 8322.96 309.806   2
  -1   4   1 8462.67 382.435   1
   1   3   1 8014.13 305.736   1
   4  -3   1 6877.81 249.145   1
  -1   4   1 8229.34 352.202   2
   1   3   1 7866.87 394.353   3
  -4   1   1 8614.29 448.310   1
  -1   4   1 8544.15 400.295   4
   1   3   1 7923.94 409.069   4
  -3  -1   1 8401.94 343.532   4
  -1   4   4 3270.52 409.901   1
   1   3   4 2555.78 355.298   1
   1   3   4 2661.47 306.620   4
  -4   1   4 3429.37 495.113   1
  -1   4   4 2543.31 284.953   4
   4  -3   4 2705.20 467.693   3
  -3  -1   4 2369.01 397.482   1
   1   3   7 3730.59 546.069   1
  -1   4   7 3874.68 589.610   1
  -4   2 -12 5778.99 1094.81   3
  -2   4 -12 3962.03 839.162   1
   2   2 -12 2564.29 658.690   2
  -2  -2 -12 4600.89 1103.93   3
   2  -4 -12 4555.31 1211.55   3
   2   2 -12 4392.20 1013.24   1
  -2   4 -12 6216.08 1102.46   3
   2   2 -12 3119.32 989.448   3
   2  -4 -12 3178.48 763.470   1
  -2   4 -12 3706.42 770.730   2
   4  -2 -12 4759.17 1083.64   3
   4  -2 -12 3638.62 858.436   1
  -2  -2  -9 20059.2 1132.92   1
   2   2  -9 18638.0 1389.72   1
   4  -2  -9 18702.1 1021.21   2
  -4   2  -9 15719.9 711.400   4
   2   2  -9 20829.2 1204.97   2
  -4   2  -9 19695.4 1135.44   1
  -2   4  -9 21158.7 1326.07   1
   2   2  -9 24230.4 1602.22   3
   4  -2  -9 18485.6 1356.60   1
  -2  -2  -9 17407.2 745.846   4
  -2   4  -9 22445.7 1497.59   3
  -4   2  -9 20766.3 1468.99   3
   2  -4  -9 21321.9 1616.24   3
   4  -2  -9 21900.3 1626.05   3
  -2  -2  -9 21046.1 1521.90   3
   2  -4  -9 21137.5 1297.00   1
  -4   2  -6 26097.6 1017.65   1
  -2   4  -6 28497.0 781.749   4
   2   2  -6 28133.1 1112.03   2
  -4   2  -6 27761.2 933.510   4
   4  -2  -6 26757.9 927.488   2
  -2   4  -6 27361.0 741.659   4
  -2   4  -6 25791.9 1263.59   3
  -2  -2  -6 26758.3 1380.43   3
  -4   2  -6 29104.1 1374.58   3
   2  -4  -6 26167.7 1181.10   1
  -2  -2  -6 28414.8 941.995   4
  -2  -2  -6 29213.8 1236.45   2
  -2  -2  -6 28518.5 1054.08   1
   4  -2  -6 25509.0 1281.32   1
   2  -4  -6 29588.5 785.754   4
   2  -4  -6 29019.3 1050.49   2
  -2   4  -6 29472.3 1244.35   1
   2   2  -6 29937.3 1376.03   1
  -4   2  -3 113457. 1249.32   1
  -2   4  -3 120979. 1432.35   4
  -2  -2  -3 122280. 1689.99   4
  -2  -2  -3 95675.7 1880.68   3
  -2  -2  -3 114666. 1342.81   1
   2   2  -3 110573. 1002.48   4
   2  -4  -3 129245. 1504.86   4
   2   2  -3 113507. 1568.36   2
   2  -4  -3 122699. 1493.77   2
   4  -2  -3 117308. 2046.96   1
   2  -4  -3 118563. 1837.57   1
  -2   4  -3 111567. 1724.62   3
  -4   2  -3 114706. 1931.72   3
  -2  -2  -3 121186. 1890.60   2
   2   2  -3 103099. 1978.02   1
   2   2   0 30104.0 692.525   4
   4  -2   0 29149.4 597.918   1
  -2  -2   0 30257.3 672.062   4
   2  -4   0 29208.0 595.888   1
  -4   2   0 30602.5 619.390   1
   2  -4   0 32090.9 672.694   2
  -2  -2   0 31483.2 611.107   2
  -4   2   0 31069.4 559.842   3
  -2   4   0 29746.2 674.621   4
  -2  -2   0 30054.0 469.580   3
  -2   4   0 30038.1 600.750   1
   4  -2   0 30852.1 564.328   3
  -2   4   0 31174.6 644.228   2
   2   2   0 30066.6 609.480   2
   2   2   0 30462.8 484.551   3
   2  -4   0 29945.1 690.806   4
  -2   4   3 115663. 1398.44   4
  -2   4   3 117951. 1556.78   2
  -4   2   3 113689. 2104.82   1
   2   2   3 119081. 1484.16   1
   4  -2   3 120881. 2052.42   3
  -2   4   3 118841. 1905.53   1
   2   2   3 118174. 1650.26   4
  -2   4   6 30624.9 767.451   4
  -4   2   6 31089.3 1471.84   1
   2   2   6 30624.0 1186.31   1
  -2   4   6 29449.5 1355.14   1
  -3   4 -10 1687.57 529.924   1
  -4   3 -10 1530.52 700.249   3
   1  -4 -10 3494.90 879.390   3
  -4   3 -10 1689.56 499.694   1
   4  -1 -10 2051.39 471.889   2
   1  -4 -10 2875.86 583.747   1
   3   1 -10 2247.27 511.018   2
   3   1 -10 1535.49 643.404   1
   3   1 -10 2307.37 819.920   3
   4  -1 -10 1096.39 551.283   1
  -3   4 -10 1665.55 579.137   3
  -1  -3 -10 1514.10 504.988   1
  -1  -3 -10 3917.36 912.011   3
   4  -1 -10 1631.98 695.358   3
  -1  -3  -7 2266.59 456.801   2
   1  -4  -7 2837.75 645.758   3
  -1  -3  -7 2429.90 444.629   1
  -4   3  -7 3450.87 610.522   3
  -3   4  -7 3212.18 318.498   4
   1  -4  -7 3316.74 516.397   1
   4  -1  -7 3231.01 410.311   2
  -1  -3  -7 2668.48 664.571   3
   4  -1  -7 3196.17 604.009   1
  -4   3  -7 3442.83 484.741   1
  -4   3  -7 3180.04 364.262   4
  -3   4  -7 2828.24 500.079   1
   1  -4  -7 3094.80 322.477   4
   3   1  -7 2530.47 409.125   2
   3   1  -7 2402.08 531.986   1
  -3   4  -7 3627.41 616.933   3
  -1  -3  -7 3317.51 370.683   4
   1  -4  -7 3537.54 486.999   2
  -3   4  -7 3346.39 314.217   4
  -4   3  -4 2940.63 447.015   3
   1  -4  -4 3586.36 345.791   2
  -1  -3  -4 3336.96 543.773   3
  -1  -3  -4 4051.49 364.988   4
   4  -1  -4 3462.23 510.123   1
   1  -4  -4 3469.32 398.214   1
  -3   4  -4 3604.36 390.878   1
   3   1  -4 3455.76 337.045   2
   1  -4  -4 3571.29 317.960   4
  -1  -3  -4 3735.53 377.466   1
  -1  -3  -4 3660.76 399.288   2
  -4   3  -4 3360.16 350.866   1
  -3   4  -4 3559.79 446.641   3
   3   1  -4 3334.76 494.423   1
  -3   4  -1 8266.98 284.314   3
  -1  -3  -1 7719.04 371.465   2
   4  -1  -1 7923.88 341.658   3
   1  -4  -1 7819.42 339.456   2
   3   1  -1 6692.16 291.044   3
  -3   4  -1 7390.31 316.100   1
   1  -4  -1 7693.61 354.859   1
   3   1  -1 7074.88 325.025   4
  -1  -3  -1 6546.94 363.076   3
  -1  -3  -1 7357.91 388.523   4
  -4   3  -1 7858.06 348.889   3
   4  -1  -1 8126.83 453.015   1
   3   1  -1 6953.66 283.637   2
   3   1  -1 7103.46 410.429   1
  -3   4  -1 7842.31 437.873   2
  -1  -3  -1 7608.56 297.983   1
  -4   3  -1 7279.58 256.136   1
  -3   4  -1 8173.64 384.173   4
   1  -4  -1 7272.53 372.840   4
  -4   3   2 1060.49 275.763   1
  -3   4   2 1053.85 144.773   2
  -3   4   2 1310.96 207.020   4
   3   1   2 1406.31 291.532   2
   4  -1   2 1039.56 259.861   3
  -3   4   2 859.977 233.549   1
  -1  -3   2 1407.73 175.176   4
   3   1   2 1479.78 242.297   4
   1  -4   2 1504.64 212.783   4
  -4   3   2 1279.91 163.463   4
  -1  -3   2 1470.86 242.503   2
   3   1   2 843.388 259.144   3
   3   1   5 12490.3 647.887   1
  -3   4   5 10891.0 443.087   4
  -4   3   5 10428.5 839.689   1
  -4   4 -11-26.0057 406.729   1
  -4   4 -11-192.878 574.647   3
   4   0 -11 1535.59 743.911   1
   0  -4 -11-77.1797 483.713   1
   0  -4 -11 663.568 795.903   3
   4   0 -11 633.200 447.230   2
   4   0 -11-615.631 641.177   3
   0  -4  -8 18911.6 758.370   4
   0  -4  -8 19704.0 1097.93   1
   4   0  -8 19661.3 1000.77   2
  -4   4  -8 19596.6 1308.76   3
  -4   4  -8 16234.0 1079.36   1
   0  -4  -8 19237.7 1432.00   3
  -4   4  -8 18916.3 743.382   4
  -4   4  -8 18337.0 756.692   4
   4   0  -8 19795.5 1346.70   1
   0  -4  -5 1.64703 189.240   2
   0  -4  -5 96.0192 270.734   1
   0  -4  -5 244.564 383.120   3
   4   0  -5-64.8213 184.392   2
  -4   4  -5 0.83064 314.662   3
  -4   4  -5 2.74073 225.099   1
   0  -4  -5-85.1200 171.158   4
   4   0  -5 629.253 372.158   1
   0  -4  -2 8431.32 443.272   4
   0  -4  -2 8886.36 528.101   3
  -4   4  -2 7949.11 411.746   3
   4   0  -2 7105.34 281.638   2
   4   0  -2 7771.52 562.749   1
   0  -4  -2 8272.35 433.994   2
   0  -4  -2 7553.86 394.222   1
   4   0   1 88.5021 169.481   3
   0  -4   1 109.938 154.095   2
   4   0   1 178.486 181.859   2
   0  -4   1-74.7418 142.496   4
   4   0   1 20.6258 162.079   4
  -4   4   1 219.011 132.282   4
  -4   4   1 188.471 100.263   2
  -4   4   1 257.747 198.532   1
  -4   4   4 9383.68 378.309   4
   4   0   4 8799.87 467.076   1
  -4   4   4 10492.3 741.293   1
   4   0   4 8738.19 730.617   3
   0   5 -11-19.6940 552.951   1
  -5   0 -11 253.254 629.804   3
  -5   0 -11 571.389 391.302   1
   0   5 -11 198.914 574.960   3
   5  -5 -11-347.985 551.834   1
   5  -5 -11 591.210 822.775   3
   0   5 -11 326.021 518.144   2
  -5   0  -8 4018.97 473.151   1
   0   5  -8 4063.61 598.746   2
   0   5  -8 4312.64 691.457   3
   0   5  -8 5299.08 785.192   1
  -5   0  -8 5027.95 518.587   4
   5  -5  -8 4893.60 484.650   2
  -5   0  -8 5171.41 801.546   3
   5  -5  -8 5675.81 768.809   1
  -5   0  -5-91.0711 354.454   3
  -5   0  -5 18.0867 291.841   2
   0   5  -5 142.947 232.907   2
   0   5  -5 73.1808 349.813   1
   0   5  -5 41.0181 132.983   4
   5  -5  -5 198.033 389.464   1
  -5   0  -5-45.4559 162.748   1
  -5   0  -5 210.318 225.984   4
   5  -5  -5 225.504 145.430   2
   0   5  -2 3830.27 332.294   4
   5  -5  -2 3345.41 291.264   4
  -5   0  -2 4084.59 395.336   2
   5  -5  -2 3822.23 212.280   2
  -5   0  -2 4561.17 398.368   4
   5  -5  -2 3706.25 409.926   1
   0   5  -2 3808.55 388.223   2
   0   5   1-96.7837 198.273   4
  -5   0   1 86.4304 105.312   2
   5  -5   1-98.1351 135.335   3
  -5   0   1 75.1388 152.777   4
   5  -5   1 106.530 152.376   1
  -5   0   1 471.720 228.612   1
   0   5   1 5.67994 158.175   1
  -5   0   1 53.2501 172.026   3
   0   5   1 287.697 177.847   2
  -5   0   4 35983.5 1407.92   1
   0   5   4 37852.2 1154.47   1
   5  -5   4 35720.7 1290.55   3
   0   5   4 35967.7 1057.30   4
   0   5   4 34797.2 1160.58   2
   0   5   7 151.407 350.095   1
   0   5   7-252.549 211.575   4
   5  -4 -12 1887.60 728.798   1
   5  -4 -12 2881.33 983.896   3
  -5   1 -12 4169.46 992.029   3
  -4  -1 -12 2703.77 842.953   3
  -1   5 -12 547.797 660.710   3
  -1   5 -12 2199.70 653.891   2
   1   4 -12 1448.90 549.539   2
   4  -5 -12 3193.64 1056.63   3
  -1   5 -12 829.566 587.743   1
   1   4 -12 2896.31 891.870   3
   1   4 -12 3019.48 848.107   1
   4  -5 -12 2457.23 741.446   1
  -5   1  -9 21470.3 1476.33   3
  -1   5  -9 20888.3 1436.00   1
  -1   5  -9 20856.1 1317.63   2
  -5   1  -9 18236.2 876.125   4
   4  -5  -9 19456.2 1019.36   2
  -4  -1  -9 21224.7 1081.55   1
   4  -5  -9 25012.7 1774.85   3
   1   4  -9 19125.9 1197.16   2
   1   4  -9 19963.5 1472.22   3
   5  -4  -9 17595.6 974.452   2
  -1   5  -9 22628.9 1503.70   3
  -5   1  -9 20104.1 1028.42   1
  -4  -1  -9 18141.9 879.555   4
  -4  -1  -9 21151.1 1484.47   3
   5  -4  -9 22215.7 1470.99   1
   1   4  -9 19941.1 1447.03   1
   4  -5  -9 21007.8 1365.79   1
   4  -5  -6 28833.7 1315.94   1
   1   4  -6 26443.2 1155.79   2
   4  -5  -6 28452.1 952.380   2
  -5   1  -6 25994.0 997.140   4
  -1   5  -6 25830.8 1210.50   2
  -1   5  -6 29339.9 1312.39   1
   1   4  -6 27408.9 1357.95   1
  -1   5  -6 25978.3 732.638   4
  -4  -1  -6 28037.7 1043.60   4
   5  -4  -6 30331.6 906.568   2
  -4  -1  -6 24913.2 1336.37   3
  -5   1  -6 25283.2 1335.82   3
  -4  -1  -6 28884.0 1296.73   2
  -4  -1  -6 26570.5 908.319   1
  -1   5  -6 27609.1 1262.30   3
   5  -4  -6 26747.2 1311.17   1
   4  -5  -6 26817.4 666.637   4
  -5   1  -6 27260.4 911.285   1
   4  -5  -3 24529.4 682.192   4
   4  -5  -3 25107.7 588.076   2
  -4  -1  -3 21789.8 460.863   1
   5  -4  -3 23617.9 975.220   1
   5  -4  -3 22143.4 426.827   2
  -4  -1  -3 23000.1 965.046   3
  -4  -1  -3 24186.8 835.366   4
  -1   5  -3 21371.8 742.273   3
  -5   1  -3 22595.7 919.630   3
   1   4  -3 23395.9 835.507   2
  -5   1  -3 23967.1 830.747   4
   1   4  -3 24297.8 650.372   4
  -4  -1  -3 23570.6 941.021   2
   4  -5  -3 22681.9 911.641   1
  -1   5  -3 24048.0 696.459   4
  -1   5  -3 22735.5 889.374   2
   1   4   0 40661.7 570.264   3
  -5   1   0 41708.0 904.214   4
  -5   1   0 41142.9 790.204   2
   4  -5   0 41770.4 861.852   2
  -4  -1   0 39530.6 690.919   3
  -5   1   0 43461.1 840.990   1
   1   4   0 39615.4 909.854   4
   1   4   0 41128.0 849.747   2
  -1   5   0 41486.9 880.865   2
   4  -5   0 38895.4 780.521   1
   4  -5   0 40831.5 886.600   4
  -1   5   0 40438.6 905.992   4
   4  -5   0 41593.0 610.598   3
  -4  -1   0 40622.1 899.825   4
  -5   1   0 40368.8 740.346   3
   5  -4   0 42111.0 803.471   1
   5  -4   0 39868.3 694.802   3
  -4  -1   0 42291.8 807.926   2
  -1   5   0 41699.5 797.715   1
   1   4   3 129611. 1885.58   4
   1   4   3 131137. 1724.09   1
   5  -4   3 131624. 2105.80   3
   4  -5   3 131481. 2026.21   3
  -1   5   3 129733. 1847.12   2
  -5   1   3 129957. 2357.02   1
  -4  -1   3 125662. 1156.16   4
  -1   5   3 128899. 1761.72   4
  -1   5   3 133120. 1960.56   1
   1   4   3 128465. 2025.23   2
  -5   1   3 124080. 1136.12   4
  -1   5   6 10580.7 836.110   1
   1   4   6 11848.6 645.881   4
  -1   5   6 11536.0 586.607   4
   1   4   6 11268.3 771.758   1
   2   3 -10 10580.5 1199.85   3
   5  -3 -10 7655.07 1213.68   3
   3  -5 -10 9022.51 1298.90   3
   3  -5 -10 6671.15 850.788   1
  -2   5 -10 8233.06 994.612   1
  -5   2 -10 6665.21 504.472   4
  -3  -2 -10 8907.07 1157.12   3
   5  -3 -10 10269.1 1102.02   1
   5  -3 -10 8057.67 753.985   2
  -5   2 -10 7369.80 779.177   1
   2   3 -10 8315.05 850.084   2
  -2   5 -10 6900.30 873.635   2
  -5   2 -10 8595.34 1076.42   3
   2   3 -10 7990.83 1048.00   1
  -3  -2 -10 8286.41 794.927   1
  -2   5 -10 9039.44 1064.65   3
   3  -5  -7 17852.0 592.216   4
  -3  -2  -7 16989.9 816.134   4
   3  -5  -7 18442.7 897.840   2
  -2   5  -7 16715.5 1088.78   1
  -2   5  -7 15843.2 611.174   4
  -5   2  -7 16128.6 844.036   1
  -2   5  -7 15972.4 1083.31   3
   2   3  -7 17956.1 977.223   2
   5  -3  -7 16835.6 790.091   2
  -2   5  -7 18439.2 640.502   4
  -3  -2  -7 17491.0 878.638   1
  -5   2  -7 18437.9 1199.15   3
  -5   2  -7 16879.1 816.931   4
   3  -5  -7 17653.8 1096.82   1
   5  -3  -7 18752.8 1189.17   1
   2   3  -7 20018.5 1246.37   1
  -3  -2  -7 17501.5 1236.39   3
   3  -5  -4 4864.17 348.709   4
  -5   2  -4 4007.86 294.217   1
  -5   2  -4 4468.87 546.500   3
  -3  -2  -4 4245.35 413.505   4
   5  -3  -4 4798.94 267.517   2
   5  -3  -4 3678.31 506.491   1
  -3  -2  -4 4576.99 471.441   2
   3  -5  -4 4885.93 363.227   2
  -3  -2  -4 4746.13 337.154   1
  -2   5  -4 4397.56 329.155   4
  -2   5  -4 4225.56 446.516   3
   2   3  -4 3731.97 557.711   1
   2   3  -4 4424.99 245.301   4
  -3  -2  -4 4822.99 597.530   3
  -5   2  -4 3607.38 376.812   4
   3  -5  -4 3785.71 466.635   1
   2   3  -4 3972.73 408.619   2
   5  -3  -1 21831.8 724.236   1
  -2   5  -1 23852.0 693.193   4
  -3  -2  -1 22451.2 632.536   3
   3  -5  -1 24070.6 686.273   1
  -2   5  -1 22416.9 716.457   2
  -3  -2  -1 22760.3 713.358   4
   2   3  -1 23462.9 430.048   3
   2   3  -1 22635.1 621.907   2
   5  -3  -1 22839.2 607.847   3
  -5   2  -1 22509.6 626.689   3
   2   3  -1 21629.3 630.641   4
   3  -5  -1 25160.9 696.728   4
  -2   5  -1 22826.5 602.164   1
   3  -5  -1 23580.7 593.514   2
  -3  -2  -1 22843.9 680.609   2
   3  -5   2 92201.1 1302.51   3
  -5   2   2 94745.5 1739.58   1
  -3  -2   2 90830.4 1121.07   4
   5  -3   2 90133.0 1466.66   3
  -2   5   2 87646.5 1332.11   4
   2   3   2 87860.5 1506.04   2
   2   3   2 89098.9 1478.06   4
  -3  -2   2 85520.5 1204.94   2
  -2   5   2 92196.3 1241.44   2
   2   3   2 87682.0 1573.68   3
   2   3   2 89321.7 1069.19   1
  -2   5   2 92604.9 1483.30   1
   2   3   5 7787.21 531.955   4
  -5   2   5 6802.79 755.565   1
  -2   5   5 9259.81 746.406   1
  -2   5   5 7978.59 452.461   4
   2   3   5 7605.73 555.820   1
   2   3   8 9879.93 975.109   1
  -5   3 -11 468.586 538.713   3
  -3   5 -11 1230.26 546.309   1
   5  -2 -11 992.283 706.816   3
   3   2 -11 2630.10 810.156   1
  -5   3 -11 575.369 478.786   1
   2  -5 -11 719.309 466.162   1
  -3   5 -11 216.052 576.306   3
   3   2 -11 1890.37 765.070   3
   5  -2 -11 1117.36 411.130   2
  -3   5 -11 561.451 552.351   2
   2  -5 -11 995.674 726.175   3
   5  -2 -11 2092.50 732.240   1
  -2  -3 -11 751.040 439.781   1
   3   2 -11 227.226 430.448   2
  -2  -3 -11 1021.30 693.244   3
  -2  -3  -8 14435.9 944.269   1
   5  -2  -8 14320.5 1174.22   1
  -5   3  -8 14083.6 904.075   1
   2  -5  -8 13453.3 1268.08   3
  -2  -3  -8 16541.6 1313.88   3
   3   2  -8 16557.8 1210.73   1
  -3   5  -8 13154.1 591.390   4
   2  -5  -8 15037.1 907.806   2
   5  -2  -8 14576.7 818.376   2
   5  -2  -8 14463.6 793.150   2
   3   2  -8 14123.0 905.573   2
  -5   3  -8 13243.8 721.222   4
  -2  -3  -8 14379.0 748.722   4
  -5   3  -8 17517.3 1248.81   3
   2  -5  -8 14742.0 588.007   4
  -3   5  -8 15503.1 1143.77   3
  -3   5  -8 13661.7 596.499   4
   2  -5  -8 15133.3 1056.04   1
  -3   5  -8 13897.5 1025.36   1
  -3   5  -5 6730.35 582.400   1
  -5   3  -5 7505.21 499.475   1
  -3   5  -5 7547.50 652.801   3
  -2  -3  -5 7192.66 734.879   3
   2  -5  -5 8152.87 487.379   4
  -2  -3  -5 8701.83 560.906   4
   5  -2  -5 7392.86 717.749   1
   2  -5  -5 6952.88 617.680   1
  -5   3  -5 7439.49 510.672   4
  -3   5  -5 7814.14 455.749   4
  -5   3  -5 7439.86 684.350   3
   2  -5  -5 7451.38 515.615   2
   3   2  -5 7576.63 694.354   1
  -2  -3  -5 8123.51 632.183   2
  -2  -3  -5 8701.18 559.154   1
   3   2  -5 8170.81 547.964   2
   3   2  -2 82204.2 1584.35   1
  -3   5  -2 82686.7 1560.96   2
   2  -5  -2 80262.5 1332.31   1
  -2  -3  -2 84655.9 1431.32   4
   2  -5  -2 85543.9 1174.07   2
  -2  -3  -2 83512.0 1522.95   3
  -2  -3  -2 82560.0 998.321   1
   3   2  -2 79859.1 1125.84   2
  -5   3  -2 79103.1 727.584   1
   5  -2  -2 86483.8 1389.57   3
  -3   5  -2 80621.7 1131.59   3
  -2  -3  -2 86543.3 1432.25   2
  -3   5  -2 82613.1 1288.30   4
   3   2  -2 83535.2 1087.59   4
  -5   3  -2 82790.9 1366.64   3
   2  -5  -2 87068.8 1357.54   4
   5  -2  -2 80054.9 1622.49   1
  -3   5   1 20057.3 532.467   2
  -2  -3   1 19250.9 591.809   2
   2  -5   1 22173.7 659.549   4
  -2  -3   1 20265.7 421.285   3
   5  -2   1 20289.8 612.043   3
  -3   5   1 20229.5 661.915   1
   2  -5   1 21848.6 720.030   2
   3   2   1 19670.8 644.695   2
  -5   3   1 19501.3 585.154   3
   3   2   1 20538.2 632.429   3
  -2  -3   1 21295.6 613.037   4
  -5   3   1 21057.5 722.428   1
   3   2   1 20956.9 700.728   4
   3   2   1 18911.2 421.121   1
  -3   5   1 20668.9 651.343   4
  -5   3   4 5709.76 610.161   1
   3   2   4 5488.09 454.889   4
   3   2   4 6233.11 426.225   1
   5  -2   4 4745.69 561.591   3
  -2  -3   4 4986.61 237.090   4
  -3   5   4 5824.91 580.658   1
  -3   5   4 5488.53 366.454   4
   3   2   7 16612.8 981.345   1
  -3   5   7 18140.0 595.579   4
  -4   5 -12 4518.75 954.250   3
  -4   5 -12 4459.26 893.044   2
   4   1 -12 4062.75 969.886   1
  -1  -4 -12 4492.41 1105.20   3
   5  -1 -12 3344.57 905.587   1
   5  -1 -12 3980.88 1024.72   3
   1  -5 -12 3134.51 680.862   1
  -5   4 -12 3872.34 932.050   3
   4   1 -12 4671.63 1114.07   3
   1  -5 -12 2574.90 856.783   3
  -4   5  -9 20145.1 755.459   4
  -4   5  -9 23583.2 1481.47   3
   1  -5  -9 21399.2 741.105   4
   4   1  -9 25440.3 1231.86   2
  -4   5  -9 18764.8 743.129   4
  -1  -4  -9 21675.4 872.183   4
  -5   4  -9 18924.8 839.080   4
   4   1  -9 25318.6 1598.57   1
  -1  -4  -9 28861.0 1848.41   3
   5  -1  -9 24758.8 1545.14   1
   5  -1  -9 22002.7 1085.06   2
  -4   5  -9 23375.3 1365.34   1
   1  -5  -9 22866.1 1334.20   1
   1  -5  -9 22883.3 1705.32   3
  -5   4  -9 21646.1 1229.24   1
   5  -1  -9 19618.2 1027.84   2
  -5   4  -9 20983.3 835.023   4
  -1  -4  -9 23212.9 1258.12   1
  -5   4  -9 23190.5 1509.09   3
   1  -5  -6 11778.8 615.607   4
  -4   5  -6 10678.6 836.941   3
  -4   5  -6 9759.76 717.932   1
  -5   4  -6 9560.87 601.969   4
   5  -1  -6 11388.8 934.015   1
   4   1  -6 11223.7 666.854   2
  -1  -4  -6 9326.57 922.122   3
  -1  -4  -6 11687.7 726.143   1
  -1  -4  -6 11521.1 649.428   4
   5  -1  -6 10520.9 582.674   2
   4   1  -6 10695.1 917.705   1
   1  -5  -6 10121.8 743.333   1
  -4   5  -6 11740.2 592.754   4
  -1  -4  -6 11182.9 752.802   2
   1  -5  -6 9511.62 913.660   3
   1  -5  -6 11386.8 724.954   2
  -5   4  -6 11715.2 721.632   1
  -5   4  -6 10706.6 840.057   3
  -1  -4  -3 133536. 1932.84   2
   1  -5  -3 134935. 1817.09   4
  -4   5  -3 127230. 1857.31   3
   4   1  -3 128721. 1135.67   4
   4   1  -3 129080. 2282.89   1
  -1  -4  -3 129512. 2227.90   3
   4   1  -3 125164. 1449.14   2
   5  -1  -3 123181. 2265.23   1
  -5   4  -3 126691. 1949.11   3
   1  -5  -3 127437. 1812.27   1
  -1  -4  -3 131361. 1623.61   1
  -1  -4  -3 133206. 1891.12   4
   1  -5  -3 134682. 1775.19   2
   4   1   0 42619.5 827.298   2
   4   1   0 45090.7 738.620   3
  -4   5   0 46380.8 890.142   1
   1  -5   0 46590.8 931.263   2
  -1  -4   0 44482.9 557.932   3
  -4   5   0 48079.0 908.555   2
  -1  -4   0 46870.1 958.752   4
   1  -5   0 47145.0 984.621   4
  -5   4   0 46192.4 759.805   3
   4   1   0 45174.3 959.783   4
   5  -1   0 45337.8 868.396   1
  -1  -4   0 46246.6 898.654   2
  -4   5   0 45975.3 674.444   3
  -4   5   0 46052.2 943.359   4
  -5   4   0 45314.4 870.045   1
   5  -1   0 44872.6 830.304   2
   5  -1   0 44889.8 780.266   3
   1  -5   0 44185.3 822.520   1
  -5   4   3 25898.9 631.612   4
  -4   5   3 25945.6 1030.02   1
  -1  -4   3 26184.2 659.186   4
  -4   5   3 24642.2 684.160   4
   4   1   3 25691.9 559.954   1
   5  -1   3 23362.8 985.100   3
   4   1   3 23409.7 843.855   4
  -4   5   3 26380.7 653.927   2
   1  -5   3 25427.9 709.035   4
  -5   4   3 24842.9 1050.08   1
   4   1   3 24000.8 1000.95   3
  -4   5   6 30036.5 714.355   4
   4   1   6 29488.4 1054.23   1
   0  -5 -10 10982.6 977.315   1
  -5   5 -10 15332.1 1301.27   3
  -5   5 -10 13846.6 1092.62   1
   0  -5 -10 11975.2 1340.98   3
   5   0 -10 13192.3 921.848   2
  -5   5 -10 10022.5 550.525   4
   5   0 -10 12964.1 1380.21   3
   5   0 -10 13197.4 1295.57   1
  -5   5  -7-57.0450 205.876   4
   5   0  -7 189.278 393.122   1
   0  -5  -7-587.198 516.243   3
  -5   5  -7-106.269 368.256   3
   0  -5  -7-127.798 198.037   4
  -5   5  -7 102.627 313.726   1
   0  -5  -7 268.944 284.064   2
   5   0  -7-151.823 256.945   2
   0  -5  -7-43.8072 300.863   1
   0  -5  -4 39655.4 1107.24   4
  -5   5  -4 37692.6 1226.36   3
   5   0  -4 36895.1 1414.66   1
   0  -5  -4 36671.5 1117.97   2
   0  -5  -4 38202.3 1079.56   1
   5   0  -4 36937.6 833.508   2
   0  -5  -4 39256.9 1431.21   3
   5   0  -1 90.0124 155.048   3
   0  -5  -1 430.200 209.240   4
  -5   5  -1 27.4708 139.167   3
   0  -5  -1 288.002 217.537   3
   0  -5  -1-32.5615 155.531   1
   0  -5  -1 60.4337 168.165   2
   5   0  -1 70.2535 123.469   2
   5   0  -1-143.527 242.412   1
  -5   5  -1-88.1128 144.869   1
   5   0  -1 169.224 161.037   4
   5   0   2 4470.71 417.744   3
   5   0   2 3659.13 378.567   4
  -5   5   2 3786.58 302.741   4
   0  -5   2 3825.43 326.815   4
  -5   5   2 4005.98 202.590   2
  -5   5   2 3587.51 410.598   1
   0  -5   2 3378.69 378.866   2
  -5   5   5-81.2834 389.591   1
  -5   5   5-130.435 123.720   4
   0   6 -12 3075.24 699.365   2
  -6   0 -12 6767.82 1209.75   3
   6  -6 -12 6368.58 1058.38   1
   0   6 -12 5899.29 1072.59   1
   6  -6 -12 8256.70 1405.35   3
   0   6 -12 8118.88 1210.17   3
  -6   0  -9-198.715 508.880   3
   0   6  -9 2.45798 454.900   1
  -6   0  -9-119.449 293.018   4
  -6   0  -9-177.838 277.853   1
   0   6  -9 514.900 534.271   3
   6  -6  -9-126.443 445.183   1
   0   6  -9 1.98912 327.522   2
   6  -6  -9 130.411 247.999   2
   6  -6  -6 54046.9 1862.55   1
  -6   0  -6 50508.0 1859.46   3
   0   6  -6 51162.0 1064.37   4
   0   6  -6 49149.6 1636.86   3
  -6   0  -6 48146.3 1031.31   1
   6  -6  -6 53340.7 1133.31   2
   0   6  -6 50259.3 1823.05   1
  -6   0  -6 49574.6 1474.85   4
  -6   0  -3 296.952 233.741   2
   6  -6  -3-21.9029 298.729   1
   0   6  -3 81.2289 222.177   2
   6  -6  -3 133.732 103.504   2
   0   6  -3 22.3487 173.447   4
  -6   0  -3 1.60260 290.337   3
  -6   0  -3 205.937 217.813   4
   6  -6   0 48274.2 835.601   3
   6  -6   0 47178.8 993.143   1
   0   6   0 48588.4 651.805   3
   0   6   0 50889.2 997.920   1
  -6   0   0 49374.2 994.431   2
  -6   0   0 48866.9 1131.37   4
   0   6   0 46434.9 1120.05   4
  -6   0   0 48184.8 906.814   3
   0   6   3 415.337 284.163   2
   0   6   3 447.541 226.217   1
  -6   0   3 263.562 149.293   4
  -6   0   3 278.478 130.816   2
   6  -6   3-22.1109 224.031   3
   0   6   3 137.404 231.272   4
  -6   0   3 894.999 356.204   1
   0   6   6 46672.3 1352.88   4
   0   6   6 45597.5 1596.32   1
   1   5 -10 356.784 596.119   3
  -6   1 -10 810.319 402.455   1
  -1   6 -10 1186.84 616.485   3
   1   5 -10 193.620 403.796   2
   6  -5 -10 1418.86 767.291   3
   5  -6 -10 870.117 551.892   1
  -5  -1 -10 212.632 331.936   1
  -1   6 -10 587.360 518.283   1
  -5  -1 -10 632.148 605.027   3
  -1   6 -10 572.739 432.678   2
   6  -5 -10 145.998 519.385   1
   5  -6 -10 901.970 771.006   3
   1   5 -10 34.5147 469.843   1
  -6   1 -10 1542.80 663.204   3
  -5  -1  -7 16754.4 878.519   4
   1   5  -7 18310.4 1219.89   1
  -1   6  -7 16697.6 1072.75   2
  -1   6  -7 16267.8 604.084   4
  -6   1  -7 17297.2 764.527   1
   1   5  -7 15266.4 959.391   2
   5  -6  -7 16810.6 778.773   2
  -5  -1  -7 15811.9 1179.27   3
   5  -6  -7 18675.6 1157.68   1
  -1   6  -7 15691.0 1047.81   3
  -6   1  -7 17947.2 1220.55   3
   1   5  -7 16064.3 1086.01   3
  -1   6  -7 18008.9 1201.93   1
  -6   1  -7 15812.9 868.157   4
  -5  -1  -7 16609.3 743.212   1
   6  -5  -7 17989.8 1199.15   1
   6  -5  -7 17317.0 727.987   2
  -5  -1  -4 2808.36 373.615   4
  -5  -1  -4 2474.63 507.919   3
  -1   6  -4 3271.76 317.075   4
   1   5  -4 2628.33 277.033   4
   5  -6  -4 3131.86 262.243   2
  -6   1  -4 2223.85 158.405   1
   6  -5  -4 2857.60 478.870   1
   5  -6  -4 2767.10 277.995   4
   6  -5  -4 2429.97 189.078   2
   1   5  -4 2642.99 396.076   2
   5  -6  -4 2824.17 447.519   1
  -6   1  -4 2289.45 460.771   3
  -1   6  -4 2965.40 381.460   3
  -6   1  -4 2653.24 361.250   4
  -5  -1  -4 2433.28 208.369   1
  -6   1  -4 3968.67 504.270   2
  -5  -1  -4 3933.83 473.204   2
  -1   6  -4 2293.07 383.272   2
   5  -6  -1 111641. 1397.10   3
   6  -5  -1 108595. 1660.57   1
  -6   1  -1 109431. 1078.35   1
  -1   6  -1 110128. 1639.98   4
  -5  -1  -1 110667. 1721.23   4
  -5  -1  -1 114868. 1683.23   2
  -6   1  -1 106337. 1647.59   2
   1   5  -1 109772. 1593.31   4
   6  -5  -1 110201. 1414.65   3
  -6   1  -1 108070. 1687.40   4
   1   5  -1 117000. 783.665   3
   1   5  -1 107536. 1585.98   2
  -1   6  -1 111892. 1664.33   2
   5  -6  -1 114674. 1610.89   4
  -6   1  -1 102878. 1436.76   3
  -5  -1  -1 110743. 1483.85   3
   5  -6  -1 113767. 1380.12   2
   1   5   2 5323.16 434.656   4
  -1   6   2 5593.66 398.537   2
  -6   1   2 4755.06 213.572   2
  -6   1   2 5437.10 333.795   4
   1   5   2 5825.72 418.890   2
   1   5   2 5631.21 368.774   1
   6  -5   2 5745.31 408.945   3
   5  -6   2 5989.20 392.884   3
  -5  -1   2 5952.19 349.879   4
  -5  -1   2 5230.98 300.858   2
  -1   6   2 5069.75 389.095   1
  -1   6   2 5165.10 429.854   4
  -6   1   2 5854.15 529.804   1
   6  -5   5 16603.0 1023.49   3
   1   5   5 16117.7 846.031   1
  -1   6   5 17368.4 777.501   4
  -6   1   5 14080.8 1047.39   1
  -1   6   5 15315.6 914.358   1
   1   5   5 16708.1 787.803   4
   1   5   8 1112.55 474.371   1
  -2   6 -11 2164.06 687.262   3
   2   4 -11 1537.49 683.899   1
  -4  -2 -11 2417.26 798.207   3
  -2   6 -11 2784.94 678.735   2
  -6   2 -11 1387.50 703.145   3
  -2   6 -11 761.691 496.456   1
   2   4 -11 1920.02 760.647   3
   4  -6 -11 2313.85 944.494   3
   6  -4 -11 1657.87 634.353   1
  -4  -2 -11 693.516 385.934   1
   6  -4 -11 1712.71 855.673   3
   4  -6 -11 1890.15 650.717   1
   2   4 -11 2142.92 559.312   2
   6  -4  -8 608.097 251.815   2
  -4  -2  -8 802.118 522.136   3
   2   4  -8-20.6214 483.139   1
  -4  -2  -8 747.162 322.439   4
  -2   6  -8 1121.31 522.396   3
  -6   2  -8 972.004 516.068   3
   4  -6  -8 772.785 448.600   1
   2   4  -8 891.611 499.884   3
  -6   2  -8 397.333 247.336   4
  -2   6  -8 118.625 354.625   2
   6  -4  -8 984.835 508.401   1
  -2   6  -8 821.244 447.369   1
  -2   6  -8 509.390 150.410   4
   2   4  -8 667.198 293.343   2
  -2   6  -8 572.702 175.732   4
   4  -6  -8 933.838 327.234   2
  -6   2  -8 379.676 256.377   1
  -4  -2  -8 940.950 308.206   1
  -2   6  -5 10944.5 734.796   3
  -4  -2  -5 11322.2 682.460   4
  -4  -2  -5 12143.5 905.024   3
  -4  -2  -5 11321.5 781.711   2
  -4  -2  -5 11749.2 528.504   1
  -2   6  -5 12081.4 576.742   4
   6  -4  -5 11586.4 446.998   2
  -2   6  -5 11659.7 795.574   2
   4  -6  -5 10814.1 817.363   1
   2   4  -5 10794.4 838.479   1
   4  -6  -5 11569.1 573.025   2
   4  -6  -5 13409.5 587.764   4
  -6   2  -5 11575.3 875.097   3
  -6   2  -5 9662.28 462.760   1
  -6   2  -5 11076.7 657.196   4
  -2   6  -5 9496.45 727.252   1
   6  -4  -5 11364.4 825.879   1
   2   4  -5 10406.8 388.079   4
   2   4  -5 12276.4 728.213   2
   4  -6  -2 46931.2 1159.07   1
   6  -4  -2 48825.3 1121.00   3
   4  -6  -2 50599.2 1090.98   4
   2   4  -2 47303.6 1036.36   2
  -2   6  -2 48470.2 804.019   3
  -2   6  -2 48487.0 1228.34   2
  -6   2  -2 46988.6 1116.08   3
   6  -4  -2 44556.2 1265.21   1
   2   4  -2 48331.3 981.996   4
  -2   6  -2 50930.2 1100.86   4
   4  -6  -2 51359.4 881.828   2
  -4  -2  -2 47798.0 1179.65   4
  -4  -2  -2 46766.0 1155.91   3
  -4  -2  -2 49472.5 1207.88   2
   2   4   1 14192.2 636.998   4
  -2   6   1 15786.5 552.269   2
   2   4   1 16575.2 627.700   2
   4  -6   1 15574.1 404.903   3
  -4  -2   1 16341.1 591.931   4
  -2   6   1 15915.1 598.393   1
   4  -6   1 16200.9 629.151   4
   2   4   1 15323.7 564.836   3
  -6   2   1 15675.5 399.989   2
  -4  -2   1 14904.6 510.052   2
   2   4   1 14515.8 481.367   1
  -4  -2   1 14825.1 473.057   3
   6  -4   1 14787.3 425.535   1
  -6   2   1 15833.2 567.731   3
  -6   2   1 16203.0 694.195   1
   4  -6   1 14996.8 510.908   1
   4  -6   1 16166.4 675.376   2
   6  -4   1 14953.3 535.438   3
  -2   6   1 15553.9 636.689   4
   6  -4   4 6028.04 600.980   3
   2   4   4 7259.80 547.196   4
  -4  -2   4 5530.60 255.445   4
   2   4   4 6752.14 468.076   1
  -6   2   4 4564.22 236.047   4
  -2   6   4 5823.74 524.263   1
  -2   6   4 5272.92 469.518   2
   2   4   4 6739.63 580.717   2
  -2   6   4 6277.58 453.891   4
  -6   2   4 5157.60 222.733   4
  -6   2   4 6593.49 713.365   1
  -2   6   7 23619.8 841.466   4
   2   4   7 24117.3 1161.32   1
  -3   6 -12 10078.9 1188.48   1
  -3   6 -12 13927.5 1420.16   3
   6  -3 -12 17676.6 1820.30   3
   3  -6 -12 17298.2 1862.25   3
  -3   6 -12 12108.5 1276.30   2
   6  -3 -12 9298.71 1261.04   1
   3  -6 -12 10146.9 1144.15   1
  -3  -3 -12 13086.9 1538.64   3
   3   3 -12 14901.5 1614.67   3
  -6   3 -12 14538.4 1478.43   3
   3   3 -12 11375.8 1352.66   1
  -3  -3  -9 1066.20 336.432   4
   6  -3  -9 1190.24 378.193   2
   6  -3  -9 1143.65 319.917   2
  -6   3  -9 1353.83 622.198   3
  -3   6  -9 2765.36 632.121   1
   3   3  -9 1668.36 479.467   2
   3   3  -9 2691.83 738.072   3
  -3   6  -9 1091.53 191.409   4
   3  -6  -9 1892.82 737.681   3
   3  -6  -9 996.112 137.241   4
  -3   6  -9 2588.89 596.382   2
   3   3  -9 1005.90 502.702   1
  -3  -3  -9 1455.49 618.878   3
   6  -3  -9 956.851 523.731   1
  -3  -3  -9 1657.94 401.726   1
  -6   3  -9 1569.33 366.967   4
  -6   3  -9 2029.23 474.719   1
  -3   6  -9 781.856 182.645   4
  -3   6  -9 1810.59 611.101   3
   3  -6  -9 1245.46 553.179   1
  -3  -3  -6 34435.3 1167.13   4
   3  -6  -6 38808.7 1038.67   4
  -6   3  -6 34497.5 1167.45   4
   3  -6  -6 36052.5 1394.46   1
  -3   6  -6 33155.3 945.891   4
  -6   3  -6 31296.4 1001.43   1
  -3  -3  -6 34505.0 1390.75   2
   6  -3  -6 36096.7 923.405   2
  -3   6  -6 32962.9 1367.82   3
   3   3  -6 32436.4 1173.78   2
   6  -3  -6 32937.1 1506.44   1
  -6   3  -6 33759.1 1478.30   3
  -3   6  -6 34426.6 1430.79   1
  -3  -3  -6 36407.9 1089.35   1
  -3  -3  -6 32312.4 1545.87   3
   3   3  -6 33980.2 1554.65   1
   3  -6  -6 35883.8 1153.73   2
  -6   3  -3 9984.73 322.225   1
   3   3  -3 11334.2 542.933   2
   3  -6  -3 11842.4 567.059   4
  -3   6  -3 10033.8 515.401   4
   6  -3  -3 10907.2 733.881   1
  -3   6  -3 11650.2 703.037   2
   3  -6  -3 10637.1 467.913   2
  -3  -3  -3 10770.6 702.299   3
   3  -6  -3 12155.1 655.862   1
  -3   6  -3 10984.9 543.098   3
   3   3  -3 11184.7 723.946   1
  -3  -3  -3 10649.2 415.450   1
  -6   3  -3 11826.7 661.335   3
  -3  -3  -3 11188.6 613.719   4
  -3  -3  -3 11068.1 635.444   2
  -6   3  -3 9700.03 263.573   1
   3   3  -3 11184.5 451.802   4
   3   3   0 255970. 2441.11   4
   6  -3   0 252833. 2133.79   1
  -3  -3   0 259232. 2161.12   2
   3  -6   0 265774. 2352.77   2
  -3   6   0 258292. 2241.93   2
  -3   6   0 257716. 2141.31   1
   3  -6   0 251519. 2115.89   1
  -3  -3   0 256362. 1643.26   3
   3   3   0 256620. 2168.90   2
  -3  -3   0 257769. 2408.81   4
  -6   3   0 253013. 1945.14   3
  -3   6   0 242410. 2359.63   4
   6  -3   0 257207. 1980.92   3
   3  -6   0 263974. 2438.71   4
  -6   3   0 256685. 2200.71   1
   3   3   0 260020. 1722.23   3
  -3   6   3 11714.7 524.613   2
   3   3   3 12062.0 479.565   1
  -3   6   3 11017.3 679.762   1
  -3  -3   3 11287.1 429.370   4
  -6   3   3 12069.9 781.887   1
   3   3   3 10647.6 707.634   3
  -3   6   3 11235.5 545.474   4
   3   3   3 10377.5 597.508   4
   6  -3   3 12596.5 700.414   3
  -3  -3   3 10420.5 542.116   2
   3   3   3 10747.7 647.182   2
   3   3   6 34076.2 1165.36   4
  -3   6   6 36026.9 967.418   4
   3   3   6 33822.5 1188.15   1
  -3   6   6 36790.1 1557.02   1
  -4   6 -10 798.262 477.725   2
  -2  -4 -10 2281.47 757.746   3
  -6   4 -10 556.106 539.988   3
   6  -2 -10 2950.47 780.418   1
   4   2 -10 1422.49 463.011   2
   4   2 -10 691.125 602.588   1
   2  -6 -10 1706.07 538.563   1
   4   2 -10 1219.31 675.402   3
   6  -2 -10 1512.04 402.836   2
   2  -6 -10 2144.66 814.471   3
  -6   4 -10 1576.74 464.922   1
  -6   4 -10 1112.26 299.192   4
  -2  -4 -10 1714.77 449.696   1
  -4   6 -10 1999.87 542.483   1
  -4   6 -10 2291.24 706.581   3
  -4   6  -7 21527.7 1212.00   3
  -2  -4  -7 24623.8 1488.92   3
   6  -2  -7 23352.3 858.258   2
   6  -2  -7 20873.0 825.799   2
   2  -6  -7 23992.1 875.223   4
  -6   4  -7 21379.3 951.708   4
   6  -2  -7 21101.7 1322.32   1
   4   2  -7 19511.3 1286.08   1
   2  -6  -7 21732.7 1017.35   2
  -2  -4  -7 21483.2 984.403   1
  -6   4  -7 22230.5 1020.32   1
  -4   6  -7 19434.5 1110.64   1
  -2  -4  -7 22821.3 979.882   4
  -6   4  -7 19334.3 1229.46   3
   2  -6  -7 22510.5 1188.05   1
   2  -6  -7 22409.0 1429.91   3
   4   2  -7 24202.2 1060.63   2
  -4   6  -7 21694.6 818.362   4
  -2  -4  -4 6514.07 431.747   1
   2  -6  -4 6322.00 445.961   2
   4   2  -4 5470.30 420.237   2
  -2  -4  -4 5721.01 483.921   4
   4   2  -4 5866.27 255.283   4
  -6   4  -4 5275.40 380.180   1
   2  -6  -4 6655.72 466.603   4
   6  -2  -4 5112.75 263.179   2
  -4   6  -4 5947.21 515.095   3
  -2  -4  -4 6426.03 541.629   2
  -2  -4  -4 5569.09 622.026   3
  -4   6  -4 6087.90 436.668   4
   4   2  -4 5994.82 639.260   1
   6  -2  -4 5555.89 627.225   1
   2  -6  -4 6813.58 552.235   1
  -6   4  -4 6065.47 565.520   3
  -4   6  -1 16072.3 380.083   3
  -4   6  -1 14019.6 592.744   4
   2  -6  -1 15757.7 561.988   2
  -2  -4  -1 15537.1 561.203   3
   6  -2  -1 14974.1 519.638   3
   6  -2  -1 16893.4 702.973   1
   4   2  -1 14800.7 501.868   2
   2  -6  -1 13771.1 548.191   1
  -2  -4  -1 15007.6 581.632   2
   4   2  -1 15230.9 583.109   4
  -6   4  -1 14938.3 520.265   3
  -2  -4  -1 14838.8 644.404   4
   2  -6  -1 16255.4 645.937   4
  -4   6  -1 13730.2 630.788   2
  -6   4  -1 15070.7 460.552   1
  -4   6  -1 14655.8 531.774   1
   4   2  -1 15536.1 450.441   3
  -2  -4   2 48536.5 965.088   4
   4   2   2 47980.5 664.197   1
  -6   4   2 48787.2 1338.13   1
  -2  -4   2 50838.3 1115.86   2
  -4   6   2 51117.6 1242.36   1
   4   2   2 49733.8 1213.69   4
   6  -2   2 48947.0 1171.35   3
   2  -6   2 49425.9 1074.93   4
   2  -6   2 49394.1 1261.10   2
   4   2   2 49184.9 1211.63   3
  -4   6   2 48496.1 839.939   2
  -4   6   2 49129.0 1079.70   4
   4   2   2 50215.2 1253.51   2
  -4   6   5 13585.8 570.577   4
   4   2   5 13260.5 624.631   1
  -4   6   5 13496.2 918.221   1
   6  -2   5 12956.9 954.905   3
   4   2   5 13277.9 718.584   4
  -6   4   5 12942.8 985.902   1
   6  -1 -11 1654.76 679.855   1
   1  -6 -11 1023.49 793.905   3
   5   1 -11 2655.93 783.590   1
  -5   6 -11 639.297 486.350   1
   6  -1 -11 2720.54 866.209   3
   1  -6 -11 1286.37 527.000   1
   5   1 -11 2652.70 938.855   3
  -5   6 -11 1916.77 740.475   3
   5   1 -11 1862.29 512.767   2
  -6   5 -11 2227.12 767.034   3
  -6   5 -11 1772.07 526.764   1
  -5   6 -11 2594.99 701.957   2
  -1  -5 -11 1221.13 486.542   1
  -1  -5 -11 1529.02 750.123   3
  -1  -5  -8 1557.70 445.863   1
   1  -6  -8 105.095 341.805   1
  -1  -5  -8 1492.53 347.231   4
   6  -1  -8 1167.01 286.942   2
   1  -6  -8 1528.40 315.074   4
  -6   5  -8 1790.02 432.759   1
  -6   5  -8 1335.40 339.346   4
  -5   6  -8 1454.18 289.511   4
   5   1  -8 1813.27 390.434   2
   1  -6  -8 1296.51 605.803   3
   5   1  -8 643.429 505.259   1
  -1  -5  -8 1394.37 587.105   3
   6  -1  -8 1334.95 330.428   2
   6  -1  -8 986.572 498.948   1
  -5   6  -8 684.153 370.942   1
  -6   5  -8 1544.92 486.374   3
  -5   6  -8 1297.22 510.793   3
  -5   6  -8 1429.19 322.971   4
  -1  -5  -5 13007.2 942.419   3
  -6   5  -5 13852.4 692.882   1
   5   1  -5 13627.2 636.037   2
   5   1  -5 13998.5 970.437   1
   1  -6  -5 14993.2 735.628   4
  -6   5  -5 11953.2 816.164   3
  -1  -5  -5 14700.3 759.351   4
   1  -6  -5 12318.4 932.754   3
   6  -1  -5 13990.1 976.958   1
   6  -1  -5 13800.4 549.272   2
  -5   6  -5 13570.0 742.957   1
  -1  -5  -5 15135.0 825.627   2
  -1  -5  -5 14139.1 703.896   1
  -5   6  -5 13936.5 854.671   3
   1  -6  -5 15827.6 776.818   2
   1  -6  -5 14412.7 801.061   1
   5   1  -2 6821.55 563.565   1
  -1  -5  -2 6974.83 451.358   2
  -5   6  -2 6190.38 341.827   1
   5   1  -2 5360.64 292.547   2
  -6   5  -2 6700.67 430.677   3
   6  -1  -2 5908.83 233.287   2
  -1  -5  -2 5770.33 355.866   1
   5   1  -2 5666.80 361.700   3
   1  -6  -2 6013.64 412.317   1
   5   1  -2 6250.30 355.208   4
  -6   5  -2 6001.44 290.687   1
   1  -6  -2 6196.15 392.660   2
   1  -6  -2 6502.76 462.561   4
  -1  -5  -2 6775.09 507.725   3
   6  -1  -2 6175.92 401.478   3
  -1  -5  -2 5978.19 465.351   4
   6  -1  -2 4186.09 460.648   1
  -5   6  -2 5594.10 343.692   3
  -1  -5   1 109096. 1570.10   4
   1  -6   1 115696. 1640.21   4
   6  -1   1 115241. 1133.22   1
  -5   6   1 111464. 1592.06   4
   5   1   1 113701. 1566.72   3
   1  -6   1 115480. 1726.55   2
  -6   5   1 111772. 1479.33   3
  -6   5   1 113552. 1773.66   1
   5   1   1 107665. 1664.23   2
  -1  -5   1 111514. 819.217   3
  -5   6   1 115227. 1310.43   2
   6  -1   1 112173. 1548.66   3
  -5   6   1 110175. 1691.78   1
  -1  -5   1 112636. 1607.54   2
  -6   5   1 111913. 1194.93   2
   5   1   1 110910. 1735.99   4
  -6   5   4 3509.34 284.521   4
   5   1   4 3095.83 379.057   4
  -5   6   4 3115.06 306.824   4
   5   1   4 3150.20 501.657   3
  -6   5   4 4643.90 576.828   1
   5   1   4 3580.39 265.557   1
   6  -1   4 4052.90 549.156   3
  -5   6   4 3926.52 323.009   2
  -1  -5   4 3209.51 271.408   4
  -5   6   4 3315.32 514.423   1
  -5   6   7 17095.6 534.188   4
  -6   6 -12 16941.9 1555.49   2
   6   0 -12 17457.0 1789.45   3
  -6   6 -12 19035.3 1632.19   3
   6   0 -12 16940.0 1597.87   1
   0  -6 -12 19309.1 1880.96   3
   0  -6  -9-522.252 363.599   1
   0  -6  -9 428.277 663.471   3
   6   0  -9 57.5209 301.848   2
   6   0  -9 297.438 286.948   2
  -6   6  -9-64.1540 371.352   1
  -6   6  -9 101.415 450.032   3
   0  -6  -9 421.174 289.187   4
  -6   6  -9 362.467 284.252   4
  -6   6  -9 286.630 254.602   4
   6   0  -9 148.883 452.420   1
   6   0  -6 43154.1 1757.10   1
   0  -6  -6 45944.2 1468.44   2
   6   0  -6 46650.3 1166.38   2
   0  -6  -6 42601.3 1811.46   3
  -6   6  -6 44323.5 1608.88   3
  -6   6  -6 49079.5 1473.72   1
   0  -6  -6 46730.4 1430.90   1
   0  -6  -6 47117.4 1365.51   4
   6   0  -3-56.2137 198.394   3
   0  -6  -3 149.399 196.488   1
   0  -6  -3 166.545 339.873   3
  -6   6  -3 124.319 138.567   1
   6   0  -3-17.1833 292.846   1
  -6   6  -3 234.436 232.638   3
   0  -6  -3 449.590 285.133   4
   0  -6  -3-142.717 194.134   2
   6   0  -3 159.523 109.082   2
   6   0   0 59704.9 1191.41   1
  -6   6   0 65857.3 1212.35   2
   0  -6   0 65683.4 707.283   3
   0  -6   0 64844.6 1307.19   4
  -6   6   0 62606.8 1181.75   1
   6   0   0 61053.2 1255.03   4
  -6   6   0 65918.0 996.050   3
  -6   6   0 63693.3 1273.24   4
   6   0   0 66453.5 1067.85   3
   0  -6   0 66966.1 1271.66   2
   6   0   0 60486.4 1119.45   2
  -6   6   3-65.2551 103.432   2
  -6   6   3-168.551 309.956   1
   6   0   3-42.8376 270.448   3
   0  -6   3 101.557 235.202   2
   0  -6   3-33.6934 154.433   4
  -6   6   3-57.4636 163.020   4
  -6   6   6 53686.4 991.432   4
  -7   0 -10 9026.50 642.987   1
   0   7 -10 11317.2 1049.17   2
   0   7 -10 11659.1 1250.40   1
   7  -7 -10 12197.0 1179.25   1
   0   7 -10 11946.0 1213.35   3
   7  -7  -7 137.361 163.071   2
   0   7  -7 311.291 333.923   2
  -7   0  -7-43.7821 271.805   4
  -7   0  -7 140.217 178.096   1
   0   7  -7-575.094 410.515   1
  -7   0  -7-415.388 423.779   3
   0   7  -7 81.9770 130.182   4
   0   7  -7 195.350 307.149   3
   7  -7  -7 325.231 388.384   1
   7  -7  -4 3137.88 223.895   2
  -7   0  -4 3530.05 460.507   4
   0   7  -4 3714.03 373.865   4
  -7   0  -4 3252.40 459.400   2
  -7   0  -4 3654.12 526.697   3
   7  -7  -4 4627.75 589.064   1
   0   7  -4 3784.48 464.283   2
   7  -7  -1 172.537 256.734   1
  -7   0  -1 409.211 240.857   2
  -7   0  -1 146.682 223.467   3
   7  -7  -1 149.681 163.373   2
   7  -7  -1 424.903 199.857   3
   0   7  -1 292.048 276.573   4
   0   7  -1 192.482 223.045   2
  -7   0  -1 730.158 270.731   4
  -7   0   2 35539.5 959.992   4
   0   7   2 36687.4 978.897   1
   0   7   2 37626.4 1052.87   2
   0   7   2 34890.9 1101.21   4
  -7   0   2 35176.3 1207.33   1
   7  -7   2 38219.2 962.225   3
   7  -7   2 35598.8 797.906   1
  -7   0   2 37815.7 996.068   3
  -7   0   2 35968.3 725.549   2
   0   7   5 101.156 257.088   2
   0   7   5-8.07506 217.373   4
  -7   0   5 23.9911 62.9287   4
   0   7   5 400.369 312.857   1
   7  -7   5 116.109 327.679   3
   0   7   8 23237.2 1024.39   4
   1   6 -11 2955.66 831.531   3
   7  -6 -11 4099.27 1057.32   3
   6  -7 -11 3409.18 1035.32   3
   1   6 -11 3402.96 784.818   1
  -1   7 -11 3508.77 795.082   1
  -7   1 -11 3173.96 845.051   3
   1   6 -11 3519.09 746.873   2
  -6  -1 -11 4758.31 950.253   3
  -1   7 -11 3744.40 771.516   2
   6  -7 -11 3379.22 767.485   1
   7  -6 -11 3975.98 871.319   1
  -1   7 -11 4105.80 854.917   3
   6  -7  -8 1813.57 313.257   2
   1   6  -8 2146.93 573.577   3
  -7   1  -8 1639.01 589.509   3
  -1   7  -8 2880.28 633.409   1
  -7   1  -8 1738.56 325.212   1
   7  -6  -8 1913.16 302.780   2
  -6  -1  -8 2381.35 639.137   3
  -1   7  -8 1775.32 220.552   4
  -1   7  -8 1816.54 484.983   2
  -6  -1  -8 1696.24 315.783   1
  -1   7  -8 2239.97 238.032   4
   7  -6  -8 2791.27 607.133   1
  -6  -1  -8 2253.32 434.566   4
  -7   1  -8 1662.95 399.869   4
   1   6  -8 2240.32 622.073   1
   1   6  -8 2390.93 520.036   2
   6  -7  -8 1890.76 576.541   1
  -1   7  -8 2687.83 530.470   3
  -6  -1  -5 551.288 347.266   2
   7  -6  -5 854.642 154.231   2
   6  -7  -5 1215.40 218.056   4
  -7   1  -5 1321.81 434.919   3
  -6  -1  -5 850.447 160.532   1
  -6  -1  -5 1131.60 425.668   3
  -1   7  -5 967.284 373.565   2
   1   6  -5 279.184 324.472   1
   7  -6  -5 639.116 405.648   1
  -6  -1  -5 725.799 292.981   4
   1   6  -5 685.652 284.359   2
   6  -7  -5 798.512 364.834   1
   1   6  -5 1150.76 231.962   4
  -1   7  -5 977.749 229.697   4
  -7   1  -5 841.059 318.828   2
  -7   1  -5 867.243 278.615   4
  -1   7  -5 592.260 292.249   3
   6  -7  -5 1164.84 198.350   2
  -7   1  -5 708.334 119.867   1
   1   6  -2 5920.53 460.164   2
  -6  -1  -2 5651.92 485.217   4
  -6  -1  -2 5978.08 499.062   2
  -1   7  -2 7119.80 546.778   2
   6  -7  -2 5330.14 483.813   1
  -1   7  -2 6447.92 477.753   4
   7  -6  -2 6004.42 530.518   1
   6  -7  -2 6821.42 450.970   4
   7  -6  -2 6346.74 454.915   3
  -7   1  -2 6548.85 528.299   2
   1   6  -2 7083.14 301.593   3
  -7   1  -2 6576.53 499.566   3
   6  -7  -2 6610.75 349.860   2
  -6  -1  -2 6214.80 509.674   3
   1   6  -2 6884.64 469.410   4
   7  -6  -2 6223.58 283.003   2
  -7   1  -2 5590.91 464.082   4
  -1   7  -2 6578.59 295.407   3
  -1   7   1 2670.06 367.489   4
  -6  -1   1 3044.48 339.995   4
   1   6   1 2287.06 332.855   2
  -7   1   1 1932.05 286.399   4
  -7   1   1 2652.78 313.279   3
   1   6   1 2023.97 309.176   4
   6  -7   1 2888.62 280.312   1
  -1   7   1 2616.48 288.828   1
   7  -6   1 2402.78 256.502   1
  -7   1   1 2573.87 225.910   2
  -7   1   1 3066.27 401.344   1
   6  -7   1 2572.76 237.091   3
   7  -6   1 2390.42 268.569   3
  -6  -1   1 2309.13 247.142   2
   1   6   1 2373.47 286.234   3
  -6  -1   1 2831.75 278.530   3
  -1   7   1 2481.36 322.472   2
   1   6   1 2665.12 291.382   1
  -1   7   4 9446.85 612.641   4
   1   6   4 8482.67 600.462   1
   1   6   4 10101.6 659.408   4
  -1   7   4 9378.75 640.647   2
   7  -6   4 9091.71 707.357   3
  -7   1   4 7739.79 368.190   4
  -7   1   4 8364.19 813.370   1
  -6  -1   4 9791.29 396.801   4
  -1   7   4 9934.00 668.684   1
   6  -7   4 9038.70 679.043   3
   1   6   4 9585.64 686.911   2
   1   6   7 9858.34 818.096   1
   1   6   7 9868.71 686.021   4
  -1   7   7 10378.3 668.239   4
  -1   7   7 9462.64 869.282   1
   5  -7 -12 1183.45 735.676   1
   2   5 -12 2261.52 843.577   3
  -2   7 -12 2371.77 689.862   2
   2   5 -12 779.563 516.682   2
   5  -7 -12 3055.34 989.544   3
  -5  -2 -12 1873.97 852.944   3
   2   5 -12 1369.73 656.307   1
  -2   7 -12 2481.94 800.698   3
   7  -5 -12 1675.55 885.563   3
  -7   2 -12 3686.82 975.198   3
  -2   7 -12 2680.80 828.612   1
   7  -5 -12 2422.12 760.683   1
   7  -5  -9 4867.00 498.979   2
  -2   7  -9 2805.96 231.953   4
   5  -7  -9 4310.38 717.634   1
  -7   2  -9 3371.28 499.109   4
  -2   7  -9 2821.47 230.715   4
  -2   7  -9 5857.12 799.851   2
  -2   7  -9 3915.10 670.478   3
   2   5  -9 4804.63 668.216   2
   7  -5  -9 6804.50 898.635   1
  -5  -2  -9 2861.57 468.939   4
   5  -7  -9 4083.43 864.808   3
  -5  -2  -9 4864.91 513.654   1
  -2   7  -9 5750.59 805.998   1
   2   5  -9 5840.93 914.225   3
  -5  -2  -9 7572.35 1025.78   3
   2   5  -9 6940.01 948.976   1
   7  -5  -9 4783.77 456.738   2
  -7   2  -9 4460.69 773.775   3
  -7   2  -9 4569.59 511.180   1
   5  -7  -6 5504.49 618.374   1
   7  -5  -6 5116.97 326.503   2
  -5  -2  -6 5407.22 390.999   1
  -2   7  -6 4781.54 592.165   2
  -7   2  -6 5749.00 652.337   3
   2   5  -6 4189.20 648.621   1
  -2   7  -6 5917.47 440.582   4
   7  -5  -6 5665.95 692.255   1
  -7   2  -6 4741.97 356.261   1
   5  -7  -6 5554.36 441.610   2
  -2   7  -6 5511.80 678.569   1
   2   5  -6 4818.59 541.990   2
  -2   7  -6 5812.46 601.744   3
   2   5  -6 4640.87 284.139   4
  -5  -2  -6 6028.34 739.481   3
  -5  -2  -6 5511.53 548.069   4
   5  -7  -6 5674.58 405.911   4
  -7   2  -6 5298.33 526.515   4
   2   5  -3 90634.5 1663.48   2
  -7   2  -3 87084.5 1772.54   3
   7  -5  -3 87339.0 1949.96   1
  -5  -2  -3 84886.5 892.028   1
   5  -7  -3 85451.0 1812.80   1
  -5  -2  -3 88011.2 1870.06   3
   5  -7  -3 96077.9 1586.39   4
  -2   7  -3 87731.8 1563.02   4
   2   5  -3 90950.4 1463.84   4
   5  -7  -3 91774.2 1263.35   2
  -5  -2  -3 91469.6 1804.25   4
  -5  -2  -3 86403.1 1867.60   2
  -7   2  -3 89659.6 1756.77   4
  -2   7  -3 83732.6 1833.56   2
  -2   7  -3 86548.1 1383.90   3
   2   5   0 90155.9 1034.82   3
   5  -7   0 96182.8 1530.06   2
   2   5   0 87769.0 1572.01   4
   5  -7   0 92545.3 1383.40   1
   5  -7   0 92945.8 1014.80   3
  -2   7   0 93663.6 1404.47   1
  -5  -2   0 88221.7 1171.95   3
  -2   7   0 90074.5 1596.68   4
  -5  -2   0 95063.3 1617.30   4
  -5  -2   0 95988.4 1412.59   2
   2   5   0 91125.6 1453.54   2
  -7   2   0 92869.1 1311.36   3
   7  -5   0 88538.4 1376.63   1
   5  -7   0 93072.3 1567.75   4
  -7   2   0 94020.5 1381.35   2
   7  -5   0 92383.0 1257.49   3
  -2   7   0 92946.3 1528.64   2
  -7   2   0 90956.5 1434.06   1
   2   5   3 90936.1 1845.14   2
   5  -7   3 92385.5 1662.01   3
  -2   7   3 95134.7 1724.18   4
   2   5   3 94995.9 1468.84   1
  -7   2   3 88817.8 2116.92   1
  -2   7   3 93920.0 1789.36   1
  -2   7   3 92239.6 1611.93   2
   7  -5   3 89781.5 1796.83   3
   2   5   3 92382.1 1811.93   4
  -7   2   3 96695.9 1288.74   4
  -5  -2   3 91715.9 1446.15   2
  -5  -2   3 90456.4 1299.03   4
  -2   7   6 9209.83 594.688   4
  -2   7   6 8028.07 769.322   1
   2   5   6 9038.85 706.651   1
   2   5   6 8703.55 625.615   4
  -7   3 -10 2052.35 452.970   1
   7  -4 -10 1742.16 379.818   2
  -3   7 -10 2819.67 695.620   3
   4  -7 -10 2391.34 626.411   1
   3   4 -10 1837.04 523.605   2
   3   4 -10 2320.68 708.046   1
  -7   3 -10 1578.10 626.210   3
  -3   7 -10 2028.17 646.452   1
  -4  -3 -10 2067.54 442.224   1
  -3   7 -10 1849.48 564.789   2
   4  -7 -10 1067.22 669.977   3
  -4  -3 -10 2879.82 770.998   3
   7  -4 -10 2869.78 739.672   1
   3   4 -10 2400.39 709.013   3
  -7   3  -7 420.488 249.987   1
   4  -7  -7 1124.92 446.952   1
  -3   7  -7 389.393 359.609   1
   3   4  -7 539.990 291.037   2
   4  -7  -7 119.013 171.263   4
  -3   7  -7 463.352 321.043   2
   7  -4  -7 331.131 197.860   2
  -7   3  -7 816.223 504.601   3
  -4  -3  -7 429.726 265.907   4
   3   4  -7 473.671 472.990   1
   7  -4  -7 429.019 483.727   1
  -3   7  -7 1035.47 426.367   3
  -4  -3  -7 804.614 418.426   3
  -3   7  -7 105.557 173.340   4
  -4  -3  -7 359.467 256.874   1
   7  -4  -7 254.742 182.678   2
  -7   3  -7 230.566 259.363   4
   4  -7  -7 254.540 242.186   2
   3   4  -4 8155.15 405.008   4
   7  -4  -4 6568.95 655.718   1
  -4  -3  -4 8109.03 708.708   3
  -3   7  -4 8573.54 687.281   2
  -7   3  -4 9411.94 624.515   4
  -3   7  -4 8780.62 541.425   4
   3   4  -4 8112.53 555.540   2
  -4  -3  -4 7925.96 391.298   1
   4  -7  -4 8065.77 458.492   2
  -4  -3  -4 9443.66 664.783   2
  -4  -3  -4 8255.64 607.130   4
   4  -7  -4 9137.32 546.761   4
   4  -7  -4 8097.75 657.127   1
  -7   3  -4 7625.75 651.842   3
  -3   7  -4 9011.80 595.043   3
   3   4  -4 7381.35 698.648   1
  -7   3  -4 6851.27 301.135   1
   4  -7  -1 45037.2 963.316   2
   7  -4  -1 43896.7 1137.34   1
   7  -4  -1 43307.3 905.560   3
   3   4  -1 43804.7 678.227   3
   3   4  -1 43873.7 969.254   2
  -3   7  -1 44276.8 1135.27   4
  -7   3  -1 44894.2 799.152   1
  -4  -3  -1 45396.7 1162.90   4
   4  -7  -1 41078.8 1012.05   1
   4  -7  -1 43975.3 1086.98   4
  -4  -3  -1 44131.3 1052.91   2
  -3   7  -1 41787.1 1094.35   2
  -4  -3  -1 42859.9 939.360   3
  -3   7  -1 44256.2 969.300   1
  -7   3  -1 42031.3 934.171   3
   3   4  -1 42798.7 1039.76   4
   4  -7   2 21692.8 614.205   3
   7  -4   2 18953.5 408.859   1
   3   4   2 20710.5 823.954   2
   3   4   2 19936.2 821.879   3
   3   4   2 20019.3 829.877   4
  -7   3   2 21230.4 946.817   1
   7  -4   2 18161.5 753.540   3
   3   4   2 20017.4 559.545   1
  -3   7   2 18982.3 636.117   2
  -4  -3   2 21467.9 692.510   4
  -3   7   2 21442.2 805.421   1
  -3   7   2 20439.9 771.745   4
  -4  -3   2 18701.8 635.686   2
  -7   3   5 3914.41 611.662   1
   3   4   5 4325.30 464.109   4
  -3   7   5 4006.12 441.229   2
   7  -4   5 4184.41 625.552   3
  -4  -3   5 3319.95 194.170   4
   3   4   5 3510.12 414.604   1
  -3   7   5 3639.53 382.600   4
  -3   7   5 4186.45 573.134   1
  -3   7   8 9794.29 554.489   4
   3   4   8 7808.26 792.788   1
  -7   4 -11 1517.49 677.071   3
   4   3 -11-137.844 675.583   3
   4   3 -11-264.699 610.741   1
  -3  -4 -11 875.364 473.153   1
  -4   7 -11 1157.28 627.274   3
   7  -3 -11-243.836 709.216   3
  -3  -4 -11 1091.92 702.938   3
   3  -7 -11 64.7456 685.330   3
   3  -7 -11 1474.20 578.870   1
   4   3 -11 514.063 420.452   2
  -4   7 -11 1144.65 520.130   1
   7  -3 -11 1707.17 767.948   1
  -4   7 -11 1335.22 576.445   2
   7  -3  -8 8177.11 540.870   2
  -4   7  -8 7215.24 514.065   4
   3  -7  -8 7172.41 785.309   1
   4   3  -8 6108.59 832.053   1
  -4   7  -8 6891.29 799.904   3
   3  -7  -8 7209.46 1029.43   3
  -4   7  -8 6075.48 744.383   1
   3  -7  -8 6162.77 606.931   2
  -7   4  -8 6348.30 594.750   1
  -4   7  -8 8145.95 881.551   2
  -3  -4  -8 6802.07 630.329   4
  -7   4  -8 6459.95 817.860   3
  -3  -4  -8 7721.42 966.749   3
  -7   4  -8 6996.87 623.156   4
  -4   7  -8 6146.28 488.094   4
   3  -7  -8 7324.19 505.927   4
   7  -3  -8 7195.07 898.840   1
   4   3  -8 6766.91 655.342   2
  -3  -4  -8 5786.20 596.342   1
   7  -3  -8 7202.67 529.694   2
   4   3  -5 2902.73 504.599   1
   3  -7  -5 3820.32 391.624   2
   7  -3  -5 3364.79 598.146   1
  -3  -4  -5 3571.69 353.660   1
  -7   4  -5 3767.49 562.683   3
  -3  -4  -5 3715.64 446.386   4
   4   3  -5 3451.00 206.794   4
  -7   4  -5 3895.58 348.886   1
  -3  -4  -5 3918.65 618.576   3
  -4   7  -5 3453.44 364.023   4
   3  -7  -5 3737.86 390.211   4
  -4   7  -5 3381.32 444.385   3
   3  -7  -5 2865.56 490.150   1
   4   3  -5 3092.75 368.585   2
   7  -3  -5 2821.24 229.207   2
  -3  -4  -5 3886.33 494.109   2
  -7   4  -5 3622.99 437.795   4
   7  -3  -5 3589.98 242.271   2
   3  -7  -2 23970.0 829.821   1
   7  -3  -2 22705.5 971.356   1
  -4   7  -2 24694.3 955.358   2
   4   3  -2 23716.6 738.857   4
  -7   4  -2 22258.5 469.192   1
  -3  -4  -2 22444.1 826.487   2
  -4   7  -2 24049.1 588.666   3
  -7   4  -2 23754.6 799.220   3
   7  -3  -2 22233.7 764.808   3
  -3  -4  -2 22169.3 846.044   3
   3  -7  -2 25152.3 848.899   4
   4   3  -2 24999.6 650.587   3
  -3  -4  -2 23758.1 610.833   1
   4   3  -2 23806.4 707.943   2
   3  -7  -2 24527.4 734.357   2
  -4   7  -2 23309.7 710.929   1
  -3  -4  -2 24941.3 911.842   4
  -4   7  -2 22037.7 799.776   4
  -7   4   1 44056.1 1168.79   1
  -4   7   1 41655.2 1043.70   1
   4   3   1 39557.3 961.380   3
  -4   7   1 40347.1 906.635   2
   7  -3   1 41065.4 728.569   1
  -3  -4   1 42940.6 1036.26   4
   7  -3   1 41560.3 968.676   3
  -3  -4   1 40481.6 955.640   2
  -7   4   1 41556.4 955.257   3
   4   3   1 40689.1 1069.84   2
   4   3   1 42375.8 1139.00   4
   3  -7   1 43252.5 1138.45   2
   3  -7   1 44008.7 1090.43   4
  -3  -4   1 40951.8 673.019   3
  -4   7   1 41781.8 1063.06   4
  -4   7   4 7232.46 638.696   1
  -3  -4   4 9635.11 432.026   4
   7  -3   4 7640.48 693.827   3
  -4   7   4 8722.12 525.698   2
   4   3   4 9463.06 632.733   4
  -7   4   4 8985.94 383.675   4
   4   3   4 9817.45 485.163   1
   4   3   4 8539.87 739.729   3
  -4   7   4 7708.86 495.969   4
  -7   4   4 9506.35 795.370   1
  -4   7   7 689.898 222.917   4
   4   3   7 313.326 321.420   1
  -5   7 -12 4426.25 912.850   2
   7  -2 -12 3521.02 1075.95   3
   7  -2 -12 3191.25 865.500   1
  -7   5 -12 3654.29 910.864   3
   2  -7 -12 2575.44 1052.49   3
  -5   7 -12 3146.98 854.728   3
   2  -7 -12 2926.34 692.598   1
   5   2 -12 3650.55 952.540   1
   5   2 -12 3165.70 887.052   3
  -2  -5 -12 5832.41 1168.72   3
  -5   7  -9 20328.0 1370.06   3
   2  -7  -9 18782.9 1224.23   1
  -2  -5  -9 16914.6 912.984   4
  -2  -5  -9 19242.7 1536.19   3
   7  -2  -9 17628.8 870.611   2
   5   2  -9 19185.8 1494.51   1
  -5   7  -9 18659.2 825.631   4
  -7   5  -9 14118.1 849.141   4
   5   2  -9 22104.6 1128.78   2
  -7   5  -9 20286.6 1414.81   3
   2  -7  -9 20670.3 1642.95   3
  -2  -5  -9 18545.8 1045.83   1
  -5   7  -9 16720.3 784.674   4
  -7   5  -9 16781.5 1032.47   1
  -5   7  -9 18971.3 1260.83   1
   7  -2  -9 19252.0 1432.54   1
   7  -2  -9 16501.3 832.941   2
   2  -7  -9 17595.9 776.435   4
  -7   5  -6 8718.10 570.811   1
  -2  -5  -6 10233.0 685.894   4
   7  -2  -6 9167.31 891.271   1
  -5   7  -6 8790.79 746.170   1
  -2  -5  -6 9868.92 925.901   3
  -2  -5  -6 10282.1 790.304   2
  -5   7  -6 9028.74 756.377   3
   2  -7  -6 10232.9 657.024   4
   2  -7  -6 10061.2 751.085   1
   5   2  -6 9805.93 921.468   1
  -7   5  -6 9856.22 687.897   4
  -7   5  -6 9127.07 791.931   3
  -5   7  -6 8920.53 586.365   4
   7  -2  -6 8743.90 458.289   2
   2  -7  -6 9648.17 943.119   3
   7  -2  -6 10056.4 478.167   2
   5   2  -6 9121.34 596.977   2
   2  -7  -6 9320.64 644.432   2
  -2  -5  -6 8641.10 604.066   1
   7  -2  -3 89361.2 1709.61   3
   5   2  -3 93289.0 2095.08   1
   2  -7  -3 95832.6 1731.67   4
  -7   5  -3 91416.9 1714.75   3
   5   2  -3 92256.8 1322.76   4
   2  -7  -3 95534.5 1723.76   1
   5   2  -3 93162.2 1363.70   2
  -5   7  -3 93825.6 1679.79   4
   7  -2  -3 90782.2 2101.09   1
   5   2  -3 93822.0 1584.02   3
   2  -7  -3 93502.3 1555.93   2
  -5   7  -3 92695.5 1520.43   3
  -7   5  -3 95818.7 1079.16   1
  -2  -5  -3 93191.1 1784.33   2
  -2  -5  -3 96689.7 1393.37   1
  -2  -5  -3 96493.8 2011.99   3
  -2  -5  -3 91581.6 1792.24   4
   5   2   0 94190.4 1620.77   4
  -7   5   0 94859.4 1477.85   1
   5   2   0 92572.5 1439.35   2
   7  -2   0 95447.0 1444.04   1
   7  -2   0 92868.3 1328.60   3
   2  -7   0 98053.4 1573.43   2
  -2  -5   0 100007. 1521.93   2
  -7   5   0 97114.0 1310.08   3
   2  -7   0 94359.5 1434.94   1
  -5   7   0 98002.4 1496.33   1
  -2  -5   0 97229.7 1644.19   4
  -5   7   0 93530.5 1592.80   4
  -5   7   0 92457.2 1494.32   2
  -5   7   0 93181.6 1077.92   3
   2  -7   0 97479.6 1606.87   4
  -2  -5   0 97557.9 993.010   3
   5   2   0 91933.9 1222.74   3
  -5   7   3 89971.4 1547.25   4
   5   2   3 85248.8 1014.18   1
  -7   5   3 84009.1 1299.57   4
   2  -7   3 92161.2 1564.21   4
   5   2   3 88918.7 1942.32   2
  -2  -5   3 90179.5 1720.37   2
   7  -2   3 86145.0 1855.67   3
  -2  -5   3 86997.8 1388.21   4
   5   2   3 87513.2 1950.21   3
  -5   7   3 82412.6 1905.88   1
  -5   7   3 88875.3 1275.92   2
  -7   5   3 90628.6 2075.78   1
   5   2   3 86379.0 1777.88   4
   5   2   6 5308.33 450.789   1
  -5   7   6 5872.50 414.151   4
   6   1 -10 2334.49 770.819   1
  -6   7 -10 1982.01 545.590   1
   7  -1 -10 694.301 562.720   1
  -7   6 -10 1839.51 530.478   1
   7  -1 -10 1356.09 361.967   2
  -7   6 -10 1345.24 351.187   4
   1  -7 -10 1535.44 468.410   1
  -6   7 -10 1184.12 297.512   4
  -1  -6 -10 812.993 634.332   3
  -7   6 -10 2530.97 698.315   3
  -1  -6 -10 1936.25 477.594   1
   6   1 -10 1647.71 401.158   2
  -6   7 -10 3042.15 683.101   3
   1  -7 -10 1342.68 769.589   3
  -1  -6  -7 8424.00 945.193   3
   1  -7  -7 8124.10 619.577   4
  -6   7  -7 8871.71 755.028   1
   6   1  -7 9950.07 629.673   2
   1  -7  -7 7461.02 680.865   2
   6   1  -7 8978.67 955.612   1
   7  -1  -7 8368.38 960.027   1
  -6   7  -7 7770.87 786.361   3
  -7   6  -7 8128.70 661.598   1
  -1  -6  -7 9272.18 683.058   4
  -7   6  -7 9232.45 682.237   4
   1  -7  -7 9105.48 985.141   3
   7  -1  -7 8644.38 539.523   2
  -7   6  -7 9499.27 849.859   3
  -1  -6  -7 9478.52 684.497   1
   1  -7  -7 7177.02 703.445   1
  -6   7  -7 8614.35 601.412   4
   1  -7  -4 8825.47 600.485   2
   7  -1  -4 7531.25 705.156   1
   6   1  -4 7770.21 752.814   1
   1  -7  -4 9400.89 621.981   4
   1  -7  -4 7784.34 729.942   3
  -1  -6  -4 8605.00 534.342   1
  -1  -6  -4 8426.40 614.686   4
  -1  -6  -4 8959.38 776.579   3
   6   1  -4 8537.59 433.397   2
  -7   6  -4 8494.84 630.407   3
   1  -7  -4 8240.27 581.089   1
  -6   7  -4 9022.59 605.755   3
   7  -1  -4 8688.22 333.816   2
  -1  -6  -4 8930.57 621.507   2
  -6   7  -1 1728.44 313.677   4
   1  -7  -1 1363.87 258.502   1
   7  -1  -1 1683.42 244.454   3
  -6   7  -1 1687.81 261.907   1
  -1  -6  -1 1490.53 228.510   1
   6   1  -1 1737.89 233.356   3
  -1  -6  -1 1391.53 256.408   3
   1  -7  -1 2063.18 280.784   3
  -1  -6  -1 2090.33 335.846   4
  -6   7  -1 1813.05 348.530   2
  -7   6  -1 1910.80 245.760   3
   1  -7  -1 1969.24 285.699   2
   7  -1  -1 1687.22 214.396   2
  -1  -6  -1 1652.09 267.189   2
   6   1  -1 1890.51 237.979   2
   1  -7  -1 1773.43 308.808   4
  -7   6  -1 1686.42 250.811   1
   7  -1  -1 2102.71 378.473   1
  -6   7  -1 2064.12 211.981   3
   6   1  -1 1818.61 363.799   1
   6   1  -1 1288.49 260.920   4
   1  -7   2 7610.74 558.020   2
   6   1   2 7258.75 544.323   4
  -6   7   2 7020.35 471.562   4
  -6   7   2 7223.65 585.253   1
   6   1   2 5825.29 218.652   1
   6   1   2 7067.26 527.233   3
  -7   6   2 7100.40 467.797   4
   1  -7   2 7994.79 502.558   4
  -7   6   2 6401.03 265.678   2
  -6   7   2 6797.64 335.579   2
  -7   6   2 6569.16 554.876   1
   6   1   2 6551.91 552.195   2
  -1  -6   2 7677.75 536.659   2
  -1  -6   2 7027.89 458.758   4
  -6   7   5 1659.97 261.166   4
  -6   7   5 1766.17 468.770   1
   6   1   5 1656.02 222.944   1
  -7   6   5 1674.11 470.327   1
  -7   6   5 1442.66 212.697   4
   0  -7 -11 899.629 821.636   3
   0  -7 -11 189.172 414.850   1
   7   0 -11 246.560 683.143   3
  -7   7 -11-102.175 449.534   1
   7   0 -11-46.0026 696.979   1
  -7   7 -11-271.873 538.957   3
   0  -7  -8 26035.6 1219.81   1
  -7   7  -8 21610.8 1038.33   4
  -7   7  -8 22972.1 1353.32   3
   0  -7  -8 21646.7 1032.21   4
  -7   7  -8 22474.2 1183.78   1
   7   0  -8 24166.4 1601.20   1
   0  -7  -8 25875.7 1672.76   3
  -7   7  -8 23510.5 1033.94   4
   7   0  -8 23613.6 958.941   2
   0  -7  -5 548.098 435.528   3
   0  -7  -5-55.2399 229.558   4
  -7   7  -5 195.238 300.887   3
   7   0  -5-239.092 158.494   2
   7   0  -5 340.982 417.856   1
   0  -7  -5 312.097 283.074   1
   0  -7  -5 75.3216 224.712   2
   0  -7  -2 38323.3 978.720   1
   7   0  -2 37219.3 740.295   2
  -7   7  -2 40200.1 877.119   1
   7   0  -2 36077.8 1276.31   1
   0  -7  -2 36691.9 1103.62   3
  -7   7  -2 39331.8 920.346   3
   7   0  -2 38240.6 938.145   3
   0  -7  -2 39696.9 1069.44   2
   0  -7  -2 37677.6 1142.64   4
  -7   7   1 520.466 252.055   3
   7   0   1 35.0603 210.251   3
   7   0   1 319.703 188.445   1
  -7   7   1 308.931 181.392   2
   7   0   1 209.154 289.386   4
   0  -7   1 57.0031 205.608   4
  -7   7   1 207.873 240.796   4
   0  -7   1 660.408 258.679   2
  -7   7   1 255.737 244.280   1
   7   0   1 269.399 226.287   2
   0  -7   4 4855.35 404.127   4
  -7   7   4 5646.66 318.256   2
   7   0   4 4837.34 588.870   3
  -7   7   4 5769.83 426.864   4
  -7   7   4 4284.93 561.096   1
  -7   7   7 46.9567 100.789   4
   0   8 -11-104.968 453.080   2
   0   8 -11-686.633 643.504   1
  -8   0 -11 323.861 669.128   3
   8  -8 -11-680.593 830.591   3
   0   8 -11 1279.58 700.245   3
   8  -8 -11-77.5800 526.227   1
   0   8  -8 16075.7 1128.95   3
   8  -8  -8 17551.2 1289.71   1
   0   8  -8 14647.5 567.498   4
   0   8  -8 14555.3 1083.81   2
   8  -8  -8 15275.9 675.478   2
  -8   0  -8 14582.3 1204.48   3
   0   8  -8 14633.4 1212.96   1
   8  -8  -5 101.806 107.532   2
  -8   0  -5-346.136 283.965   4
  -8   0  -5 359.107 393.174   3
   0   8  -5 153.050 299.096   3
   0   8  -5 51.7708 227.606   2
   8  -8  -5 725.523 363.214   1
   0   8  -5-46.2292 198.588   4
   0   8  -2 102176. 1936.99   2
  -8   0  -2 100442. 2021.84   4
   0   8  -2 103953. 885.966   3
   8  -8  -2 101716. 1752.96   3
   8  -8  -2 105378. 1405.84   2
   8  -8  -2 103040. 2043.17   1
  -8   0  -2 101692. 1998.60   2
   0   8  -2 100359. 1873.85   4
  -8   0  -2 102531. 1829.87   3
  -8   0   1 251.903 212.826   3
   0   8   1 123.751 190.678   1
  -8   0   1 243.344 222.873   4
   8  -8   1 241.409 180.318   1
  -8   0   1 233.363 163.510   2
   8  -8   1 338.154 192.141   3
   0   8   1 15.4986 217.703   2
   0   8   1 50.1300 239.624   4
   0   8   4 40402.4 1356.27   2
  -8   0   4 42498.5 1659.33   1
  -8   0   4 41961.9 944.148   4
   8  -8   4 41220.8 1385.65   3
   0   8   4 43187.6 1317.62   1
   0   8   4 41669.7 1371.60   4
   0   8   7-261.209 413.725   1
   0   8   7 13.1047 255.389   4
  -1   8 -12 2800.45 858.270   3
  -7  -1 -12 2132.20 875.542   3
   7  -8 -12 2882.94 838.142   1
   8  -7 -12 2365.42 804.623   1
   1   7 -12 2018.76 617.181   2
   1   7 -12 2114.43 815.480   3
   1   7 -12 2277.71 822.346   1
   7  -8 -12 2858.65 1097.18   3
   8  -7 -12 1718.77 835.374   3
  -1   8 -12 459.375 689.875   1
  -8   1 -12 1435.21 726.423   3
  -1   8 -12 1782.21 626.861   2
  -1   8  -9 6016.42 906.748   1
  -7  -1  -9 6177.65 947.649   3
  -8   1  -9 4230.47 389.157   1
  -8   1  -9 6371.02 919.045   3
   1   7  -9 5554.38 778.784   3
   8  -7  -9 4895.20 846.040   1
  -1   8  -9 5880.71 759.903   2
   1   7  -9 4753.11 697.711   2
   7  -8  -9 5183.93 800.427   1
   1   7  -9 5862.29 879.373   1
  -1   8  -9 3765.39 684.928   3
  -7  -1  -9 4638.81 426.115   1
   7  -8  -6 6620.06 420.673   2
   1   7  -6 7105.69 665.378   2
  -7  -1  -6 4822.86 286.062   1
  -1   8  -6 6461.55 685.646   2
  -8   1  -6 4746.24 230.403   1
  -7  -1  -6 6697.35 784.811   3
  -8   1  -6 6021.97 602.267   4
   7  -8  -6 6254.64 720.471   1
   1   7  -6 7043.17 801.213   1
  -8   1  -6 5494.19 736.686   3
  -1   8  -6 5578.20 599.857   3
   8  -7  -6 6302.62 788.593   1
  -1   8  -6 6031.73 733.585   1
   8  -7  -6 5884.80 325.567   2
  -7  -1  -6 5886.07 604.069   4
   1   7  -6 7404.44 464.639   4
  -1   8  -6 6558.61 496.736   4
   7  -8  -3 22418.6 625.405   2
  -8   1  -3 23214.9 980.752   4
   1   7  -3 24144.4 885.950   4
  -7  -1  -3 22818.6 1019.20   2
  -8   1  -3 21165.0 984.730   3
  -1   8  -3 24294.2 910.145   4
  -7  -1  -3 24121.4 1006.84   4
  -1   8  -3 22581.1 1004.10   2
  -8   1  -3 22750.2 1051.42   2
  -1   8  -3 21449.2 661.826   3
   8  -7  -3 20663.0 1016.81   1
   1   7  -3 23467.1 950.412   2
   7  -8  -3 22331.2 824.098   4
   7  -8  -3 21753.6 1016.56   1
  -7  -1  -3 22173.0 980.142   3
   8  -7  -3 18992.6 458.139   2
  -7  -1   0 18084.5 688.031   2
   8  -7   0 17871.8 695.354   1
  -7  -1   0 19243.5 806.857   4
   1   7   0 18769.9 821.234   4
  -8   1   0 19517.5 733.608   1
   7  -8   0 18810.3 563.990   3
  -1   8   0 19377.6 711.843   1
   1   7   0 18003.9 743.712   2
  -8   1   0 18925.7 797.835   4
   8  -7   0 18592.5 601.957   3
  -1   8   0 16800.3 730.693   2
  -8   1   0 19136.5 672.542   3
   1   7   0 19655.6 699.594   1
  -7  -1   0 18968.2 633.615   3
  -1   8   0 18286.1 807.967   4
   1   7   0 18546.3 491.859   3
   7  -8   0 17496.2 692.119   1
  -8   1   0 19613.6 712.066   2
   1   7   3 47331.6 1359.40   2
  -7  -1   3 43950.1 943.023   2
   7  -8   3 49200.7 1254.57   3
  -1   8   3 47389.2 1349.12   4
   1   7   3 50052.2 1206.69   1
  -8   1   3 44771.9 747.104   2
  -1   8   3 47837.2 1292.10   1
   1   7   3 48537.8 1406.05   4
  -8   1   3 44797.8 1556.01   1
  -7  -1   3 49275.4 1083.00   4
   8  -7   3 47593.8 1304.85   3
  -8   1   3 49255.2 1092.57   4
  -1   8   3 47323.0 1270.92   2
  -1   8   6 5907.40 679.576   1
   1   7   6 5534.43 558.961   4
   1   7   6 6432.10 639.324   1
  -1   8   6 6196.67 569.539   4
  -2   8 -10 11003.0 1143.60   1
  -8   2 -10 6536.39 564.706   1
   8  -6 -10 11108.3 1208.55   1
  -2   8 -10 9701.72 1068.63   3
   2   6 -10 13084.8 1085.34   2
   6  -8 -10 11057.2 1372.19   3
  -6  -2 -10 12615.0 1318.07   3
   8  -6 -10 7733.24 593.755   2
  -2   8 -10 11249.9 1119.73   2
   6  -8 -10 10422.1 1082.17   1
  -6  -2 -10 8812.74 658.206   1
   2   6 -10 11387.2 1195.81   3
   2   6 -10 12716.9 1311.59   1
  -8   2 -10 11511.5 1206.50   3
  -2   8  -7 27407.9 1440.41   1
  -2   8  -7 24035.2 1256.74   3
   8  -6  -7 25604.4 728.991   2
  -6  -2  -7 21796.4 1094.43   4
   2   6  -7 26954.2 1281.01   2
   6  -8  -7 26543.7 949.326   2
   2   6  -7 21481.5 564.836   4
  -8   2  -7 23109.1 716.415   1
  -8   2  -7 24231.5 1157.26   4
  -2   8  -7 28810.3 963.023   4
   2   6  -7 27252.3 1531.52   1
   8  -6  -7 26057.5 1477.69   1
  -8   2  -7 28035.9 1485.00   3
  -2   8  -7 25964.4 1374.72   2
   6  -8  -7 26823.0 834.967   4
  -6  -2  -7 25703.1 1507.96   3
  -6  -2  -7 22380.1 767.309   1
   6  -8  -7 25420.7 1377.72   1
  -8   2  -4 8379.16 637.102   4
   8  -6  -4 9126.89 745.097   1
  -8   2  -4 7390.35 659.224   3
  -2   8  -4 9091.00 572.857   4
  -6  -2  -4 8093.99 679.556   2
  -8   2  -4 8064.82 713.887   2
  -6  -2  -4 7510.92 608.517   4
  -6  -2  -4 7865.33 304.005   1
  -2   8  -4 9178.98 726.656   2
  -2   8  -4 7538.10 524.866   3
   2   6  -4 7676.63 598.577   2
   2   6  -4 9464.73 526.706   4
   6  -8  -4 8981.52 441.493   2
  -6  -2  -4 8617.79 766.576   3
   6  -8  -4 8611.57 545.922   4
   6  -8  -4 9168.80 751.179   1
  -6  -2  -1 51326.4 1124.12   3
  -8   2  -1 51588.4 1327.79   4
  -6  -2  -1 52270.8 1243.91   2
  -6  -2  -1 52743.5 1350.90   4
   6  -8  -1 53712.0 1268.46   4
  -8   2  -1 51723.2 1124.17   3
   2   6  -1 51709.1 1218.28   2
   8  -6  -1 49884.4 1274.82   1
  -8   2  -1 52251.4 1274.42   2
   8  -6  -1 51681.7 1050.51   3
   6  -8  -1 51440.1 1138.56   2
   6  -8  -1 51936.9 1242.23   1
   2   6  -1 53474.4 665.599   3
  -2   8  -1 51249.4 1304.47   4
   2   6  -1 48257.9 1222.44   4
  -8   2  -1 53164.2 957.989   1
   6  -8  -1 51665.2 1011.32   3
  -2   8  -1 54596.1 1171.80   1
  -2   8  -1 51728.3 1290.09   2
  -8   2   2 28984.7 539.966   2
   8  -6   2 29323.4 655.131   1
  -8   2   2 31180.4 959.619   3
   2   6   2 33111.3 851.840   1
   2   6   2 32969.2 1054.80   2
  -8   2   2 29572.1 868.461   4
  -6  -2   2 31224.4 812.365   2
   2   6   2 30367.4 1032.27   3
  -6  -2   2 29590.9 881.342   4
  -2   8   2 33139.0 1010.84   1
   8  -6   2 29953.4 924.500   3
  -2   8   2 29461.1 898.677   2
   2   6   2 31615.6 1092.00   4
   6  -8   2 31480.3 796.750   3
  -2   8   2 29804.1 1024.89   4
  -6  -2   2 31788.6 870.174   3
  -8   2   2 30005.8 1187.56   1
  -6  -2   5 8264.22 337.092   4
  -8   2   5 7861.43 297.725   4
   2   6   5 8533.48 709.164   2
   2   6   5 10786.1 709.424   4
  -8   2   5 7637.18 299.775   4
  -2   8   5 10867.4 723.706   2
  -2   8   5 9928.80 771.331   1
   8  -6   5 10626.8 872.170   3
  -2   8   5 11490.3 694.674   4
   2   6   5 10816.9 689.177   1
  -2   8   8 9745.39 647.392   4
   2   6   8 8667.01 813.662   1
   2   6   8 9571.06 722.096   4
  -5  -3 -11 2344.07 848.618   3
   8  -5 -11 3038.03 856.256   1
  -3   8 -11 2746.22 753.932   2
   5  -8 -11 2463.30 686.412   1
   3   5 -11 3227.19 633.541   2
   3   5 -11 4377.39 960.726   3
   3   5 -11 2749.31 826.837   1
   5  -8 -11 2986.51 1031.11   3
  -8   3 -11 2085.47 759.980   3
  -3   8 -11 3959.65 838.156   3
  -3   8 -11 2866.24 766.427   1
  -5  -3  -8 5708.88 931.783   3
   5  -8  -8 4935.61 718.202   1
   5  -8  -8 4027.53 497.884   2
  -3   8  -8 5210.54 704.063   3
   3   5  -8 4926.52 742.643   1
  -5  -3  -8 4945.93 462.926   1
   8  -5  -8 5476.82 802.499   1
  -8   3  -8 3879.96 723.122   3
  -3   8  -8 5270.98 449.512   4
   8  -5  -8 5147.97 393.324   2
  -3   8  -8 4974.52 733.510   1
  -3   8  -8 5626.66 732.054   2
   5  -8  -8 5309.18 396.137   4
   8  -5  -8 4854.44 409.244   2
   3   5  -8 6472.36 683.766   2
  -8   3  -8 4343.84 437.498   1
  -5  -3  -8 4167.66 555.081   4
  -8   3  -8 4730.86 592.632   4
  -5  -3  -5 11887.6 767.659   4
  -8   3  -5 12603.5 892.672   3
   5  -8  -5 15066.8 724.103   4
  -3   8  -5 12790.1 780.611   3
   8  -5  -5 12956.3 955.801   1
  -8   3  -5 13559.6 812.501   4
   3   5  -5 13143.9 963.118   1
   5  -8  -5 12963.7 857.874   1
  -3   8  -5 13388.3 891.330   2
   3   5  -5 13080.1 531.508   4
   3   5  -5 13704.4 784.947   2
  -8   3  -5 11234.1 376.414   1
  -5  -3  -5 14863.0 1014.02   3
   5  -8  -5 12042.1 584.367   2
  -5  -3  -5 12729.0 508.096   1
  -5  -3  -5 11852.1 848.083   2
  -3   8  -5 14085.3 702.818   4
   5  -8  -2 17043.7 625.544   2
  -3   8  -2 17697.3 842.906   2
   8  -5  -2 15451.9 828.232   1
  -5  -3  -2 16657.3 785.257   2
   5  -8  -2 16679.0 770.375   1
  -8   3  -2 14773.9 386.706   1
  -8   3  -2 17360.4 748.551   3
   3   5  -2 17227.3 500.792   3
   5  -8  -2 16274.0 739.434   4
   8  -5  -2 16304.2 700.170   3
  -3   8  -2 17728.1 782.232   4
  -5  -3  -2 18094.3 836.482   4
   3   5  -2 17748.8 711.896   2
  -3   8  -2 18047.4 444.753   3
  -5  -3  -2 16151.7 767.592   3
   3   5  -2 16999.3 708.010   4
  -3   8   1 25144.7 801.078   2
   5  -8   1 26238.4 546.282   3
   8  -5   1 25603.9 768.215   3
  -3   8   1 26783.4 874.806   1
  -8   3   1 26432.7 812.763   3
   3   5   1 23653.1 761.044   3
   5  -8   1 24827.0 755.962   1
   3   5   1 24475.5 932.437   4
   8  -5   1 25244.8 653.559   1
  -3   8   1 24793.8 909.151   4
  -5  -3   1 23222.2 817.668   4
   5  -8   1 26070.5 905.441   4
  -5  -3   1 24679.0 642.788   3
  -8   3   1 25842.5 946.428   1
   3   5   1 24530.0 689.839   1
   3   5   1 20215.9 774.928   2
  -8   3   1 26499.1 638.721   2
   5  -8   1 26456.8 957.291   2
  -5  -3   1 23253.9 724.659   2
  -8   3   4 38785.5 823.797   4
   3   5   4 38396.0 1040.13   1
  -3   8   4 39553.7 1187.81   4
  -3   8   4 38498.7 1372.38   1
  -3   8   4 37438.6 1130.96   2
  -5  -3   4 37559.3 1109.63   2
  -5  -3   4 35628.6 826.129   4
   3   5   4 34035.0 1311.09   2
  -8   3   4 36094.0 1562.14   1
   8  -5   4 35964.1 1357.71   3
   3   5   4 37103.2 1261.64   4
  -3   8   7 8038.20 574.679   4
   3   5   7 8502.06 725.793   1
   3   5   7 10059.3 724.028   4
  -4   8 -12 2297.68 745.225   2
  -4   8 -12 3405.16 859.001   1
   8  -4 -12 2910.62 944.796   1
  -4   8 -12 1548.36 704.483   3
  -4  -4 -12 2280.80 867.021   3
   4  -8 -12 3308.22 767.683   1
   4   4 -12 1735.67 835.759   3
  -8   4 -12 2860.97 900.152   3
   4  -8 -12 2927.99 1028.05   3
   4   4 -12 2623.67 865.848   1
   8  -4 -12 1029.41 832.517   3
   4  -8  -9 7776.43 898.127   1
  -4   8  -9 8959.40 934.117   3
  -8   4  -9 9633.99 1051.04   3
   4   4  -9 8743.22 791.080   2
   8  -4  -9 7056.96 536.986   2
   4   4  -9 9130.75 1059.09   1
  -4  -4  -9 9012.55 1063.23   3
  -8   4  -9 7737.24 637.335   1
   4  -8  -9 10252.5 1250.12   3
  -4  -4  -9 6892.63 595.435   1
   8  -4  -9 6810.32 951.240   1
  -4   8  -9 8642.44 560.333   4
  -4   8  -9 10163.6 1011.62   1
  -4   8  -9 7768.19 919.403   2
   8  -4  -6 2285.24 209.379   2
   4   4  -6 2753.27 406.628   2
  -8   4  -6 2274.33 409.132   4
   4  -8  -6 3402.19 403.187   4
   4   4  -6 2198.36 507.526   1
  -4   8  -6 2750.51 363.653   4
  -4   8  -6 2189.76 461.447   2
  -4   8  -6 2057.45 439.960   1
  -8   4  -6 2860.19 545.012   3
   4  -8  -6 2142.89 332.620   2
  -4  -4  -6 2698.30 594.872   3
  -4   8  -6 1875.73 407.256   3
  -4  -4  -6 2705.06 425.623   4
  -4  -4  -6 2785.11 334.124   1
  -8   4  -6 2455.09 296.153   1
   8  -4  -6 3483.45 613.341   1
   4  -8  -6 3005.03 492.306   1
   4   4  -6 2123.92 153.271   4
   8  -4  -6 1825.74 199.669   2
   8  -4  -3 44325.9 1499.20   1
   4   4  -3 51039.0 1187.33   2
  -4   8  -3 48649.6 1480.30   2
   4   4  -3 47159.6 1508.55   1
   4   4  -3 49556.1 1089.87   3
   8  -4  -3 48613.5 1310.34   3
  -4  -4  -3 47189.9 1425.78   3
  -4   8  -3 47418.2 1250.36   4
  -4  -4  -3 48308.2 1380.60   4
  -4   8  -3 48391.1 1022.24   3
   4  -8  -3 50849.5 1106.89   2
  -8   4  -3 48717.0 1327.38   3
  -4  -4  -3 49363.9 888.930   1
   4  -8  -3 46144.5 1322.45   1
   4   4  -3 48504.0 1091.22   4
   4  -8  -3 54413.9 1349.19   4
  -4  -4  -3 46147.1 1352.66   2
   8  -4   0 92173.2 1357.37   3
  -4  -4   0 91115.9 1657.93   4
   4  -8   0 94553.9 1490.01   1
  -8   4   0 90167.0 1366.59   3
   4  -8   0 94758.5 1642.15   2
  -4   8   0 92662.8 1503.20   1
   4   4   0 90329.8 1194.83   3
   4   4   0 90198.7 1507.07   2
  -8   4   0 87492.2 1517.72   1
  -4   8   0 89802.5 1547.94   2
  -4  -4   0 93146.4 1509.19   2
   4  -8   0 92531.3 1678.93   4
  -4  -4   0 92917.0 1140.06   3
   4   4   0 88195.5 1675.43   4
   4  -8   0 94057.8 940.556   3
   8  -4   0 91294.8 1482.64   1
  -4  -4   3 46163.2 1186.80   2
   4   4   3 46628.6 1366.74   4
   4   4   3 49521.5 948.188   1
  -4   8   3 44177.8 1213.01   4
  -4   8   3 47344.6 1394.94   1
  -4  -4   3 48037.1 1058.13   4
   4   4   3 49280.0 1458.50   2
  -8   4   3 47707.7 1594.96   1
   8  -4   3 46452.1 1369.37   3
  -4   8   3 46610.6 1073.31   2
   4   4   3 46722.3 1459.42   3
   4   4   6 2182.18 394.862   4
  -4   8   6 2193.77 539.327   1
  -4   8   6 1852.17 315.564   4
   4   4   6 2585.22 389.377   1
   4   4   9 6380.52 725.263   1
   5   3 -10 1501.11 436.893   2
  -3  -5 -10 1011.33 395.066   1
   8  -3 -10 2222.37 707.598   1
   8  -3 -10 1181.96 318.887   2
  -5   8 -10 2428.50 653.270   1
   5   3 -10 2061.31 774.240   1
  -5   8 -10 2367.37 695.518   2
  -8   5 -10 1346.08 553.911   3
  -8   5 -10 1349.00 405.003   1
  -5   8 -10 2593.86 713.906   3
   3  -8 -10 3469.98 980.695   3
   5   3 -10 2338.01 778.390   3
  -3  -5 -10 1969.40 807.947   3
  -8   5 -10 2262.35 435.522   4
   3  -8 -10 2622.77 631.675   1
  -5   8  -7 8701.41 596.776   4
  -3  -5  -7 8451.00 678.710   4
   8  -3  -7 8931.72 465.380   2
  -5   8  -7 8488.13 785.380   3
  -8   5  -7 9222.58 639.146   1
  -5   8  -7 7545.07 807.324   2
   3  -8  -7 8401.68 772.339   1
   3  -8  -7 8697.79 669.560   2
   3  -8  -7 9778.53 659.372   4
   5   3  -7 9139.54 684.298   2
  -3  -5  -7 8019.14 947.372   3
   8  -3  -7 7027.93 425.003   2
   3  -8  -7 9128.04 1037.19   3
  -5   8  -7 10468.6 885.866   1
  -8   5  -7 8550.81 870.709   3
   8  -3  -7 8192.98 920.719   1
  -3  -5  -7 7651.37 579.344   1
  -8   5  -7 7601.35 665.354   4
   5   3  -7 8390.82 904.815   1
  -3  -5  -4 37394.1 1246.12   4
   3  -8  -4 38326.3 1207.97   4
  -3  -5  -4 38655.0 1286.61   2
   8  -3  -4 34382.9 1444.43   1
  -8   5  -4 35157.2 1249.83   3
  -3  -5  -4 37145.1 1435.61   3
  -5   8  -4 37015.9 1132.36   4
   3  -8  -4 36580.2 1213.76   1
  -5   8  -4 35447.4 1107.72   3
  -5   8  -4 34866.8 1407.56   2
   5   3  -4 39490.4 1053.61   2
   5   3  -4 35991.3 841.268   4
  -3  -5  -4 36921.4 920.294   1
   3  -8  -4 36888.1 1056.72   2
  -8   5  -4 37045.5 672.840   1
   5   3  -4 34322.6 1445.45   1
   5   3  -1 25539.9 640.561   3
   3  -8  -1 25320.7 829.938   1
   5   3  -1 25531.0 760.192   2
  -5   8  -1 27829.1 527.571   3
  -5   8  -1 25027.1 906.945   4
  -3  -5  -1 26412.7 865.397   2
   8  -3  -1 26603.9 963.224   1
  -5   8  -1 27538.2 812.296   1
   3  -8  -1 27359.9 871.134   2
  -3  -5  -1 23767.4 930.447   4
   5   3  -1 25224.8 880.664   4
  -5   8  -1 26644.3 974.633   2
  -8   5  -1 28424.0 747.291   1
   3  -8  -1 28483.6 958.367   4
   8  -3  -1 26943.2 769.311   3
  -3  -5  -1 24966.4 730.724   3
  -8   5  -1 25510.5 750.922   3
   8  -3   2 15734.1 739.100   3
   5   3   2 15947.0 759.804   3
  -5   8   2 17195.1 806.919   1
   3  -8   2 16196.0 816.084   2
  -5   8   2 16110.7 579.139   2
  -8   5   2 15540.1 849.899   1
  -3  -5   2 15849.0 672.419   4
  -5   8   2 15155.1 715.142   4
  -3  -5   2 15416.1 683.742   2
   5   3   2 16834.4 470.093   1
   3  -8   2 16221.6 731.221   4
   5   3   2 15536.5 796.282   4
   5   3   2 15778.1 797.107   2
  -3  -5   5 13110.8 508.942   4
  -8   5   5 13142.5 478.545   4
   5   3   5 15147.9 650.312   1
  -5   8   5 13485.8 686.789   2
  -5   8   5 11799.5 906.005   1
   5   3   5 14131.8 820.989   4
  -5   8   5 14537.6 696.531   4
   5   3   8 6117.30 611.208   1
  -5   8   8 7667.07 468.109   4
  -2  -6 -11 6176.40 727.490   1
   8  -2 -11 5461.03 1096.20   1
   2  -8 -11 6864.47 1277.71   3
  -8   6 -11 7575.22 1050.17   3
  -2  -6 -11 7010.23 1133.34   3
   2  -8 -11 6632.58 877.353   1
   6   2 -11 6513.80 1068.20   1
   6   2 -11 6348.46 1116.46   3
  -6   8 -11 6174.55 965.959   2
  -6   8 -11 7078.01 989.616   3
  -6   8 -11 5879.85 869.161   1
   2  -8  -8 10871.7 885.924   1
   2  -8  -8 12372.0 1190.91   3
  -6   8  -8 10569.9 735.367   4
  -2  -6  -8 7423.27 953.401   3
   6   2  -8 9266.87 1080.25   1
   8  -2  -8 9525.51 558.127   2
  -6   8  -8 12085.9 993.943   3
  -6   8  -8 11449.6 710.419   4
  -2  -6  -8 9650.46 744.905   1
  -8   6  -8 11538.0 821.015   1
   8  -2  -8 10735.2 583.215   2
  -2  -6  -8 9544.07 733.490   4
   8  -2  -8 10179.8 1070.80   1
  -8   6  -8 9312.38 934.941   3
   2  -8  -8 10721.5 709.502   4
  -8   6  -8 8744.27 730.885   4
  -6   8  -8 12564.7 964.094   1
   6   2  -8 10679.5 729.864   2
  -8   6  -5 9330.93 522.967   1
   8  -2  -5 7727.94 314.632   2
  -6   8  -5 10468.6 712.776   3
  -2  -6  -5 10788.3 713.064   4
  -2  -6  -5 9565.94 718.085   2
  -2  -6  -5 8833.44 561.552   1
   2  -8  -5 10133.0 640.496   2
   6   2  -5 9047.85 526.770   2
  -2  -6  -5 9055.45 846.808   3
  -6   8  -5 9807.70 645.593   4
   2  -8  -5 8535.04 668.401   1
  -8   6  -5 9015.97 726.736   3
   8  -2  -5 9130.69 867.351   1
   2  -8  -5 10977.7 694.796   4
   6   2  -5 9908.05 922.285   1
  -6   8  -2 36989.8 1252.07   2
   8  -2  -2 31878.4 928.427   3
  -2  -6  -2 32030.7 1013.80   2
   6   2  -2 33146.3 820.731   3
   6   2  -2 32316.4 804.368   2
  -8   6  -2 32496.7 755.043   1
   2  -8  -2 32459.5 966.089   1
   8  -2  -2 31651.7 601.125   2
  -8   6  -2 32953.9 918.414   3
   2  -8  -2 35137.7 990.364   2
  -2  -6  -2 31742.2 1022.75   3
  -2  -6  -2 34310.6 1143.23   4
  -6   8  -2 32976.6 760.896   3
  -2  -6  -2 33013.1 853.921   1
   6   2  -2 32462.2 1192.01   1
  -6   8  -2 32536.1 1043.65   4
   8  -2  -2 32327.1 1189.22   1
   6   2  -2 32941.7 944.565   4
   2  -8  -2 35034.4 1103.58   4
  -6   8  -2 32955.4 878.545   1
  -8   6   1 54591.0 1161.49   3
  -8   6   1 55368.6 1014.74   2
   6   2   1 55164.3 1396.77   4
  -6   8   1 54084.4 1089.14   2
  -2  -6   1 55795.0 682.844   3
   6   2   1 54985.2 1194.43   3
  -6   8   1 55818.8 1330.00   1
  -2  -6   1 55889.2 1263.42   2
   8  -2   1 53624.5 1179.78   3
  -6   8   1 53539.3 1310.87   4
   6   2   1 53607.7 1311.68   2
   2  -8   1 57397.2 1383.66   2
  -8   6   1 57092.8 1407.16   1
   2  -8   1 57368.6 1349.88   4
  -2  -6   1 55640.8 1289.73   4
   8  -2   1 57023.2 980.071   1
  -6   8   4 7806.42 698.985   1
  -2  -6   4 7402.66 473.908   4
  -6   8   4 7127.30 495.430   4
  -8   6   4 7257.65 763.199   1
   2  -8   4 7770.97 525.252   4
  -2  -6   4 7450.23 599.227   2
  -8   6   4 7781.70 447.845   4
   6   2   4 7457.81 725.285   3
   8  -2   4 7702.84 716.554   3
   6   2   4 6966.80 349.664   1
  -6   8   4 7978.66 451.001   2
   6   2   4 8477.80 649.542   4
   6   2   7 29068.0 983.965   1
  -6   8   7 28806.7 885.761   4
   8  -1 -12 2252.16 926.654   1
   7   1 -12 3055.12 920.667   3
   1  -8 -12 4022.83 1114.14   3
   8  -1 -12 997.195 809.628   3
  -7   8 -12 3229.80 829.003   2
   1  -8 -12 1617.45 594.286   1
  -1  -7 -12 2009.97 892.939   3
  -7   8 -12 3465.75 819.143   3
   7   1 -12 2619.53 937.134   1
  -8   7 -12 3441.02 836.475   3
  -8   7 -12 2137.41 810.565   2
   8  -1  -9 22661.2 941.496   2
  -7   8  -9 27851.8 1579.16   3
   8  -1  -9 22404.6 1625.05   1
  -1  -7  -9 26086.5 1244.66   1
  -8   7  -9 25171.4 1286.02   1
  -7   8  -9 24248.9 1368.17   1
   7   1  -9 25383.3 1694.30   1
   1  -8  -9 27990.8 1844.13   3
  -1  -7  -9 23137.9 1715.01   3
   7   1  -9 24053.9 1081.23   2
  -8   7  -9 26225.8 1149.42   4
   1  -8  -9 27291.7 1379.03   1
  -8   7  -9 27111.2 1581.93   3
  -7   8  -9 24104.4 1040.26   4
   8  -1  -6 8996.74 914.583   1
   1  -8  -6 7151.45 618.869   2
   7   1  -6 6370.45 792.052   1
   1  -8  -6 7358.49 652.291   1
  -7   8  -6 6633.38 607.560   1
   1  -8  -6 7672.29 630.547   4
   1  -8  -6 6505.55 837.552   3
  -8   7  -6 6520.48 697.328   3
  -1  -7  -6 6382.21 602.106   4
  -1  -7  -6 6711.94 633.175   2
  -1  -7  -6 7891.33 603.966   1
  -7   8  -6 8051.93 729.144   3
  -1  -7  -6 6238.29 775.538   3
   7   1  -6 6516.34 462.988   2
  -8   7  -6 7273.99 577.092   1
   8  -1  -6 6069.82 367.009   2
  -7   8  -6 6810.25 578.511   4
   7   1  -3 47455.5 1039.51   4
   7   1  -3 49545.3 934.784   2
   1  -8  -3 48341.2 1455.60   3
   7   1  -3 46189.8 1587.90   1
   8  -1  -3 48466.0 734.681   2
  -8   7  -3 50870.4 966.045   1
  -1  -7  -3 51218.8 1453.13   4
   7   1  -3 49989.2 1210.52   3
  -1  -7  -3 49107.9 1150.39   1
   1  -8  -3 51882.0 1434.90   4
   8  -1  -3 46967.6 1227.81   3
  -7   8  -3 53163.8 1096.89   1
  -8   7  -3 51015.5 1259.47   3
  -7   8  -3 48646.4 1150.30   3
   1  -8  -3 50719.2 1259.92   1
  -1  -7  -3 49434.4 1496.58   3
  -7   8  -3 49278.0 1352.89   4
   8  -1  -3 47670.4 1608.36   1
   1  -8  -3 51640.1 1295.41   2
  -1  -7  -3 51188.1 1350.85   2
   8  -1   0 20250.2 742.314   2
  -7   8   0 20007.1 789.021   2
   8  -1   0 20508.5 774.343   1
  -7   8   0 21148.4 783.178   1
  -8   7   0 19877.5 767.483   1
  -7   8   0 19841.3 833.610   4
  -1  -7   0 19945.8 824.830   4
  -8   7   0 20397.1 654.918   3
   7   1   0 19079.2 806.241   4
   1  -8   0 21037.9 814.038   2
   1  -8   0 21190.5 458.251   3
   7   1   0 20419.9 664.251   3
  -1  -7   0 20385.6 461.156   3
   7   1   0 20208.5 747.536   2
  -1  -7   0 21024.4 802.199   2
   1  -8   0 22022.8 858.997   4
   8  -1   0 18662.2 664.617   3
   7   1   0 19347.7 752.707   1
  -7   8   0 20223.5 622.934   3
  -8   7   3 18330.1 730.949   4
   1  -8   3 20421.0 962.730   2
  -1  -7   3 20528.1 940.101   2
   7   1   3 19287.0 952.764   3
  -8   7   3 20279.2 1044.37   1
  -1  -7   3 21621.6 810.910   4
   1  -8   3 21170.9 830.750   4
  -8   7   3 18519.5 420.197   2
   8  -1   3 20345.3 973.038   3
   7   1   3 19687.9 929.364   4
  -7   8   3 18716.1 782.702   4
  -7   8   3 22727.6 1075.11   1
  -7   8   3 20017.8 570.154   2
  -8   7   6 7306.49 414.256   4
  -7   8   6 8113.40 478.028   4
   0  -8 -10 10014.2 1293.08   3
  -8   8 -10 7704.35 852.135   1
   8   0 -10 8090.92 1105.00   1
   8   0 -10 8190.23 648.050   2
  -8   8 -10 8768.70 684.783   4
   0  -8 -10 10004.4 909.833   1
  -8   8 -10 9186.50 1035.50   3
  -8   8  -7 326.778 317.403   1
   8   0  -7-258.344 408.512   1
   0  -8  -7-165.948 455.876   3
   0  -8  -7-125.777 267.543   4
   0  -8  -7 35.8761 316.768   1
  -8   8  -7-42.2575 264.014   4
  -8   8  -7-212.298 366.370   3
   8   0  -7 148.571 182.150   2
   8   0  -4 38461.8 1570.59   1
  -8   8  -4 37335.3 1204.38   3
   8   0  -4 35629.2 751.304   2
   0  -8  -4 36508.3 1134.80   1
   0  -8  -4 35000.6 1408.31   3
  -8   8  -4 39967.7 954.650   1
   8   0  -4 35670.8 1189.81   3
   0  -8  -4 37300.8 1287.96   4
   0  -8  -4 39172.2 1248.09   2
   0  -8  -1-61.9114 208.914   3
   0  -8  -1 493.940 238.720   2
   8   0  -1 132.830 272.614   1
  -8   8  -1-196.700 200.631   1
   0  -8  -1-81.5627 241.239   4
   8   0  -1-96.1692 237.733   4
  -8   8  -1 269.590 169.431   3
   8   0  -1 144.218 166.068   3
   0  -8  -1 36.4249 198.825   1
   8   0  -1 265.057 176.523   2
  -8   8   2 113546. 1353.79   2
   8   0   2 108982. 1980.78   3
   8   0   2 109708. 2126.81   4
   0  -8   2 116021. 2135.10   2
   0  -8   2 111864. 1908.74   4
   8   0   2 112187. 1206.31   1
  -8   8   2 108994. 1850.95   4
  -8   8   5 196.416 201.401   4
   0  -8   5 90.8655 187.406   4
   9  -9 -12 3410.42 783.417   1
   9  -9 -12 3797.73 1022.74   3
   0   9 -12 2823.75 740.166   2
   0   9 -12 2240.71 921.038   1
  -9   0 -12 2404.56 840.621   3
   0   9 -12 3902.86 868.781   3
   9  -9  -9 555.333 549.032   1
   0   9  -9 570.808 641.521   2
  -9   0  -9-212.315 498.823   3
  -9   0  -9 399.326 149.783   1
   0   9  -9 293.173 389.023   3
   0   9  -9 110.799 96.4626   4
   0   9  -9 1087.20 636.591   1
   0   9  -6 13669.7 1070.82   1
   0   9  -6 11628.0 881.402   2
   9  -9  -6 11765.3 1004.59   1
   0   9  -6 13559.9 721.431   4
   0   9  -6 9608.98 745.699   3
  -9   0  -6 10438.6 820.385   4
  -9   0  -6 11397.8 970.569   3
   9  -9  -6 10377.8 441.377   2
   9  -9  -3 111.790 344.776   1
   9  -9  -3-21.6151 248.003   3
  -9   0  -3-33.9023 262.984   4
   0   9  -3-216.036 252.768   4
  -9   0  -3 121.517 266.185   2
  -9   0  -3 29.4003 306.914   3
   9  -9  -3 203.721 154.201   2
   0   9  -3-275.159 252.496   2
  -9   0   0 37249.7 1259.99   4
  -9   0   0 37030.2 1000.04   3
   9  -9   0 39445.1 1104.52   1
   0   9   0 37600.5 1247.92   4
   0   9   0 41223.1 1117.87   1
  -9   0   0 42879.0 1126.55   2
   9  -9   0 40390.2 927.739   3
  -9   0   3 167.466 142.260   2
  -9   0   3 112.372 205.272   4
  -9   0   3 109.214 372.992   1
   0   9   3 329.899 242.003   2
   0   9   3 484.749 262.426   1
   0   9   3 232.759 247.961   4
   9  -9   3 50.8995 245.809   3
   0   9   6 7142.41 733.067   1
   0   9   6 7641.30 744.382   2
   0   9   6 7171.01 662.367   4
   0   9   9 77.3963 305.415   4
  -8  -1 -10 4750.85 948.596   3
   1   8 -10 3728.93 739.180   3
   9  -8 -10 3965.67 808.634   1
  -1   9 -10 5480.77 837.390   3
   1   8 -10 4548.07 795.176   2
  -1   9 -10 3844.58 778.017   1
  -1   9 -10 4132.44 782.333   2
   1   8 -10 3724.12 805.570   1
   8  -9 -10 5026.14 843.426   1
  -9   1 -10 4638.72 900.950   3
   8  -9  -7 31997.2 934.284   2
  -1   9  -7 32466.2 1679.10   1
  -1   9  -7 35778.0 1112.92   4
   8  -9  -7 32543.9 1612.34   1
   1   8  -7 31582.2 1709.81   1
   9  -8  -7 30685.9 752.337   2
   1   8  -7 37280.7 995.950   4
   1   8  -7 31639.8 1446.99   3
  -9   1  -7 27869.4 1308.21   4
  -1   9  -7 32884.3 1412.07   3
   1   8  -7 33799.8 1480.11   2
  -8  -1  -7 35187.2 1726.30   3
  -8  -1  -7 29294.8 1350.84   4
   9  -8  -7 33419.5 1663.87   1
  -1   9  -7 32219.8 1542.94   2
  -9   1  -7 36262.4 1735.79   3
  -1   9  -4 7842.46 698.377   2
  -1   9  -4 6761.22 481.726   3
   1   8  -4 7443.51 564.809   4
  -8  -1  -4 6040.11 651.370   2
  -8  -1  -4 6588.45 691.455   3
   1   8  -4 6716.45 623.088   2
   8  -9  -4 7105.08 376.966   2
  -9   1  -4 8019.40 694.337   3
  -9   1  -4 7556.86 650.119   4
   8  -9  -4 7328.88 528.739   4
   8  -9  -4 7453.42 710.884   1
  -8  -1  -4 6379.35 624.676   4
  -1   9  -4 7564.96 574.328   4
   9  -8  -4 5692.64 270.374   2
   9  -8  -4 8698.55 768.370   1
  -9   1  -4 6975.69 665.731   2
  -1   9  -1 51313.6 1233.20   1
   9  -8  -1 47361.8 1063.14   3
   8  -9  -1 49964.0 1313.63   1
   9  -8  -1 47714.6 1300.88   1
  -8  -1  -1 52956.4 1365.29   2
  -9   1  -1 52651.7 1360.71   2
   1   8  -1 47611.8 1356.07   4
  -8  -1  -1 50051.5 1167.07   3
  -9   1  -1 49548.1 1185.10   3
   1   8  -1 52791.9 1349.83   2
   8  -9  -1 51145.1 1190.23   2
  -8  -1  -1 41315.4 1299.36   4
  -1   9  -1 50297.1 1386.75   4
  -9   1  -1 37882.7 1223.38   4
  -1   9  -1 48736.0 1363.32   2
   8  -9  -1 51571.6 1101.76   3
   1   8  -1 50314.5 590.248   3
  -8  -1   2 7859.91 425.083   2
  -9   1   2 8487.46 564.915   3
  -9   1   2 8474.85 539.379   4
   1   8   2 8931.64 533.805   1
   8  -9   2 8622.57 492.292   3
  -9   1   2 8771.11 698.680   1
  -8  -1   2 8811.04 561.809   4
  -1   9   2 9152.92 563.828   1
  -9   1   2 8256.00 393.797   2
  -8  -1   2 8683.26 525.518   3
   1   8   2 8835.21 654.734   4
   9  -8   2 9211.85 539.070   3
   8  -9   2 9089.76 487.410   1
  -1   9   2 8900.77 640.804   4
   1   8   2 8909.64 605.699   2
  -1   9   2 9478.13 582.798   2
   9  -8   2 7876.00 426.685   1
  -1   9   5 18500.2 956.970   4
   8  -9   5 17573.4 1036.55   3
  -8  -1   5 16616.1 570.187   4
   1   8   5 18342.0 1034.46   2
   1   8   5 18755.5 954.900   1
  -1   9   5 15099.7 943.601   1
  -9   1   5 16292.9 547.025   4
   9  -8   5 16466.6 1049.40   3
  -1   9   5 17599.6 963.530   2
   1   8   5 18940.5 991.509   4
  -1   9   8 11363.4 776.916   4
   1   8   8 10229.7 797.303   4
   2   7 -11 6764.52 1077.34   1
  -9   2 -11 7345.33 1136.93   3
   7  -9 -11 7052.20 1031.03   1
   9  -7 -11 7523.16 1088.34   1
  -2   9 -11 6174.71 908.905   2
   2   7 -11 7839.04 1111.98   3
  -2   9 -11 5556.70 920.280   1
  -7  -2 -11 8661.61 1206.03   3
  -2   9 -11 8751.16 1067.44   3
   2   7 -11 6677.54 890.479   2
   7  -9 -11 7520.58 1273.26   3
   2   7  -8 3154.51 702.830   1
  -2   9  -8 4868.36 704.580   2
   9  -7  -8 3272.86 286.455   2
   2   7  -8 2854.38 584.253   3
  -2   9  -8 3952.62 629.788   3
   7  -9  -8 3443.55 662.776   1
  -9   2  -8 3673.89 747.747   3
  -2   9  -8 4365.57 413.633   4
   9  -7  -8 4720.85 798.323   1
  -2   9  -8 4242.20 791.015   1
   2   7  -8 3237.46 571.602   2
  -7  -2  -8 4238.39 784.766   3
   7  -9  -8 3914.83 428.613   2
  -7  -2  -8 3180.55 328.469   1
  -9   2  -8 2891.13 255.108   1
   9  -7  -8 3159.12 313.621   2
   7  -9  -5 21200.7 859.064   4
  -7  -2  -5 21413.9 1204.16   3
   7  -9  -5 20765.6 705.892   2
  -2   9  -5 23797.1 958.405   4
   9  -7  -5 22064.9 1236.18   1
   2   7  -5 19700.2 1159.06   1
  -9   2  -5 21645.9 1162.31   3
   2   7  -5 20788.4 1023.31   2
  -2   9  -5 20358.5 934.986   3
  -2   9  -5 21263.2 1147.15   2
   2   7  -5 23212.3 841.211   4
  -7  -2  -5 20330.5 1035.66   4
  -9   2  -5 19755.4 1014.72   4
   7  -9  -5 19796.1 1127.63   1
  -7  -2  -5 17329.8 453.475   1
  -9   2  -2 18403.0 905.491   2
   9  -7  -2 17858.6 758.403   3
   7  -9  -2 18337.2 877.554   1
  -2   9  -2 18828.0 907.525   2
   2   7  -2 19005.1 833.615   2
  -7  -2  -2 18219.8 819.275   3
  -2   9  -2 18265.6 849.765   4
  -7  -2  -2 17527.0 866.542   2
   2   7  -2 18894.7 459.504   3
   7  -9  -2 18796.2 675.100   2
  -9   2  -2 15637.3 830.130   4
  -2   9  -2 17704.4 363.606   3
  -9   2  -2 19332.5 827.445   3
   2   7  -2 17331.8 806.483   4
   7  -9  -2 17423.5 801.387   4
   9  -7  -2 18090.9 899.835   1
  -7  -2  -2 16712.8 854.041   4
  -7  -2   1 30659.6 872.432   2
   9  -7   1 33129.5 900.974   3
  -2   9   1 31537.5 984.403   1
  -7  -2   1 32207.8 835.239   3
   2   7   1 29903.0 1104.21   4
   2   7   1 32044.2 905.969   3
   7  -9   1 32951.1 738.352   3
   9  -7   1 29283.0 806.058   1
   7  -9   1 32826.5 915.959   1
   2   7   1 31999.4 1046.01   2
   2   7   1 33499.9 904.678   1
  -9   2   1 32234.9 1031.99   4
  -2   9   1 30471.2 964.212   2
  -2   9   1 30318.8 1079.89   4
  -7  -2   1 32319.9 1049.02   4
  -9   2   1 33565.0 943.332   3
  -9   2   1 29762.6 1086.08   1
  -9   2   1 31546.2 792.473   2
  -9   2   4 1358.03 463.113   1
  -2   9   4 1998.31 381.751   2
  -9   2   4 2005.93 256.765   4
  -7  -2   4 1687.64 244.512   4
   2   7   4 1286.39 302.782   1
  -2   9   4 1419.32 338.821   4
  -2   9   4 1485.71 398.815   1
  -7  -2   4 1830.76 285.977   2
   7  -9   4 2143.78 418.374   3
   9  -7   4 2799.28 465.834   3
   2   7   4 2260.64 428.129   4
   2   7   4 1345.13 332.490   2
   2   7   7 7677.01 683.118   4
   2   7   7 8054.34 760.700   1
  -2   9   7 8753.21 672.927   4
  -6  -3 -12 8169.94 1314.38   3
  -3   9 -12 7617.30 1117.19   3
  -3   9 -12 4791.15 1006.90   1
   3   6 -12 7344.82 1150.12   3
   3   6 -12 5114.70 1112.89   1
   6  -9 -12 7223.34 1090.79   1
   6  -9 -12 6676.32 1297.20   3
   9  -6 -12 6084.00 1087.51   1
  -9   3 -12 8072.50 1221.83   3
   9  -6 -12 7841.90 1322.14   3
  -3   9 -12 5645.00 977.939   2
  -9   3  -9 807.099 589.022   3
  -6  -3  -9 486.113 272.540   1
  -3   9  -9 632.217 212.343   4
   6  -9  -9 709.605 453.282   1
   3   6  -9 1000.49 402.943   2
  -9   3  -9 424.784 209.651   1
   9  -6  -9 285.398 171.775   2
  -3   9  -9 500.652 482.559   1
  -6  -3  -9 13.3941 510.698   3
  -3   9  -9 853.432 541.401   2
  -3   9  -9 1315.56 493.588   3
   9  -6  -9-305.084 594.878   1
   3   6  -9 1681.31 607.033   1
   3   6  -9 1259.61 583.158   3
   6  -9  -6 24736.7 1292.54   1
  -9   3  -6 21455.0 1244.75   3
   9  -6  -6 20664.9 1296.25   1
  -6  -3  -6 20980.1 1069.82   4
   3   6  -6 24795.0 1417.94   1
  -9   3  -6 21095.4 1080.16   4
  -3   9  -6 21071.1 1227.41   2
  -3   9  -6 23435.6 941.717   4
  -3   9  -6 21163.0 1052.72   3
   6  -9  -6 20974.1 822.125   2
  -6  -3  -6 18126.6 1182.26   3
   6  -9  -6 22963.1 904.926   4
  -6  -3  -6 20923.4 650.149   1
   3   6  -6 22085.2 1069.16   2
   3   6  -6 23550.7 717.093   4
  -3   9  -3 11031.4 476.280   3
  -6  -3  -3 10701.8 743.180   3
   3   6  -3 11089.6 489.384   3
   6  -9  -3 11173.1 735.755   1
  -9   3  -3 10730.1 706.682   4
   6  -9  -3 11271.9 649.884   4
  -3   9  -3 11526.6 671.321   4
  -6  -3  -3 10170.3 719.218   2
   3   6  -3 10674.6 597.950   4
  -3   9  -3 10270.8 753.764   2
   3   6  -3 12009.1 664.782   2
   9  -6  -3 10598.4 666.978   3
  -9   3  -3 11187.1 709.433   3
  -6  -3  -3 11452.2 735.578   4
   9  -6  -3 9183.38 742.326   1
   6  -9  -3 11413.0 532.189   2
  -9   3   0 77038.1 1490.47   1
  -3   9   0 68770.4 1390.90   1
   3   6   0 76516.7 1687.44   4
   3   6   0 81733.9 1151.84   3
   6  -9   0 80558.4 1475.94   1
  -3   9   0 82519.7 1621.04   2
  -6  -3   0 82443.2 1484.93   2
  -6  -3   0 81260.5 1686.14   4
  -9   3   0 79912.4 1446.41   2
  -6  -3   0 84926.3 1262.23   3
   9  -6   0 82596.2 1364.64   3
   6  -9   0 85210.7 1656.03   2
   6  -9   0 82097.0 1679.47   4
   3   6   0 75685.1 1510.24   2
   6  -9   0 79991.0 1041.35   3
   9  -6   0 78659.8 1455.67   1
  -3   9   0 82131.4 1743.12   4
  -3   9   3 3742.76 529.985   1
  -9   3   3 2131.64 266.871   4
  -9   3   3 2773.92 511.152   1
  -6  -3   3 1779.22 281.145   2
   3   6   3 2150.28 394.868   2
   3   6   3 2659.70 406.842   4
  -3   9   3 2568.01 337.277   2
   3   6   3 1682.03 359.555   3
   9  -6   3 1948.50 375.086   3
   6  -9   3 2042.53 311.027   3
  -3   9   3 2301.24 359.596   4
   3   6   3 2571.32 316.883   1
  -6  -3   3 2439.46 299.729   4
  -3   9   6 15403.3 902.958   2
  -3   9   6 15677.0 1055.71   1
   3   6   6 16488.4 897.143   1
   3   6   6 17704.3 961.989   4
  -3   9   6 15381.0 838.735   4
  -3   9   9 1487.80 326.399   4
  -9   4 -10 692.934 526.278   3
   5  -9 -10 250.361 793.221   3
  -9   4 -10 9.83126 262.524   1
  -4   9 -10 191.112 409.371   2
   5  -9 -10 647.013 565.579   1
   4   5 -10-238.257 541.207   3
  -4   9 -10 221.641 501.649   3
  -4   9 -10 287.424 468.217   1
   4   5 -10 15.1521 345.472   2
   4   5 -10-484.969 572.918   1
  -5  -4 -10 440.893 658.964   3
  -5  -4 -10 423.634 323.421   1
   9  -5 -10 846.183 641.643   1
  -4   9  -7 26188.2 1277.59   3
   5  -9  -7 25371.2 1022.67   2
  -4   9  -7 27776.3 1427.63   1
   5  -9  -7 26458.8 1349.26   1
   5  -9  -7 28571.4 1041.03   4
   4   5  -7 27788.5 1220.88   2
   4   5  -7 27177.5 1589.66   1
  -5  -4  -7 25011.3 869.806   1
  -9   4  -7 21620.0 728.499   1
  -4   9  -7 25402.1 1407.52   2
  -5  -4  -7 19192.1 1305.13   3
  -5  -4  -7 22786.1 1127.24   4
   9  -5  -7 25856.7 1473.05   1
  -9   4  -7 26690.0 1438.92   3
  -4   9  -7 25325.0 998.334   4
  -9   4  -7 22726.1 1142.75   4
  -5  -4  -4 457.460 289.395   2
   4   5  -4 157.871 222.567   2
  -4   9  -4 215.529 241.105   4
  -5  -4  -4 349.874 279.307   4
   5  -9  -4 315.059 247.246   4
   5  -9  -4 180.322 278.646   1
   4   5  -4 376.742 208.920   4
  -5  -4  -4-160.352 349.206   3
   9  -5  -4 87.3547 377.687   1
  -4   9  -4-162.021 283.754   2
   9  -5  -4 281.544 275.447   3
  -4   9  -4 225.062 232.527   3
  -9   4  -4 296.872 266.751   4
   5  -9  -4 29.0671 170.258   2
  -5  -4  -4 70.0558 144.578   1
   4   5  -4 123.902 389.772   1
  -9   4  -4 738.509 359.852   3
   4   5  -1 37248.6 720.798   3
   4   5  -1 34734.5 1003.32   2
  -5  -4  -1 37860.4 1201.13   4
   4   5  -1 36274.2 1113.82   4
  -5  -4  -1 34814.8 922.939   3
  -5  -4  -1 36726.1 1073.51   2
   5  -9  -1 36580.9 1015.91   2
   9  -5  -1 35864.8 1135.88   1
   9  -5  -1 38712.7 961.454   3
  -4   9  -1 39746.9 1034.49   1
   5  -9  -1 37111.5 1150.56   4
  -9   4  -1 38419.1 910.557   1
  -4   9  -1 36820.1 1166.62   2
   5  -9  -1 36055.0 1055.83   1
  -4   9  -1 36137.5 1153.76   4
  -4   9  -1 37566.6 499.643   3
  -9   4  -1 34901.0 943.953   3
   4   5   2 2118.86 378.226   2
  -9   4   2 1950.31 154.540   2
  -5  -4   2 1655.50 283.400   4
   5  -9   2 1704.72 288.941   4
   4   5   2 1856.09 240.717   1
  -4   9   2 2085.48 283.205   2
  -9   4   2 2195.27 442.275   1
   4   5   2 2392.44 404.845   4
   5  -9   2 1961.81 225.381   3
  -5  -4   2 1524.04 268.431   2
   9  -5   2 2067.93 192.777   1
  -4   9   2 1681.14 328.304   1
   9  -5   2 2233.49 348.321   3
  -4   9   2 2313.78 354.791   4
  -9   4   2 1903.59 334.349   3
  -5  -4   2 2162.37 273.675   3
   4   5   2 2310.34 369.888   3
   4   5   5 36230.5 1338.32   4
  -4   9   5 33237.8 1136.07   4
  -4   9   5 35131.5 1200.75   2
   4   5   5 34678.6 1064.25   1
  -9   4   5 32700.1 743.847   4
   4   5   5 32798.8 1426.70   2
  -4   9   5 33844.1 1440.75   1
  -5  -4   5 32147.7 797.202   4
  -4   9   8 1848.51 357.829   4
   4   5   8 1549.70 455.405   1
   5   4 -11 5771.21 1008.96   3
  -5   9 -11 6781.75 977.968   1
   4  -9 -11 5518.38 850.014   1
   5   4 -11 7353.24 812.977   2
  -5   9 -11 6751.66 975.888   3
   4  -9 -11 8437.65 1348.77   3
  -9   5 -11 5653.64 953.947   3
   5   4 -11 7542.65 1195.77   1
  -5   9 -11 6358.09 953.902   2
   9  -4 -11 6033.16 1026.98   1
  -4  -5 -11 7096.62 1152.82   3
   9  -4  -8 1650.21 569.524   1
   5   4  -8 1152.75 558.985   1
   4  -9  -8 1843.31 340.127   4
  -9   5  -8 1860.62 339.793   1
  -5   9  -8 1824.20 572.241   1
   4  -9  -8 2047.06 700.912   3
  -9   5  -8 1867.60 589.700   3
   9  -4  -8 1748.97 220.406   2
  -5   9  -8 1985.38 513.039   3
  -4  -5  -8 1482.94 408.833   4
   4  -9  -8 1226.43 444.214   1
  -4  -5  -8 1981.93 365.271   1
  -5   9  -8 2066.06 516.085   2
   4  -9  -8 913.980 336.324   2
   5   4  -8 1715.20 414.195   2
  -4  -5  -8 2263.70 645.304   3
   9  -4  -8 1162.13 199.125   2
  -9   5  -8 1179.87 390.281   4
  -5   9  -8 1889.00 331.525   4
  -5   9  -5 32857.5 1126.60   4
  -4  -5  -5 29517.5 1273.10   2
  -9   5  -5 28059.1 593.371   1
  -5   9  -5 30394.8 1402.22   2
   5   4  -5 31314.2 1499.27   1
  -4  -5  -5 30865.6 1443.67   3
  -4  -5  -5 32331.1 1255.82   4
  -9   5  -5 30761.1 1303.74   3
   5   4  -5 31321.8 788.925   4
   4  -9  -5 31867.7 1046.77   2
  -9   5  -5 25863.3 694.049   1
  -9   5  -5 33671.8 1301.48   4
  -5   9  -5 30882.2 1136.77   3
  -4  -5  -5 30925.7 871.900   1
   4  -9  -5 30717.0 1269.89   1
   5   4  -5 30899.7 1050.68   2
   4  -9  -5 34471.6 1200.40   4
   9  -4  -5 31277.8 1493.93   1
  -5   9  -2 2960.03 431.795   2
   4  -9  -2 2730.80 320.065   2
   5   4  -2 2575.59 302.819   2
   4  -9  -2 2849.51 360.673   1
  -4  -5  -2 2876.46 360.238   2
   5   4  -2 2928.48 269.025   3
  -4  -5  -2 2674.92 391.972   4
  -5   9  -2 3057.67 405.860   4
   5   4  -2 3478.69 373.959   4
  -4  -5  -2 3105.71 397.904   3
  -9   5  -2 2066.56 333.220   3
   9  -4  -2 2338.41 422.393   1
  -5   9  -2 3340.97 342.063   1
   4  -9  -2 3679.17 443.280   4
  -5   9  -2 3051.94 217.348   3
   9  -4  -2 2907.62 327.365   3
  -9   5  -2 3126.97 258.614   1
  -4  -5   1 31621.1 1025.71   4
  -5   9   1 32681.9 943.882   2
  -9   5   1 28994.6 1054.14   1
   4  -9   1 32222.7 1112.50   2
  -5   9   1 34530.5 1077.05   1
   4  -9   1 30707.5 912.333   1
   9  -4   1 30483.1 914.749   3
  -4  -5   1 29452.4 930.234   2
  -9   5   1 31927.1 955.299   3
   9  -4   1 30536.2 755.475   1
  -5   9   1 30390.3 1060.42   4
   5   4   1 31099.8 916.686   3
   5   4   1 30621.4 1101.78   4
   5   4   1 31522.8 1033.24   2
   4  -9   1 32728.7 1069.17   4
   4  -9   1 32013.8 487.597   3
  -4  -5   1 31749.6 667.752   3
  -5   9   4 380.710 310.663   1
   5   4   4 479.418 342.614   2
   9  -4   4 252.076 374.302   3
   5   4   4 288.722 323.780   3
   5   4   4-245.649 287.568   4
   5   4   4 637.964 195.076   1
  -5   9   4 334.562 247.039   4
  -5   9   4 438.003 189.729   2
  -9   5   4 70.1226 150.980   4
  -9   5   4-98.1515 405.985   1
  -4  -5   4 280.595 177.643   4
  -4  -5   4 81.1417 217.467   2
  -5   9   7 32792.9 1086.55   4
   5   4   7 30740.5 1138.13   1
   6   3 -12 5333.07 1095.27   3
  -6   9 -12 6508.59 1037.50   3
  -6   9 -12 5013.24 944.720   2
  -9   6 -12 6676.43 1075.03   3
  -3  -6 -12 7900.07 1331.64   3
   3  -9 -12 8347.72 1420.38   3
   9  -3 -12 5561.38 1077.79   1
   3  -9 -12 7675.29 1041.98   1
   6   3 -12 5400.25 1158.22   1
   9  -3 -12 7131.18 1286.63   3
   6   3  -9 1561.34 413.713   2
  -3  -6  -9 1171.91 358.118   1
   3  -9  -9 890.891 436.480   1
   9  -3  -9 1286.07 595.479   1
  -6   9  -9 1204.75 313.411   4
  -6   9  -9 761.079 448.359   3
  -6   9  -9 2260.76 616.625   2
   6   3  -9 1561.01 683.220   1
   9  -3  -9 1173.85 250.360   2
   3  -9  -9 1937.99 804.208   3
  -9   6  -9 803.768 507.569   3
  -6   9  -9 1665.58 529.580   1
  -9   6  -9 1087.42 366.759   1
  -3  -6  -9 2315.52 731.772   3
  -3  -6  -6 17253.4 778.055   1
  -3  -6  -6 19819.9 1291.25   3
  -6   9  -6 16789.3 1170.23   2
  -6   9  -6 16198.9 953.343   3
  -3  -6  -6 18594.1 995.894   4
   6   3  -6 17621.6 1217.34   1
   3  -9  -6 18541.0 1025.38   1
   6   3  -6 18103.5 823.074   2
  -6   9  -6 16891.4 860.914   4
   9  -3  -6 15923.8 450.350   2
   9  -3  -6 17087.6 1213.55   1
   3  -9  -6 19236.3 938.751   4
   3  -9  -6 17447.3 882.952   2
  -9   6  -6 19223.1 1049.10   4
  -9   6  -6 17303.2 1082.55   3
  -9   6  -6 17625.9 728.212   1
   3  -9  -3 2377.13 375.579   4
   6   3  -3 2211.20 285.202   2
  -3  -6  -3 2468.15 371.126   2
   3  -9  -3 2601.96 382.452   1
  -6   9  -3 2670.59 380.589   4
  -3  -6  -3 2530.59 449.089   3
  -6   9  -3 1935.44 401.712   2
  -9   6  -3 2210.33 213.585   1
  -3  -6  -3 2532.21 299.378   1
   6   3  -3 2687.96 518.118   1
   9  -3  -3 1859.36 420.096   1
   6   3  -3 2181.05 296.815   4
   3  -9  -3 2853.15 344.824   2
  -6   9  -3 2321.24 285.641   3
   6   3  -3 2142.16 283.199   3
   9  -3  -3 2577.17 391.879   3
  -3  -6  -3 2201.52 402.788   4
  -6   9  -3 2667.53 332.403   1
  -9   6  -3 2422.98 383.918   3
  -3  -6   0 97556.8 1709.20   2
  -9   6   0 94947.4 1480.84   3
   6   3   0 91245.9 1622.42   2
  -6   9   0 98423.0 1703.59   1
   9  -3   0 93042.2 1607.93   1
  -3  -6   0 95126.5 1131.97   3
   3  -9   0 96811.2 1764.63   2
   3  -9   0 97383.0 1860.90   4
  -6   9   0 92637.4 1208.84   3
  -9   6   0 95310.3 1697.43   1
   6   3   0 94298.3 1410.71   3
  -6   9   0 90612.3 1829.17   4
   9  -3   0 99284.8 1547.51   3
  -6   9   0 92396.5 1699.08   2
   3  -9   0 93767.4 1622.99   1
  -3  -6   0 96708.5 1855.14   4
   6   3   0 92027.0 1842.28   4
   6   3   3 11443.9 413.209   1
   9  -3   3 9448.87 697.378   3
  -3  -6   3 10436.0 578.946   4
  -3  -6   3 10932.8 673.975   2
   6   3   3 11339.1 742.433   4
  -6   9   3 10254.2 499.169   2
  -6   9   3 9488.74 721.347   1
   3  -9   3 11721.9 663.923   4
  -9   6   3 9415.69 540.031   4
  -9   6   3 10293.6 803.725   1
   6   3   3 11414.4 776.843   2
  -6   9   3 11001.1 658.067   4
   6   3   3 10515.0 781.254   3
   6   3   6 25976.3 1185.19   4
  -6   9   6 23529.2 901.899   4
   6   3   6 24091.9 839.194   1
  -6   9   9 867.048 181.276   4
   9  -2 -10 1649.38 667.060   1
  -2  -7 -10 1955.07 451.915   1
   2  -9 -10 1958.94 797.158   3
  -7   9 -10 1771.35 365.252   4
   7   2 -10 2111.98 715.374   1
   7   2 -10 1459.30 388.672   2
  -9   7 -10 544.733 530.737   3
  -7   9 -10 529.089 515.505   1
  -7   9 -10 1644.81 624.604   3
  -7   9 -10 1168.23 609.943   2
  -9   7 -10 1268.38 343.255   4
  -2  -7 -10 621.216 619.371   3
   2  -9 -10 1568.87 527.840   1
  -9   7 -10 652.940 414.887   1
   2  -9  -7 6976.80 698.773   1
  -7   9  -7 5875.97 550.012   4
  -7   9  -7 6788.56 731.302   3
   7   2  -7 6228.44 853.986   1
  -2  -7  -7 8151.49 968.613   3
   2  -9  -7 7789.94 666.694   4
   9  -2  -7 5727.54 348.093   2
   2  -9  -7 6274.20 629.703   2
   9  -2  -7 6906.06 399.327   2
   7   2  -7 6882.21 537.774   2
  -9   7  -7 7837.86 810.540   3
   2  -9  -7 8715.91 1025.48   3
  -9   7  -7 7288.14 705.050   4
  -2  -7  -7 6502.95 652.777   4
  -2  -7  -7 6148.95 532.669   1
   9  -2  -7 7144.50 906.469   1
  -7   9  -7 6890.20 677.528   1
  -9   7  -7 6538.00 554.826   1
   9  -2  -4 1489.67 355.145   3
  -2  -7  -4 1576.18 259.801   1
   7   2  -4 1856.89 341.353   3
  -7   9  -4 1713.42 336.190   4
   2  -9  -4 1276.95 347.581   1
  -2  -7  -4 1169.00 304.778   4
  -9   7  -4 1598.96 405.486   3
  -7   9  -4 1732.01 328.902   3
   9  -2  -4 2058.95 586.998   1
   2  -9  -4 1521.73 313.848   2
   7   2  -4 1434.62 227.147   2
  -7   9  -4 1626.41 273.159   1
   2  -9  -4 1087.14 288.804   4
   7   2  -4 1408.24 229.278   4
  -2  -7  -4 1412.67 462.544   3
   7   2  -4 1185.78 437.920   1
   9  -2  -4 1050.13 111.924   2
  -2  -7  -4 1654.47 355.202   2
  -9   7  -4 1473.19 209.288   1
   9  -2  -1 27463.0 846.183   3
   9  -2  -1 28070.8 777.586   2
  -2  -7  -1 29062.1 988.845   2
  -9   7  -1 29831.1 867.653   1
   7   2  -1 26828.9 822.797   2
   2  -9  -1 30105.7 995.146   2
   7   2  -1 28078.6 1060.23   1
  -2  -7  -1 27390.0 1057.30   4
   9  -2  -1 28726.6 1060.72   1
   2  -9  -1 31225.2 1124.44   4
   7   2  -1 26919.4 962.447   4
  -7   9  -1 26972.7 1012.67   4
  -9   7  -1 28553.6 805.468   3
   7   2  -1 27803.0 786.653   3
  -2  -7  -1 28076.1 803.584   3
  -7   9  -1 30631.6 684.806   3
  -7   9  -1 28101.1 898.120   1
   2  -9  -1 28603.8 921.718   1
  -7   9  -1 27517.2 1039.22   2
  -9   7   2 17884.4 772.438   4
  -2  -7   2 20010.5 877.969   2
   2  -9   2 18499.1 903.463   2
  -7   9   2 18211.4 893.996   1
   7   2   2 17656.7 836.395   3
   9  -2   2 16531.7 429.124   1
   7   2   2 17389.8 890.009   2
  -9   7   2 17663.2 949.454   1
  -2  -7   2 16924.7 763.943   4
  -7   9   2 18746.8 826.605   4
   2  -9   2 19430.2 861.857   4
   9  -2   2 16524.1 811.946   3
   7   2   2 19057.1 920.990   4
  -7   9   2 18160.1 623.306   2
  -9   7   2 17273.1 488.491   2
  -9   7   5 23555.0 773.409   4
  -7   9   5 22642.6 794.609   2
   7   2   5 23677.5 1121.42   4
  -2  -7   5 23689.5 821.932   4
  -7   9   5 24098.4 905.600   4
   7   2   5 23186.8 627.135   1
  -7   9   8 3631.09 336.630   4
   9  -1 -11 10112.4 1280.82   1
   1  -9 -11 11280.2 1517.05   3
   8   1 -11 9965.27 1265.96   1
  -1  -8 -11 12793.6 1506.91   3
  -8   9 -11 11618.0 1070.68   1
  -1  -8 -11 10341.1 910.834   1
  -8   9 -11 10691.6 1266.55   2
  -9   8 -11 12046.4 1242.12   3
   1  -9 -11 10632.1 1019.80   1
  -8   9 -11 12853.3 1284.86   3
   8   1  -8 11947.5 691.118   2
  -1  -8  -8 8602.19 757.311   4
  -8   9  -8 10611.4 764.299   4
  -8   9  -8 10503.4 935.205   3
  -9   8  -8 11311.7 1032.73   3
  -8   9  -8 7543.34 770.346   1
  -1  -8  -8 11191.8 1197.23   3
   9  -1  -8 10559.7 562.880   2
  -1  -8  -8 10918.0 818.148   1
  -9   8  -8 9728.45 790.218   1
   8   1  -8 9231.44 1088.29   1
   9  -1  -8 10048.6 1091.77   1
   1  -9  -8 10395.6 1147.03   3
  -9   8  -8 8956.74 801.398   4
  -9   8  -8 9348.29 760.040   4
   9  -1  -8 9431.87 541.238   2
   1  -9  -8 11806.5 905.899   1
   1  -9  -8 10115.3 799.330   4
  -9   8  -5 18321.1 665.824   1
  -8   9  -5 16808.4 709.513   1
   1  -9  -5 18238.4 961.561   4
  -1  -8  -5 17871.4 964.116   4
  -1  -8  -5 16692.7 931.311   2
  -8   9  -5 18771.7 943.318   4
   8   1  -5 20535.3 1230.54   1
   9  -1  -5 15040.7 467.803   2
   1  -9  -5 16772.0 1126.48   3
   8   1  -5 18058.7 643.601   2
   9  -1  -5 18297.9 1210.16   1
  -8   9  -5 17456.4 921.330   3
  -9   8  -5 18605.8 987.938   3
   1  -9  -5 18754.7 926.255   2
  -1  -8  -5 17890.1 822.801   1
  -1  -8  -5 16909.7 1114.40   3
   8   1  -5 18474.1 946.107   3
   1  -9  -5 16590.4 871.834   1
   1  -9  -2 7807.32 612.002   4
  -1  -8  -2 7963.64 578.399   3
  -8   9  -2 9048.16 707.079   2
  -8   9  -2 7684.51 588.197   4
   8   1  -2 8491.84 440.254   2
   1  -9  -2 8481.64 563.023   2
   1  -9  -2 8318.60 581.638   3
   8   1  -2 8305.50 700.211   1
   9  -1  -2 8074.11 395.487   2
  -8   9  -2 8939.07 467.670   3
  -9   8  -2 9058.38 507.785   3
  -1  -8  -2 9149.72 653.208   4
   8   1  -2 8309.37 467.007   3
  -8   9  -2 8707.30 496.640   1
   9  -1  -2 7453.21 481.687   3
   8   1  -2 7391.71 499.771   4
  -1  -8  -2 7692.17 502.676   1
  -1  -8  -2 9253.33 599.696   2
   9  -1  -2 8590.38 710.131   1
   1  -9  -2 7333.26 520.225   1
  -9   8  -2 8662.01 484.689   1
   9  -1   1 50781.4 1386.93   2
   8   1   1 56123.5 1156.03   1
   1  -9   1 56525.5 1466.77   2
  -8   9   1 55018.4 1190.06   2
   8   1   1 54592.5 1278.59   3
  -9   8   1 53945.8 1143.64   2
  -9   8   1 57552.2 1268.43   3
  -9   8   1 56462.8 1414.89   4
  -1  -8   1 52708.2 1388.65   4
   9  -1   1 54247.7 1287.83   3
   1  -9   1 56086.6 1428.90   4
   8   1   1 52928.2 1470.77   4
   9  -1   1 53358.0 1102.53   1
  -8   9   1 53695.7 1440.76   1
  -1  -8   1 52477.5 571.601   3
  -9   8   1 53845.8 1472.15   1
  -8   9   1 54451.1 1398.78   4
   8   1   1 53593.9 1411.34   2
  -1  -8   1 56613.9 1412.48   2
  -1  -8   4 9797.24 598.754   4
  -8   9   4 8124.36 560.095   4
   8   1   4 7855.09 769.658   3
   8   1   4 9665.41 749.545   4
   9  -1   4 8854.25 773.096   3
   1  -9   4 8943.42 594.508   4
  -8   9   4 9048.71 792.185   1
  -8   9   4 8942.98 432.928   2
  -9   8   4 8977.57 817.806   1
  -9   8   4 8713.82 316.210   2
  -9   8   4 8810.46 552.615   4
  -1  -8   4 7623.35 668.156   2
  -9   8   7 30826.3 792.384   4
  -8   9   7 34852.7 988.507   4
   9   0 -12 4840.81 1133.24   1
   0  -9 -12 8545.89 1374.67   3
   9   0 -12 6841.53 1224.75   3
  -9   9 -12 8724.36 1173.22   3
  -9   9 -12 6463.77 1133.65   2
   9   0  -9-254.528 558.881   1
   0  -9  -9 272.613 351.018   1
   0  -9  -9 1103.61 710.196   3
  -9   9  -9 435.782 395.069   1
  -9   9  -9-190.629 458.292   3
  -9   9  -9 158.189 275.324   4
   9   0  -9 120.898 216.365   2
   0  -9  -6 7425.73 635.231   1
   0  -9  -6 8121.26 728.957   4
   9   0  -6 8777.71 446.856   2
   0  -9  -6 8803.43 926.250   3
  -9   9  -6 8846.52 530.693   1
  -9   9  -6 8675.14 749.582   3
   9   0  -6 8289.82 902.019   1
   9   0  -3 259.825 353.841   1
  -9   9  -3-95.9843 239.423   3
   0  -9  -3 216.406 340.026   3
  -9   9  -3 282.144 205.530   1
   0  -9  -3 143.558 278.268   4
   0  -9  -3 449.029 258.755   2
   0  -9  -3-247.086 255.000   1
   9   0  -3 140.539 143.462   2
   9   0  -3 106.343 217.607   3
   9   0   0 48855.5 1296.60   1
   9   0   0 44739.9 1204.84   2
  -9   9   0 46393.5 1271.67   1
  -9   9   0 48924.4 1383.62   4
   0  -9   0 48321.0 1397.91   4
   9   0   0 47720.1 1384.20   4
  -9   9   0 48876.7 1298.73   2
   0  -9   0 47349.0 713.542   3
   9   0   0 45350.0 1107.63   3
   0  -9   0 50574.2 1372.78   2
  -9   9   0 48436.3 1074.45   3
  -9   9   3-21.6470 110.999   2
   0  -9   3 163.439 206.600   4
   0  -9   3-80.0069 255.159   2
   9   0   3 268.432 266.631   3
  -9   9   3 213.418 347.621   1
  -9   9   3 14.5761 212.567   4
  -9   9   6 14405.3 682.177   4
  10 -10 -10 15833.9 1404.24   1
   0  10 -10 17505.0 1371.75   3
   0  10 -10 16315.4 1264.71   2
 -10   0 -10 17237.6 1458.99   3
   0  10 -10 14864.6 1421.21   1
   0  10  -7 36.6288 456.164   1
  10 -10  -7-327.801 502.595   1
   0  10  -7 208.752 241.934   4
 -10   0  -7 111.955 447.606   3
   0  10  -7 93.1087 346.710   3
   0  10  -7-136.528 333.626   2
  10 -10  -7 248.459 143.749   2
 -10   0  -4 63821.7 1900.84   4
   0  10  -4 64306.8 1842.59   2
 -10   0  -4 60147.3 1809.27   3
  10 -10  -4 65015.5 1989.42   1
  10 -10  -4 61493.9 1064.02   2
 -10   0  -1-156.971 265.388   4
  10 -10  -1 516.238 295.363   1
   0  10  -1-113.419 286.085   4
 -10   0  -1 65.4418 253.556   2
 -10   0  -1-276.789 263.819   3
   0  10  -1-29.7043 266.407   2
  10 -10  -1-27.2100 179.024   3
   0  10   2 39961.4 1402.29   4
 -10   0   2 42026.3 1280.58   4
 -10   0   2 39723.1 1172.47   3
   0  10   2 40756.6 1207.27   1
 -10   0   2 39627.3 964.214   2
  10 -10   2 42707.0 1138.25   3
  10 -10   2 40585.3 1053.40   1
   0  10   2 40583.3 1287.05   2
 -10   0   5 108.133 168.411   4
   0  10   5 185.667 293.585   1
  10 -10   5-130.670 348.807   3
   0  10   5-100.574 266.934   4
   0  10   5 22.5667 264.205   2
   0  10   8 37744.3 1523.88   4
  -1  10 -11 3374.07 739.414   2
  -1  10 -11 2541.71 773.776   1
   1   9 -11 3180.34 682.823   2
  -9  -1 -11 3327.21 853.606   3
   9 -10 -11 1379.70 644.938   1
   1   9 -11 2714.86 805.526   1
   1   9 -11 2528.81 723.219   3
 -10   1 -11 3789.69 885.315   3
  -1  10 -11 2439.10 681.949   3
  10  -9 -11 677.672 578.760   1
   9 -10 -11 3495.96 1010.31   3
  -1  10  -8 2361.13 659.494   1
  10  -9  -8 642.942 489.444   1
  -1  10  -8 2192.23 346.996   4
   1   9  -8 1851.15 256.837   4
 -10   1  -8 2477.01 656.679   3
  10  -9  -8 968.379 175.354   2
   1   9  -8 1515.37 502.421   3
   9 -10  -8 1200.83 546.897   1
   9 -10  -8 1339.42 251.424   2
   1   9  -8 1103.92 411.071   2
  -9  -1  -8 2025.95 672.194   3
  -1  10  -8 2006.82 544.799   3
  -1  10  -8 1070.87 436.930   2
   1   9  -8 1980.14 669.327   1
 -10   1  -5 9482.12 838.431   3
  -9  -1  -5 9688.27 785.674   4
  -1  10  -5 9309.04 646.004   3
  10  -9  -5 9511.46 864.275   1
   9 -10  -5 9341.86 445.505   2
 -10   1  -5 9784.06 786.016   4
  -9  -1  -5 7427.40 775.886   3
  -1  10  -5 10513.4 824.534   2
   9 -10  -5 9337.33 851.853   1
  -1  10  -5 10788.4 696.895   4
   1   9  -5 10942.0 675.463   4
   1   9  -5 10835.6 797.473   2
   9 -10  -2 10537.0 622.076   3
  -9  -1  -2 10927.0 714.436   2
   9 -10  -2 8975.78 672.431   1
  -1  10  -2 12283.5 752.292   4
  10  -9  -2 10906.5 617.867   3
 -10   1  -2 11792.4 701.698   3
   9 -10  -2 11664.2 571.764   2
 -10   1  -2 11641.2 772.420   4
  -9  -1  -2 10576.9 682.146   3
  10  -9  -2 10885.0 779.208   1
 -10   1  -2 11563.5 752.037   2
   1   9  -2 11716.7 312.593   3
  -1  10  -2 11734.3 751.283   2
   1   9  -2 9986.68 688.544   2
  -9  -1  -2 10589.5 752.808   4
   1   9  -2 11496.9 721.763   4
  -1  10   1 2134.93 398.301   4
 -10   1   1 2230.21 333.963   3
  -9  -1   1 2010.03 350.897   4
  -9  -1   1 1503.40 286.125   3
   1   9   1 2201.01 417.783   4
 -10   1   1 2255.05 404.952   1
 -10   1   1 1832.41 352.999   4
   1   9   1 2092.46 350.541   2
  -9  -1   1 2060.45 279.927   2
  -1  10   1 2197.12 383.084   2
   1   9   1 2235.22 322.663   1
  10  -9   1 2238.30 306.416   3
 -10   1   1 1890.58 279.779   2
  10  -9   1 1785.61 294.997   1
   9 -10   1 1771.56 259.230   3
   9 -10   1 1561.83 277.942   1
  -1  10   1 1830.78 310.235   1
   1   9   4 6122.53 548.086   1
  -9  -1   4 6666.26 441.093   2
 -10   1   4 5862.29 335.593   2
  10  -9   4 7172.51 641.153   3
   9 -10   4 7693.31 637.362   3
   1   9   4 7503.87 671.391   4
  -1  10   4 7408.57 641.714   2
   1   9   4 6305.96 594.724   2
  -1  10   4 7269.41 659.976   1
  -1  10   4 6997.99 632.889   4
 -10   1   4 6336.03 472.776   4
  -9  -1   4 6572.78 453.621   4
  -1  10   7 1542.56 397.965   4
   1   9   7 1367.72 462.297   1
   1   9   7 950.518 381.616   4
   8 -10 -12 278.305 883.896   3
  -2  10 -12 1191.99 767.355   1
   2   8 -12 1053.90 668.377   3
  -8  -2 -12 226.274 702.103   3
   8 -10 -12 1781.21 783.106   1
  -2  10 -12 625.486 540.023   2
  10  -8 -12 1223.62 939.306   3
  10  -8 -12 1037.40 732.790   1
  -2  10 -12 1301.40 647.424   3
   2   8 -12 2325.41 923.545   1
 -10   2 -12 1920.60 839.751   3
  -2  10  -9 5743.75 824.368   2
   2   8  -9 5555.68 909.017   1
  -2  10  -9 4888.00 424.489   4
  -2  10  -9 4974.47 777.094   1
   2   8  -9 7058.19 870.543   3
  10  -8  -9 6915.47 934.316   1
  -2  10  -9 7178.95 828.209   3
  -8  -2  -9 3062.91 290.270   1
  -8  -2  -9 6540.06 979.833   3
   8 -10  -9 6151.43 902.699   1
   2   8  -9 5736.36 761.027   2
 -10   2  -9 5781.97 900.943   3
   2   8  -6 15368.0 1163.63   1
   8 -10  -6 14307.3 621.449   2
   8 -10  -6 12945.0 998.302   1
 -10   2  -6 13197.2 1029.25   3
  -2  10  -6 14920.5 806.711   4
  -8  -2  -6 12831.2 928.756   4
   8 -10  -6 14159.6 734.798   4
  -2  10  -6 13821.1 862.429   3
  -8  -2  -6 14325.8 1101.55   3
  10  -8  -6 11720.7 1026.57   1
   2   8  -6 14138.9 677.252   4
   2   8  -6 14148.0 918.256   2
  -2  10  -6 15052.3 1045.51   2
 -10   2  -6 11629.8 874.502   4
 -10   2  -3 18116.6 999.638   2
   2   8  -3 19890.8 955.796   2
   8 -10  -3 18762.9 856.214   4
  -2  10  -3 16338.2 911.987   2
   2   8  -3 19898.5 890.886   4
  10  -8  -3 18416.4 884.961   3
   2   8  -3 19119.4 577.230   3
 -10   2  -3 18670.5 965.731   4
  -8  -2  -3 18732.1 970.776   4
  10  -8  -3 18878.9 1041.46   1
  -8  -2  -3 17242.6 937.135   2
   8 -10  -3 19864.5 700.323   2
  -2  10  -3 18195.5 559.893   3
 -10   2  -3 18810.2 936.007   3
   8 -10  -3 18537.1 965.936   1
  -2  10  -3 19584.4 934.774   4
  -8  -2  -3 17964.3 950.369   3
 -10   2   0 21603.3 818.611   2
  -2  10   0 20942.0 830.611   1
  10  -8   0 20120.5 718.141   3
 -10   2   0 21019.7 778.246   3
  -8  -2   0 19930.6 926.909   4
   8 -10   0 19785.2 803.398   1
  10  -8   0 19592.7 787.429   1
   8 -10   0 20652.7 890.066   2
   2   8   0 19897.7 917.022   4
   2   8   0 20019.0 859.794   2
   8 -10   0 18930.4 607.697   3
  -8  -2   0 18586.5 790.644   2
   2   8   0 19084.3 576.939   3
 -10   2   0 19772.4 903.673   4
  -2  10   0 20516.2 886.036   2
 -10   2   0 19179.1 822.342   1
  -2  10   0 20270.1 943.508   4
  -8  -2   0 19276.5 694.273   3
  -2  10   3 30865.0 1142.71   1
  -2  10   3 29256.8 1170.29   4
  -8  -2   3 30140.6 980.062   4
   2   8   3 28467.0 1192.34   4
  -8  -2   3 29027.8 860.446   2
  10  -8   3 30908.0 1129.99   3
   2   8   3 31696.8 1011.78   1
   8 -10   3 29635.3 983.598   3
   2   8   3 30975.6 1204.14   2
 -10   2   3 26276.9 578.854   2
 -10   2   3 30347.1 981.803   4
 -10   2   3 33355.3 1451.00   1
  -2  10   3 28959.3 1042.96   2
  -2  10   6 1497.65 412.453   2
   2   8   6 1556.33 469.777   2
  -2  10   6 825.141 384.954   1
   2   8   6 838.065 320.055   4
  -8  -2   6 964.677 145.113   4
  -2  10   6 1739.48 362.092   4
 -10   2   6 721.629 116.651   4
   2   8   6 1698.17 417.676   1
  -2  10   9 17375.5 965.154   4
   2   8   9 16528.1 1029.77   4
  -3  10 -10 15895.5 1349.48   2
  -3  10 -10 16380.7 1378.83   1
   7 -10 -10 15609.8 1314.71   1
   3   7 -10 17504.3 1534.33   1
   3   7 -10 17330.0 1189.38   2
  -7  -3 -10 18204.3 1541.54   3
  -3  10 -10 18830.9 1355.64   3
  10  -7 -10 17015.3 1453.80   1
   7 -10 -10 17603.3 1756.36   3
 -10   3 -10 17998.0 1474.91   3
   3   7 -10 19060.4 1495.94   3
 -10   3  -7-168.800 433.704   3
  -3  10  -7-17.7620 330.134   3
   3   7  -7 554.027 525.521   1
  -7  -3  -7-454.475 430.435   3
  -7  -3  -7 313.882 166.878   1
  -3  10  -7 688.978 398.359   2
   7 -10  -7 310.231 244.977   4
  10  -7  -7 462.770 444.560   1
   7 -10  -7-131.924 213.859   2
  -3  10  -7 85.4400 234.026   4
   7 -10  -7 125.806 436.127   1
   3   7  -7 551.154 342.870   2
  -3  10  -7 391.750 402.019   1
   3   7  -7 220.701 142.213   4
  -3  10  -4 51248.4 1195.16   3
   7 -10  -4 52977.0 1682.76   1
   3   7  -4 53985.2 1526.84   2
  -7  -3  -4 50610.2 1677.80   2
  -3  10  -4 54881.8 1506.15   4
 -10   3  -4 53661.3 1627.88   3
   3   7  -4 54238.2 1357.21   4
  -7  -3  -4 51159.0 1624.84   4
   7 -10  -4 52947.0 1177.14   2
   7 -10  -4 54460.9 1465.47   4
  -7  -3  -4 50113.5 1667.20   3
  -3  10  -4 52713.4 1729.47   2
 -10   3  -4 48960.3 1755.63   2
 -10   3  -4 51452.0 1623.00   4
  10  -7  -4 52694.7 1795.77   1
  -3  10  -1 12892.7 750.142   2
 -10   3  -1 15532.6 703.711   3
   7 -10  -1 15762.0 730.544   2
 -10   3  -1 15660.8 634.310   1
 -10   3  -1 14515.3 753.955   2
  -3  10  -1 13947.5 791.955   4
   3   7  -1 15541.7 448.301   3
   3   7  -1 14455.7 725.490   2
  -3  10  -1 13828.5 682.970   1
  -7  -3  -1 14250.0 795.983   4
   7 -10  -1 13722.2 760.265   4
  10  -7  -1 14473.5 782.923   1
   3   7  -1 14253.6 769.977   4
  -7  -3  -1 16018.4 771.726   2
   7 -10  -1 15271.8 596.383   3
  -7  -3  -1 15027.2 661.419   3
   7 -10  -1 15315.7 745.068   1
  10  -7  -1 14546.2 628.865   3
 -10   3  -1 12138.3 746.918   4
  -7  -3   2 51371.7 1151.09   3
  -3  10   2 50837.9 1392.81   1
 -10   3   2 53357.4 846.399   2
  -7  -3   2 48502.9 1135.00   2
   7 -10   2 52362.7 1052.10   3
  -3  10   2 49631.1 1254.46   2
   3   7   2 50339.0 1372.87   3
   3   7   2 52421.2 1142.44   1
  10  -7   2 50738.2 1298.66   3
  10  -7   2 52777.8 963.173   1
 -10   3   2 53873.9 1642.47   1
   3   7   2 51533.7 1452.94   2
 -10   3   2 53570.3 1376.23   3
  -3  10   2 51482.5 1470.38   4
  -7  -3   2 50035.6 1295.19   4
   3   7   2 52054.3 1554.55   4
 -10   3   2 50750.9 1295.40   4
  -7  -3   5 3578.54 309.650   4
  -3  10   5 3187.03 526.674   1
   3   7   5 4045.14 529.383   4
  -3  10   5 4032.79 485.001   2
 -10   3   5 3518.12 298.345   4
  -3  10   5 4126.44 482.784   4
   3   7   5 3503.39 430.159   1
   3   7   5 3249.70 548.049   2
   3   7   8 36126.1 1476.87   4
  -3  10   8 36979.3 1341.55   4
 -10   4 -11 1632.39 697.144   3
  10  -6 -11-40.3919 613.843   1
   6 -10 -11 934.592 588.219   1
  -4  10 -11 9.97269 432.921   2
  -4  10 -11 338.406 516.736   3
   4   6 -11 36.1944 613.938   3
   4   6 -11-103.206 389.452   2
  -4  10 -11 299.533 548.394   1
  -6  -4 -11 2001.06 820.022   3
   4   6 -11 819.528 637.737   1
   6 -10 -11-396.266 761.696   3
   4   6  -8 2743.57 667.915   1
  -4  10  -8 4100.78 727.826   2
   4   6  -8 3541.03 537.437   2
  -6  -4  -8 2860.37 346.810   1
   6 -10  -8 3866.60 648.856   1
   6 -10  -8 3404.22 401.669   4
  -4  10  -8 3596.89 657.261   1
  10  -6  -8 2608.90 685.510   1
  -4  10  -8 3032.58 532.951   3
  -6  -4  -8 3373.15 772.288   3
   6 -10  -8 3176.26 444.147   2
 -10   4  -8 3045.19 666.841   3
  10  -6  -8 1972.44 171.637   2
  -4  10  -8 3553.67 430.894   4
 -10   4  -8 2290.24 242.390   1
 -10   4  -5 12686.6 860.053   4
  -4  10  -5 13443.8 766.668   3
 -10   4  -5 11999.5 877.613   3
   6 -10  -5 13616.7 670.065   2
  -4  10  -5 13641.2 772.531   4
   4   6  -5 15396.6 674.700   4
   4   6  -5 13716.8 796.659   2
  -6  -4  -5 13196.9 991.108   3
   6 -10  -5 14492.7 789.897   4
   6 -10  -5 13903.5 932.287   1
  -6  -4  -5 13471.0 506.672   1
  10  -6  -5 13504.8 1036.42   1
   4   6  -5 14240.6 1067.51   1
  -4  10  -5 15214.0 1018.22   2
  -6  -4  -5 13199.5 875.069   4
  -6  -4  -2 25114.1 1067.74   4
   4   6  -2 24730.8 905.359   2
  -4  10  -2 25267.3 1016.26   4
   6 -10  -2 24994.2 989.108   4
 -10   4  -2 26807.2 654.812   1
  -4  10  -2 26057.1 469.510   3
  -4  10  -2 24073.4 902.593   1
  -6  -4  -2 24463.5 935.960   3
  10  -6  -2 27090.4 925.447   3
   6 -10  -2 25319.0 1001.14   1
  -6  -4  -2 25322.2 1011.19   2
 -10   4  -2 25829.7 948.672   3
  -4  10  -2 24155.9 1056.67   2
   6 -10  -2 24820.1 848.564   2
   4   6  -2 25450.7 969.150   4
  10  -6  -2 24616.9 1090.64   1
   4   6  -2 27525.7 657.180   3
 -10   4   1 1678.18 322.675   3
   4   6   1 1137.61 346.346   4
   6 -10   1 1208.32 309.399   2
  10  -6   1 1391.88 272.940   3
  -4  10   1 1352.10 288.036   2
  -4  10   1 1546.03 302.807   1
   4   6   1 1491.05 259.623   1
  -6  -4   1 1572.54 334.619   4
 -10   4   1 1738.70 370.192   1
   6 -10   1 1591.86 308.696   4
  10  -6   1 1790.92 264.851   1
  -4  10   1 1748.52 340.848   4
   4   6   1 1682.28 338.901   2
   6 -10   1 1671.19 304.335   1
 -10   4   1 1660.14 219.666   2
   4   6   1 1463.79 261.604   3
  -6  -4   1 1477.22 231.499   3
   6 -10   1 1679.81 184.902   3
  -6  -4   1 1000.58 242.820   2
   4   6   4 27438.5 1186.27   4
  -4  10   4 26134.8 1210.29   1
  -6  -4   4 25900.9 976.988   2
  -6  -4   4 25071.7 846.186   4
 -10   4   4 22276.1 1314.65   1
  10  -6   4 25020.9 1168.40   3
  -4  10   4 25347.0 967.404   2
  -4  10   4 27541.7 1100.29   4
   4   6   4 23700.7 1231.04   3
   6 -10   4 24816.2 1020.72   3
 -10   4   4 26487.9 844.782   4
   4   6   4 25492.9 1214.38   2
   4   6   4 27755.8 909.787   1
   4   6   7 3089.12 495.182   4
  -4  10   7 3296.90 439.748   4
   4   6   7 2049.57 399.341   1
  -5  10 -12 2131.55 713.363   2
  -5  -5 -12 1843.20 879.059   3
   5 -10 -12 1266.81 647.902   1
   5   5 -12 2818.75 928.378   3
  10  -5 -12 1914.68 798.480   3
  -5  10 -12 2000.28 733.189   3
  10  -5 -12 1217.61 702.034   1
   5 -10 -12 1342.43 952.931   3
   5   5 -12 1594.16 743.173   1
 -10   5 -12 291.127 615.057   3
  -5  10 -12 2081.22 758.315   1
 -10   5  -9 5489.38 443.220   1
  -5  10  -9 7232.61 845.277   3
  -5  10  -9 6960.74 927.574   2
   5 -10  -9 9212.41 1245.37   3
   5   5  -9 6812.89 996.819   1
   5   5  -9 7492.46 743.699   2
  -5  10  -9 7553.65 601.314   4
  -5  10  -9 7169.59 865.522   1
 -10   5  -9 8038.88 1011.51   3
  -5  -5  -9 7305.42 1032.09   3
  10  -5  -9 6698.89 948.490   1
   5 -10  -9 7226.90 852.966   1
  -5  -5  -9 5552.67 508.417   1
   5   5  -6 10089.9 1015.44   1
  -5  10  -6 10399.1 704.125   4
   5   5  -6 10155.4 695.338   2
  -5  10  -6 9988.70 919.756   2
   5 -10  -6 10335.4 842.853   1
  -5  -5  -6 8871.52 769.286   4
 -10   5  -6 6765.00 356.009   1
   5 -10  -6 10160.3 645.423   2
  10  -5  -6 9882.15 945.684   1
  -5  -5  -6 10400.5 531.335   1
 -10   5  -6 10258.7 882.103   3
   5   5  -6 10316.3 456.794   4
  -5  -5  -6 10493.0 970.644   3
 -10   5  -6 7924.18 301.170   1
   5 -10  -6 11351.9 747.830   4
 -10   5  -6 10260.2 817.174   4
  -5  10  -6 9783.64 735.763   3
   5   5  -3 42569.6 1182.30   4
  10  -5  -3 44599.6 1293.66   3
  -5  -5  -3 44550.0 1410.74   3
  -5  10  -3 45455.3 946.356   3
   5   5  -3 44900.4 1021.30   3
  -5  10  -3 45077.9 1363.24   4
   5   5  -3 43487.9 1178.83   2
  -5  -5  -3 44742.8 1390.92   2
 -10   5  -3 45881.1 1328.29   3
  -5  10  -3 43501.9 1516.22   2
   5 -10  -3 44857.8 1163.90   2
  -5  10  -3 45484.9 1201.22   1
   5 -10  -3 43656.9 1384.69   1
   5 -10  -3 48610.4 1420.18   4
 -10   5  -3 39163.8 685.249   1
  -5  -5  -3 42995.9 1422.33   4
  -5  10   0 1687.37 329.908   1
  10  -5   0 1284.44 300.305   1
   5 -10   0 1596.04 325.357   1
   5   5   0 1451.04 289.490   2
   5   5   0 1525.41 244.604   3
   5   5   0 1769.54 361.080   4
  -5  10   0 1601.90 303.356   2
  10  -5   0 1784.62 282.128   3
  -5  10   0 993.162 321.651   4
  -5  -5   0 1980.55 246.734   3
   5 -10   0 1514.03 169.302   3
   5 -10   0 1426.98 307.213   4
   5 -10   0 1523.44 320.856   2
  -5  -5   0 729.968 285.784   4
  -5  -5   0 1245.31 302.176   2
 -10   5   0 1584.45 304.666   3
 -10   5   0 1582.45 306.494   1
   5 -10   3 47252.1 1113.71   3
  10  -5   3 42397.8 1389.02   3
  -5  -5   3 44444.8 1187.85   4
  -5  10   3 44587.2 1130.15   2
 -10   5   3 44831.1 1634.30   1
  -5  10   3 43160.6 1332.79   4
  -5  -5   3 45608.4 1257.73   2
   5   5   3 46618.8 992.693   1
  -5  10   3 44021.8 1451.13   1
   5   5   3 43798.7 1486.13   3
   5   5   3 44890.4 1477.71   4
   5   5   3 43921.9 1488.18   2
  -5  10   6 9930.78 708.710   2
   5   5   6 11579.1 832.847   4
  -5  -5   6 9611.39 431.630   4
   5   5   6 11617.3 683.078   1
 -10   5   6 9305.88 386.024   4
 -10   5   6 8530.47 365.445   4
  -5  10   6 10781.5 710.638   4
  -5  10   9 9214.61 597.472   4
  10  -4 -10 5853.10 1010.05   1
   4 -10 -10 6281.10 1125.28   3
  -6  10 -10 4746.36 786.404   1
  -4  -6 -10 4929.91 574.500   1
   4 -10 -10 6503.78 881.299   1
  -6  10 -10 5996.28 851.666   3
  -4  -6 -10 7845.57 1111.14   3
   6   4 -10 3876.19 864.764   1
  -6  10 -10 4460.41 791.225   2
   6   4 -10 5005.00 637.613   2
 -10   6 -10 6403.02 972.384   3
 -10   6  -7 1489.52 493.334   3
   4 -10  -7 2323.60 423.416   4
  -6  10  -7 3045.53 551.063   1
 -10   6  -7 1863.58 222.722   1
   6   4  -7 2300.54 631.664   1
 -10   6  -7 1848.97 299.273   1
  -6  10  -7 1835.29 454.717   3
  -6  10  -7 1875.35 558.992   2
  -4  -6  -7 1793.77 327.109   1
  -6  10  -7 1544.41 343.503   4
   4 -10  -7 2022.24 378.741   2
   6   4  -7 2433.67 400.849   2
  -4  -6  -7 1958.15 549.995   3
  -4  -6  -7 2029.07 462.941   4
 -10   6  -7 1825.76 449.203   4
  10  -4  -7 2079.87 535.060   1
   4 -10  -7 1987.56 558.952   1
  -6  10  -4 24837.3 1257.29   2
   6   4  -4 26920.2 958.636   3
   4 -10  -4 27298.3 974.863   2
   6   4  -4 26131.4 856.174   4
   6   4  -4 26113.3 1317.57   1
  -4  -6  -4 24156.6 1113.19   4
  10  -4  -4 27070.3 1333.19   1
   4 -10  -4 25751.9 1126.93   1
   6   4  -4 24389.0 878.464   2
  -4  -6  -4 26517.7 803.652   1
   4 -10  -4 27274.9 1103.10   4
  -6  10  -4 26298.7 1063.73   4
 -10   6  -4 22008.6 534.995   1
  -4  -6  -4 25445.8 1135.08   2
 -10   6  -4 25374.0 1090.36   3
  -6  10  -4 26855.5 932.103   3
  10  -4  -4 24605.5 1086.08   3
  -4  -6  -4 24766.4 1203.75   3
  -6  10  -1 1504.42 172.883   3
  -4  -6  -1 1522.27 368.761   4
   4 -10  -1 1380.29 328.300   4
   4 -10  -1 1708.68 304.293   2
  -6  10  -1 829.116 303.865   4
  -6  10  -1 1500.16 284.718   1
   6   4  -1 1591.88 333.902   4
   6   4  -1 1343.57 218.690   3
  -6  10  -1 1526.38 358.170   2
   4 -10  -1 1236.97 303.325   1
  10  -4  -1 1662.48 369.477   1
  -4  -6  -1 1467.15 308.300   2
  10  -4  -1 1475.46 266.424   3
   6   4  -1 1352.30 265.624   2
 -10   6  -1 1430.57 285.031   1
  -4  -6  -1 1705.47 273.101   3
 -10   6  -1 1735.88 279.426   3
   6   4   2 22197.9 1035.62   4
  -6  10   2 21642.2 758.576   2
  -4  -6   2 22628.8 893.138   4
  -6  10   2 22925.1 994.790   1
  10  -4   2 21731.4 529.131   1
   4 -10   2 23740.3 1060.15   2
   4 -10   2 23841.4 559.260   3
  -6  10   2 23399.2 990.035   4
 -10   6   2 21060.0 549.304   2
   4 -10   2 23984.9 978.965   4
  -4  -6   2 22169.0 900.725   2
   6   4   2 22298.4 945.242   3
   6   4   2 22935.7 639.839   1
 -10   6   2 21293.2 894.068   3
 -10   6   2 22021.3 1088.82   1
  10  -4   2 22698.2 928.059   3
 -10   6   5 13970.8 590.095   4
  -4  -6   5 14867.4 649.396   4
  -6  10   5 15245.3 801.489   4
   6   4   5 14707.6 918.704   4
   6   4   5 14536.2 639.787   1
  -6  10   5 15679.2 763.792   2
   6   4   8 3306.87 510.058   1
  -6  10   8 4600.09 434.599   4
  10  -3 -11 2780.12 880.718   1
  -7  10 -11 1765.97 658.885   2
   7   3 -11 1850.32 808.291   3
  -7  10 -11 2036.25 704.630   3
   7   3 -11-196.296 645.430   1
  -7  10 -11 1996.00 711.360   1
   3 -10 -11 1777.60 887.730   3
  -3  -7 -11 1218.07 775.927   3
 -10   7 -11 1524.74 624.841   3
   3 -10 -11 2047.26 625.436   1
  -7  10  -8 34436.6 1871.63   2
  -3  -7  -8 36745.1 1949.45   3
  10  -3  -8 31033.7 1801.03   1
   3 -10  -8 36436.5 1579.86   1
   3 -10  -8 30437.4 1893.23   3
  10  -3  -8 26035.6 681.487   2
 -10   7  -8 30846.9 1591.02   3
   7   3  -8 35031.6 1265.99   2
  -3  -7  -8 28061.4 1334.16   4
   7   3  -8 30922.6 1822.16   1
  -7  10  -8 35347.1 1594.08   3
  -3  -7  -8 32037.1 1209.22   1
  -7  10  -8 32730.2 1270.87   4
   3 -10  -8 34923.4 1367.80   4
  -7  10  -8 33730.6 1639.11   1
 -10   7  -8 31908.0 1153.43   1
   3 -10  -5 4046.04 522.821   4
   7   3  -5 3421.22 370.040   2
  -3  -7  -5 3422.75 375.397   1
   3 -10  -5 4451.64 547.257   1
 -10   7  -5 3513.38 274.741   1
  -7  10  -5 3875.14 458.694   4
   3 -10  -5 3381.16 399.449   2
  -7  10  -5 3420.94 450.788   3
  -3  -7  -5 4468.27 647.626   3
  -7  10  -5 3242.96 591.385   2
   7   3  -5 3613.67 305.949   4
  -3  -7  -5 3654.36 510.458   4
  10  -3  -5 3950.22 636.307   1
 -10   7  -5 3600.91 540.542   3
   7   3  -5 2532.00 590.279   1
   7   3  -5 3654.34 463.086   3
   7   3  -2 51036.1 1134.19   2
 -10   7  -2 50318.1 1213.41   3
  -7  10  -2 50048.7 1559.01   2
 -10   7  -2 50918.5 1057.65   1
   7   3  -2 49538.6 1312.43   4
  -7  10  -2 55657.9 1279.51   1
   3 -10  -2 53861.2 1345.96   2
   3 -10  -2 52664.6 1486.07   4
  -3  -7  -2 49451.9 1296.58   3
  -7  10  -2 49210.9 1408.21   4
  -7  10  -2 51729.0 925.458   3
   3 -10  -2 51583.3 1321.73   1
  10  -3  -2 51516.8 1599.02   1
  -3  -7  -2 50583.0 1383.29   2
   7   3  -2 50475.7 1068.35   3
  10  -3  -2 49137.7 1219.04   3
   7   3  -2 49650.4 1555.20   1
  -3  -7  -2 53749.6 1560.07   4
 -10   7   1 15017.0 696.231   3
  -3  -7   1 14681.0 753.253   2
  -7  10   1 14780.7 756.567   1
  -7  10   1 15674.2 690.068   2
   3 -10   1 16777.3 830.922   4
   7   3   1 14590.0 822.599   4
  -3  -7   1 14855.4 770.140   4
 -10   7   1 14670.6 818.076   1
  -7  10   1 15765.8 806.037   4
   7   3   1 15463.5 720.974   3
   3 -10   1 17365.2 874.702   2
  10  -3   1 15012.1 597.544   1
   7   3   1 14982.8 781.406   2
  -3  -7   1 15649.7 428.659   3
  10  -3   1 12559.1 661.521   3
  -7  10   4 57648.9 1228.48   2
   7   3   4 55756.7 1843.58   2
   7   3   4 56368.1 1695.71   4
 -10   7   4 52100.8 1231.99   4
  10  -3   4 52579.8 1752.76   3
   3 -10   4 58768.7 1518.89   4
   7   3   4 57653.2 976.734   1
  -7  10   4 58902.8 1508.91   4
  -3  -7   4 53029.6 1577.40   2
   7   3   4 52522.6 1812.70   3
 -10   7   4 57434.3 1986.68   1
  -3  -7   4 57469.1 1361.32   4
  -7  10   4 56558.4 1848.63   1
   7   3   7 149.122 196.493   1
  -7  10   7 336.398 241.161   4
  -8  10 -12 2820.59 852.254   3
   2 -10 -12 1539.54 634.493   1
  10  -2 -12 1324.86 722.747   1
 -10   8 -12 3022.79 891.056   3
  -2  -8 -12 2297.79 955.041   3
   8   2 -12 3006.16 1036.46   3
   8   2 -12 3192.85 972.879   1
  -8  10 -12 1681.47 711.141   2
   2 -10 -12 2349.00 1066.35   3
  -8  10  -9 12621.4 846.070   4
  10  -2  -9 10535.3 516.987   2
  -8  10  -9 14721.8 1108.20   1
   2 -10  -9 18474.9 1573.57   3
 -10   8  -9 12623.3 873.225   1
   8   2  -9 15077.6 1365.51   1
   2 -10  -9 18692.6 1190.75   1
  -2  -8  -9 16009.8 1452.57   3
  10  -2  -9 14308.8 1362.07   1
 -10   8  -9 14879.0 966.665   4
  -2  -8  -9 14731.0 942.669   1
   8   2  -9 13741.2 828.664   2
 -10   8  -9 14442.8 1181.93   3
  -8  10  -9 15287.3 1178.89   3
  -8  10  -9 14860.0 1375.43   2
   8   2  -6 2200.70 589.012   1
  -8  10  -6 1302.33 413.447   3
  -2  -8  -6 1167.33 539.689   3
   2 -10  -6 996.466 359.042   1
   2 -10  -6 1759.57 381.612   2
 -10   8  -6 734.607 266.969   1
  10  -2  -6 812.543 503.648   1
 -10   8  -6 2301.26 500.445   3
  -2  -8  -6 1340.54 324.826   1
 -10   8  -6 947.327 205.786   1
  -2  -8  -6 1039.02 391.948   4
  10  -2  -6 643.380 111.371   2
   8   2  -6 1905.78 308.588   2
   2 -10  -6 1220.51 500.789   3
  -8  10  -6 1273.24 332.625   4
   2 -10  -6 856.770 335.111   4
   2 -10  -3 33778.7 1251.96   4
   8   2  -3 31369.1 979.712   3
  10  -2  -3 32299.1 1411.48   1
 -10   8  -3 33743.5 1090.47   3
  -8  10  -3 32091.6 936.126   3
 -10   8  -3 32228.2 852.349   1
  -2  -8  -3 32093.8 980.897   1
  -8  10  -3 32257.8 980.683   1
  10  -2  -3 31688.4 1068.18   3
   2 -10  -3 33689.0 1128.32   1
   2 -10  -3 32108.4 1109.77   2
  -2  -8  -3 29170.9 1123.34   2
  10  -2  -3 32398.5 650.737   2
   8   2  -3 31091.7 1397.51   1
   8   2  -3 31282.6 853.599   2
  -2  -8  -3 31366.7 1258.28   4
   8   2  -3 28837.7 954.916   4
  -8  10  -3 31337.5 1168.63   4
  -8  10  -3 29076.6 1309.27   2
  -2  -8  -3 30647.9 1196.45   3
  -8  10   0 23413.3 990.651   4
  -8  10   0 22042.7 893.772   1
  10  -2   0 22164.1 879.197   1
  -2  -8   0 24312.1 572.990   3
   8   2   0 22942.3 794.743   3
  -2  -8   0 23322.0 1000.77   4
   2 -10   0 24612.3 548.276   3
   2 -10   0 24319.0 982.474   2
  -2  -8   0 24606.3 951.396   2
   8   2   0 22222.6 889.983   2
   2 -10   0 21830.9 940.916   4
  -8  10   0 24092.2 963.732   2
  -8  10   0 23862.9 717.416   3
   2 -10   0 23388.0 882.604   1
   8   2   0 22813.1 988.177   4
  10  -2   0 25015.3 853.233   3
 -10   8   0 24779.8 812.756   3
 -10   8   0 23077.9 917.529   1
  -2  -8   3 21871.3 1025.69   2
  -2  -8   3 21011.6 897.136   4
   8   2   3 19120.9 471.779   1
 -10   8   3 17719.5 413.154   2
 -10   8   3 19186.6 835.488   4
   2 -10   3 21423.5 1077.80   2
  10  -2   3 20701.1 1025.44   3
  -8  10   3 21937.5 1119.63   1
   8   2   3 19645.7 1018.96   3
  -8  10   3 20324.1 927.597   4
  -8  10   3 20571.7 658.392   2
   8   2   3 22158.7 1070.13   4
   8   2   3 21039.8 1090.36   2
 -10   8   3 23070.8 1212.60   1
   2 -10   3 21795.8 942.426   4
  -2  -8   6 13261.6 635.652   4
 -10   8   6 13105.1 598.290   4
   8   2   6 12098.3 459.072   1
  -8  10   6 12899.0 704.369   4
  -8  10   9 4946.59 346.569   4
  -1  -9 -10 1266.18 750.680   3
   9   1 -10 1697.08 715.492   1
   1 -10 -10 1741.17 774.586   3
   1 -10 -10 1056.13 456.848   1
  -9  10 -10 2249.71 455.277   4
  -9  10 -10 1536.31 675.491   2
  -9  10 -10 1383.24 639.996   3
  -1  -9 -10 820.946 395.015   1
  -9  10 -10 750.817 529.320   1
  10  -1 -10 124.478 608.265   1
 -10   9 -10 941.672 352.484   4
 -10   9 -10 1453.08 517.679   1
 -10   9 -10 2172.27 589.232   3
   1 -10  -7 1531.68 405.816   4
   1 -10  -7 1894.68 440.421   1
 -10   9  -7 2288.52 548.267   3
  10  -1  -7 2097.03 629.870   1
  -1  -9  -7 1514.59 355.852   1
  -9  10  -7 1848.81 400.374   4
   1 -10  -7 1765.55 675.222   3
  10  -1  -7 1734.14 206.613   2
   9   1  -7 2125.76 304.979   2
   9   1  -7 935.690 539.005   1
  -1  -9  -7 2717.04 679.543   3
  -9  10  -7 1587.04 439.642   1
  -1  -9  -7 1049.90 392.450   4
  -9  10  -7 2150.49 511.149   3
 -10   9  -7 1880.78 280.249   1
 -10   9  -7 2031.39 437.216   1
  -1  -9  -4 6660.92 714.971   3
   1 -10  -4 6222.61 554.608   1
   9   1  -4 6114.60 531.507   3
   1 -10  -4 6062.41 601.399   4
  10  -1  -4 6031.68 302.373   2
  -9  10  -4 6061.99 458.386   1
  -1  -9  -4 6958.61 659.061   4
  10  -1  -4 6133.38 732.280   1
  -1  -9  -4 6563.84 596.659   2
  -9  10  -4 6703.80 545.104   3
  -9  10  -4 6660.87 626.965   4
   9   1  -4 5694.30 719.194   1
   1 -10  -4 6506.35 705.283   3
   1 -10  -4 5692.19 537.616   2
 -10   9  -4 7202.20 586.093   3
   9   1  -4 5321.93 355.008   2
  -1  -9  -4 6476.67 520.641   1
 -10   9  -4 6180.70 410.481   1
  10  -1  -4 6405.29 557.433   3
   9   1  -1 1259.47 253.920   3
  -1  -9  -1 1543.05 320.545   2
 -10   9  -1 1149.78 293.068   1
   9   1  -1 1281.34 393.908   1
  -9  10  -1 855.231 293.191   1
  -9  10  -1 1507.52 351.698   2
  10  -1  -1 1508.49 363.662   1
 -10   9  -1 1194.78 250.419   3
  -1  -9  -1 1215.87 337.440   4
   1 -10  -1 988.628 278.363   2
   1 -10  -1 1212.25 335.475   4
   1 -10  -1 1148.77 288.640   1
  -9  10  -1 1297.94 235.139   3
  10  -1  -1 1095.91 270.190   3
  -1  -9  -1 1291.23 256.252   3
  10  -1  -1 1093.93 246.347   2
  -9  10  -1 871.656 293.255   4
   9   1  -1 814.256 204.682   2
   9   1  -1 818.920 304.689   4
   1 -10  -1 1241.71 255.527   3
 -10   9   2 13215.4 839.685   1
   9   1   2 13509.0 852.362   2
 -10   9   2 12706.9 715.294   4
  -1  -9   2 12960.1 749.834   4
   1 -10   2 13177.0 766.734   4
  -1  -9   2 14294.5 819.013   2
   9   1   2 13444.2 531.505   1
   9   1   2 12406.8 745.116   3
   1 -10   2 13079.5 814.593   2
  10  -1   2 12289.4 483.569   1
 -10   9   2 12278.3 506.599   2
   9   1   2 13097.0 839.380   4
  -9  10   2 12244.1 814.773   1
  -9  10   2 12895.9 567.878   2
  -9  10   2 11804.5 724.774   4
  10  -1   2 12648.1 759.579   3
   1 -10   5 9599.49 639.119   4
 -10   9   5 9283.03 588.588   4
  -9  10   5 9270.06 628.996   4
  -1  -9   5 9219.39 613.051   4
  -9  10   5 10139.3 497.003   2
  -9  10   8 1308.81 250.007   4
 -10   9   8 1081.59 172.665   4
 -10  10 -11-371.255 538.510   3
  10   0 -11-697.720 615.983   1
 -10  10 -11-85.8472 659.391   2
   0 -10 -11 499.297 784.456   3
   0 -10 -11 383.102 458.165   1
  10   0  -8 31355.3 1879.28   1
 -10  10  -8 32036.6 1408.59   4
   0 -10  -8 28851.7 1374.99   4
 -10  10  -8 27755.7 1032.48   1
 -10  10  -8 30215.2 1374.08   1
 -10  10  -8 34635.1 1638.63   3
   0 -10  -8 35768.3 1452.75   1
   0 -10  -8 36083.9 2029.93   3
  10   0  -8 32476.3 943.135   2
 -10  10  -5 99.6270 156.508   1
   0 -10  -5-173.209 281.561   2
  10   0  -5 43.3749 117.566   2
   0 -10  -5-134.363 249.996   1
   0 -10  -5-265.826 330.349   4
   0 -10  -5 236.043 434.616   3
  10   0  -5 254.988 417.016   1
 -10  10  -5 187.585 296.840   3
   0 -10  -2 40434.8 1207.83   1
 -10  10  -2 42227.1 1148.17   1
   0 -10  -2 40548.6 1415.25   4
 -10  10  -2 39348.3 1000.99   3
   0 -10  -2 42654.9 1259.02   3
  10   0  -2 39420.1 986.939   2
  10   0  -2 38880.9 1071.84   3
  10   0  -2 38379.2 1484.63   1
   0 -10  -2 41943.0 1307.39   2
 -10  10   1 250.925 302.396   4
   0 -10   1 159.537 245.865   4
  10   0   1 263.149 290.688   4
 -10  10   1 152.080 219.425   3
  10   0   1 59.5523 244.563   1
   0 -10   1 47.3166 239.571   2
 -10  10   1 133.521 328.068   1
  10   0   1 147.636 247.456   3
 -10  10   1-354.136 234.066   2
  10   0   1 14.9572 250.139   2
 -10  10   4 70378.9 1084.32   2
   0 -10   4 70699.8 1709.05   4
   0 -10   4 67360.9 1994.65   2
 -10  10   4 68102.1 1653.62   4
 -10  10   7-347.617 218.408   4
   0  11 -11 110.144 514.729   3
  11 -11 -11-181.779 654.342   1
   0  11 -11-747.763 686.145   1
 -11   0 -11 500.168 686.553   3
   0  11 -11 635.611 520.766   2
   0  11  -8 1272.98 448.170   2
   0  11  -8 1657.50 327.440   4
  11 -11  -8 401.758 143.919   2
 -11   0  -8 2179.34 705.884   3
   0  11  -8 1375.75 604.836   1
  11 -11  -8 1567.68 574.631   1
   0  11  -8 1329.19 498.448   3
  11 -11  -5-465.689 416.995   1
   0  11  -5 320.592 297.395   2
  11 -11  -5 75.9551 127.306   2
 -11   0  -5-117.468 377.763   3
   0  11  -5 170.386 245.695   3
   0  11  -5 144.233 248.492   4
  11 -11  -2 5479.88 487.211   3
  11 -11  -2 4876.23 597.574   1
   0  11  -2 5911.12 611.716   2
   0  11  -2 5266.36 586.759   4
 -11   0  -2 5454.86 597.670   2
 -11   0  -2 5367.64 608.189   4
 -11   0  -2 5649.03 551.441   3
 -11   0   1 437.814 292.378   4
  11 -11   1 103.382 202.219   3
 -11   0   1 2.61556 199.508   2
   0  11   1 170.589 315.810   4
   0  11   1 198.619 254.276   1
   0  11   1 203.613 263.354   2
  11 -11   1 69.0176 230.096   1
 -11   0   1 319.734 243.861   3
   0  11   4 8511.67 688.483   1
 -11   0   4 8856.16 585.548   4
   0  11   4 7928.52 682.438   2
   0  11   4 8004.90 715.999   4
  11 -11   4 7594.73 659.875   3
 -11   0   4 8515.97 472.199   2
   0  11   7 26.5254 329.834   2
   0  11   7 53.8583 327.070   4
   0  11  10 888.431 400.184   4
  10 -11  -9 4452.12 824.598   1
   1  10  -9 5946.11 775.362   2
   1  10  -9 4535.42 342.399   4
   1  10  -9 5428.11 1003.62   1
  11 -10  -9 5623.37 945.417   1
 -11   1  -9 5920.37 930.207   3
  -1  11  -9 8808.54 1135.01   1
  -1  11  -9 6116.37 812.908   2
 -10  -1  -9 5726.86 964.430   3
   1  10  -9 5385.08 775.471   3
  -1  11  -9 7110.32 843.343   3
  -1  11  -9 4833.82 435.481   4
  10 -11  -6 407.315 401.981   1
  -1  11  -6 845.564 325.340   4
  -1  11  -6 342.757 347.903   2
   1  10  -6 731.029 320.720   2
   1  10  -6 493.693 282.183   4
  11 -10  -6 301.780 428.253   1
  10 -11  -6 407.680 170.057   2
   1  10  -6 1091.18 388.385   3
  -1  11  -6 350.797 296.614   3
 -10  -1  -6 619.920 436.969   3
 -11   1  -6 1187.10 504.718   3
  11 -10  -6 176.030 78.7871   2
   1  10  -3 22418.6 557.431   3
 -11   1  -3 21844.0 1052.59   3
  11 -10  -3 20778.1 959.335   3
  10 -11  -3 20583.1 954.499   3
  -1  11  -3 23069.1 1064.51   4
   1  10  -3 22649.7 1069.11   2
 -10  -1  -3 22103.2 1054.26   3
  -1  11  -3 20288.9 558.358   3
  -1  11  -3 20127.0 1051.16   2
 -11   1  -3 18569.9 1031.28   4
  10 -11  -3 22008.7 769.894   2
 -10  -1  -3 20333.4 1082.14   4
   1  10  -3 20342.1 988.343   4
  11 -10  -3 20844.3 1135.92   1
  10 -11  -3 21526.6 1089.69   1
 -10  -1  -3 20952.2 1088.86   2
 -11   1  -3 19808.1 1062.16   2
   1  10   0 2664.62 465.739   4
   1  10   0 2912.27 425.515   2
  -1  11   0 1990.85 406.897   4
   1  10   0 2604.81 253.440   3
 -11   1   0 2194.97 410.922   4
  11 -10   0 2847.87 316.894   3
   1  10   0 3293.68 383.387   1
  10 -11   0 2544.56 294.562   3
  11 -10   0 2463.91 403.972   1
  10 -11   0 3108.24 405.960   1
  -1  11   0 2460.69 385.465   2
 -10  -1   0 2602.47 351.038   3
 -10  -1   0 3062.46 473.049   4
 -10  -1   0 2549.52 352.005   2
  -1  11   0 2756.53 368.248   1
 -11   1   0 2419.32 348.040   2
 -11   1   0 2574.07 361.042   3
   1  10   3 24957.7 1098.96   2
   1  10   3 24523.7 1171.48   4
 -11   1   3 23072.6 682.839   2
  -1  11   3 24710.9 1164.29   4
  -1  11   3 25678.3 1082.79   1
 -10  -1   3 24667.6 979.774   4
  10 -11   3 22631.1 925.980   3
   1  10   3 25312.7 999.335   1
 -11   1   3 24171.9 1292.35   1
  11 -10   3 22578.5 983.639   3
 -10  -1   3 24554.3 793.321   2
 -11   1   3 23575.2 948.436   4
  -1  11   3 25726.4 1072.63   2
   1  10   6 1705.48 487.737   1
   1  10   6 2267.38 448.191   4
  -1  11   6 2189.30 447.546   4
 -11   1   6 1809.28 224.972   4
 -10  -1   6 1204.37 199.438   4
  -1  11   6 1945.82 488.123   2
   1  10   6 2230.91 507.213   2
   1  10   9 3096.27 538.988   4
  -1  11   9 3569.07 572.615   4
   9 -11 -10 3846.13 773.183   1
   2   9 -10 2921.66 813.789   1
  -2  11 -10 3449.39 798.640   1
   2   9 -10 3106.99 654.182   2
  -2  11 -10 3659.70 685.577   3
   2   9 -10 3927.75 807.184   3
  -9  -2 -10 2482.50 722.409   3
  11  -9 -10 2946.53 767.707   1
  -2  11 -10 2985.43 705.269   2
 -11   2 -10 2856.20 746.548   3
 -11   2  -7 24136.3 1428.59   3
   2   9  -7 21405.6 1198.25   2
   9 -11  -7 22482.6 1398.12   1
   2   9  -7 23724.1 1558.75   1
  -2  11  -7 23197.8 1043.16   4
   2   9  -7 23174.3 869.881   4
   9 -11  -7 20194.2 772.096   2
  11  -9  -7 22314.0 1461.72   1
  -2  11  -7 26305.7 1516.87   1
  -2  11  -7 19708.9 1098.61   3
  -9  -2  -7 21754.0 1462.29   3
  -2  11  -7 24754.4 1402.56   2
  -9  -2  -4 23712.3 1189.81   4
   9 -11  -4 23839.7 775.069   2
   2   9  -4 25978.2 1074.70   4
   9 -11  -4 24463.4 1024.70   4
   2   9  -4 26723.4 1171.39   2
   2   9  -4 25614.6 796.136   3
 -11   2  -4 23724.4 1144.12   3
   9 -11  -4 24996.2 1229.45   1
  -9  -2  -4 25501.5 1222.41   3
  11  -9  -4 26320.6 1324.52   1
  -2  11  -4 23988.4 791.567   3
  -2  11  -4 23585.8 1188.33   2
 -11   2  -4 22619.9 1162.79   4
  -2  11  -4 24740.0 1077.83   4
  11  -9  -1 42303.9 1104.22   3
  -2  11  -1 45487.0 1435.72   2
   9 -11  -1 42000.0 1304.14   1
  -2  11  -1 44716.8 1460.06   4
 -11   2  -1 44127.0 1427.34   4
   9 -11  -1 43486.0 1058.48   3
  11  -9  -1 43002.9 1333.83   1
   9 -11  -1 45684.9 1269.85   2
   2   9  -1 45553.4 1344.73   2
 -11   2  -1 43838.6 1336.70   2
 -11   2  -1 43087.5 1103.96   1
  -9  -2  -1 42733.2 1326.63   2
  -9  -2  -1 42455.1 1425.57   4
  -2  11  -1 45400.6 1288.03   1
   2   9  -1 43567.4 707.431   3
  -9  -2  -1 45113.3 1181.41   3
 -11   2  -1 44932.8 1224.88   3
   2   9  -1 41264.1 1395.53   4
  11  -9   2 17838.0 801.340   3
  -9  -2   2 18602.4 776.671   3
 -11   2   2 15531.6 797.138   3
   2   9   2 16245.9 734.930   1
  -2  11   2 16870.4 821.033   2
 -11   2   2 17444.9 825.762   4
  11  -9   2 16541.8 641.981   1
 -11   2   2 17687.2 588.981   2
 -11   2   2 16989.7 1005.22   1
   9 -11   2 16604.4 675.947   3
   2   9   2 15584.7 816.118   3
  -9  -2   2 17272.1 695.267   2
   9 -11   2 15907.3 722.266   1
   2   9   2 15975.4 857.973   2
  -9  -2   2 17079.9 835.382   4
  -2  11   2 16796.9 832.528   1
   2   9   2 17436.9 983.336   4
  -2  11   2 15554.1 916.846   4
   9 -11   5 28188.6 1281.17   3
   2   9   5 27564.3 1285.63   4
  -2  11   5 27146.3 1230.81   4
  -9  -2   5 29453.5 1010.71   2
  -2  11   5 27874.2 1225.67   2
   2   9   5 28776.7 1224.76   1
 -11   2   5 29190.9 883.576   4
  -9  -2   5 26848.5 876.331   4
  -2  11   5 28936.4 1322.64   1
   2   9   5 26974.6 1320.95   2
  -2  11   8 6260.40 663.865   4
   2   9   8 6112.98 693.603   4
  -8  -3 -11 3316.37 900.651   3
   8 -11 -11 3054.51 748.310   1
   8 -11 -11 1823.85 1017.50   3
  11  -8 -11 3259.17 832.830   1
  -3  11 -11 2730.03 763.752   1
   3   8 -11 2646.92 975.840   1
  -3  11 -11 2858.33 717.865   2
 -11   3 -11 3559.34 864.977   3
   3   8 -11 3793.76 839.283   3
   3   8 -11 1934.52 584.972   2
  -3  11 -11 5923.76 891.220   3
   8 -11  -8 3725.47 718.146   1
   3   8  -8 5481.81 885.383   1
   8 -11  -8 4417.81 465.793   2
  -3  11  -8 3970.32 741.603   2
 -11   3  -8 5314.76 783.278   3
  -8  -3  -8 3418.81 268.467   1
  11  -8  -8 4943.07 858.389   1
  -8  -3  -8 5734.92 895.065   3
   3   8  -8 5570.59 701.824   2
  -3  11  -8 4652.50 661.121   3
   3   8  -8 4520.85 303.315   4
  -3  11  -8 5680.48 538.377   4
  -3  11  -8 5863.36 857.834   1
  -8  -3  -5 3770.15 592.348   3
   8 -11  -5 4037.39 619.048   1
 -11   3  -5 4319.28 629.867   3
  -3  11  -5 3882.00 500.215   4
  -3  11  -5 2887.00 530.523   2
   8 -11  -5 4530.03 397.887   2
   3   8  -5 4832.70 465.571   4
   8 -11  -5 4571.90 480.752   4
  11  -8  -5 5431.86 717.570   1
  -3  11  -5 4217.42 450.929   3
  -8  -3  -5 4198.93 566.148   4
   3   8  -5 4036.87 506.486   2
 -11   3  -5 4604.84 593.225   4
  -8  -3  -2 27853.5 1113.31   2
 -11   3  -2 27960.1 1174.90   2
 -11   3  -2 26305.7 679.494   1
   3   8  -2 28534.9 607.746   3
   8 -11  -2 26979.7 930.390   2
  -3  11  -2 27052.4 1135.71   4
   8 -11  -2 27204.3 957.412   3
  11  -8  -2 25522.1 937.884   3
 -11   3  -2 27904.7 1026.15   3
   3   8  -2 28476.4 1064.48   2
 -11   3  -2 25181.8 1125.42   4
  -3  11  -2 26442.6 1128.49   2
  -8  -3  -2 26281.1 1163.83   4
   8 -11  -2 27206.6 1082.20   4
   3   8  -2 26644.8 1073.81   4
   8 -11  -2 26470.7 1127.63   1
  -3  11  -2 26767.5 992.573   1
  11  -8  -2 27319.6 1182.10   1
  -8  -3  -2 25172.2 1000.30   3
 -11   3   1 12748.9 682.312   3
  -8  -3   1 12114.5 630.289   2
  -3  11   1 11927.2 791.326   4
  -3  11   1 12721.2 705.438   2
  11  -8   1 12107.8 596.219   1
 -11   3   1 13214.8 808.091   1
   3   8   1 12628.5 800.028   4
   3   8   1 12797.0 645.144   3
 -11   3   1 11654.6 717.861   4
  11  -8   1 12138.9 628.852   3
   8 -11   1 12533.1 502.988   3
  -8  -3   1 12388.2 735.642   4
   8 -11   1 13159.0 662.636   1
 -11   3   1 13249.3 594.816   2
  -8  -3   1 13173.1 595.357   3
  -3  11   1 12455.7 711.191   1
   3   8   1 12751.0 623.974   1
  -8  -3   4 7286.52 532.467   2
   3   8   4 6560.20 516.333   1
  -3  11   4 6355.69 609.156   4
  -8  -3   4 6790.31 495.333   4
   3   8   4 6951.90 682.273   4
  -3  11   4 7232.03 585.366   2
   8 -11   4 6440.20 591.223   3
  -3  11   4 5818.70 639.522   1
  11  -8   4 7435.57 667.595   3
 -11   3   4 7462.91 510.422   4
   3   8   4 6652.40 658.687   2
   3   8   7 4347.63 595.672   4
   3   8   7 3589.27 554.990   1
  -3  11   7 5556.25 594.417   4
  -3  11  10 10974.4 764.635   4
  -4  11 -12 1282.74 654.872   2
   7 -11 -12 114.214 568.537   1
  -4  11 -12 461.213 688.720   1
  -4  11 -12 1218.69 638.350   3
   7 -11 -12 1747.57 1144.20   3
   4   7 -12 1300.32 879.896   1
  11  -7 -12 831.322 633.453   1
  -7  -4 -12 1586.58 886.516   3
 -11   4 -12 913.592 710.531   3
   4   7 -12-134.054 634.468   3
  -7  -4  -9 6073.44 431.722   1
  -7  -4  -9 7409.73 1028.62   3
  -4  11  -9 9297.27 1042.53   2
   4   7  -9 8024.80 1111.24   1
   7 -11  -9 9473.78 1054.62   1
  -4  11  -9 8363.00 983.559   1
   4   7  -9 9317.71 876.389   2
 -11   4  -9 8759.71 1039.38   3
  -4  11  -9 9719.09 929.775   3
   4   7  -9 7735.57 954.107   3
  -4  11  -9 9772.25 665.615   4
  11  -7  -9 9249.79 1092.84   1
   4   7  -6 727.085 294.852   2
  -4  11  -6 1469.36 473.998   2
   7 -11  -6 1429.17 457.606   1
  -4  11  -6 1075.44 328.658   3
   4   7  -6 851.571 469.111   1
  -7  -4  -6 1009.36 178.131   1
   7 -11  -6 1403.81 288.392   2
   4   7  -6 1393.87 265.030   4
  -7  -4  -6 1349.29 484.696   3
 -11   4  -6 955.991 457.149   3
   7 -11  -6 1319.16 345.621   4
  11  -7  -6 980.619 498.395   1
  -4  11  -6 1013.61 323.146   4
   4   7  -3 5494.28 359.505   3
 -11   4  -3 4408.70 555.033   4
   4   7  -3 4960.57 494.238   4
   7 -11  -3 5339.77 556.063   1
  -7  -4  -3 4447.37 523.730   3
   4   7  -3 4560.61 466.539   2
  -4  11  -3 5238.88 320.053   3
  11  -7  -3 4455.87 583.229   1
 -11   4  -3 4331.03 507.143   3
   7 -11  -3 5024.22 540.692   4
  -7  -4  -3 5127.83 534.276   2
  11  -7  -3 5506.55 516.602   3
  -4  11  -3 4845.71 516.420   4
  -7  -4  -3 4206.89 546.782   4
   7 -11  -3 5241.88 435.544   2
  -4  11  -3 4910.43 578.725   2
   4   7   0 5513.79 555.263   4
 -11   4   0 6479.03 492.765   2
  -7  -4   0 6534.26 506.903   2
   7 -11   0 6312.20 339.371   3
   7 -11   0 6616.23 502.240   1
 -11   4   0 5533.44 518.601   1
   4   7   0 6479.10 528.752   2
   7 -11   0 6494.58 569.470   4
  11  -7   0 5336.36 437.042   3
  -7  -4   0 6456.15 566.411   4
  -4  11   0 5503.68 519.845   2
  -4  11   0 6284.55 507.842   1
 -11   4   0 6191.44 479.257   3
  -4  11   0 5909.98 587.503   4
   7 -11   0 6371.72 553.591   2
  11  -7   0 6128.51 522.093   1
  -7  -4   0 6134.48 400.107   3
   4   7   0 7180.46 422.395   3
  -7  -4   3 11382.7 636.864   2
  11  -7   3 12074.2 773.226   3
  -4  11   3 11387.7 772.766   4
  -4  11   3 10796.6 739.348   1
   4   7   3 11898.5 826.854   4
  11  -7   3 11383.3 425.247   1
   4   7   3 11000.6 794.952   3
 -11   4   3 12302.5 937.552   1
  -7  -4   3 11489.0 654.318   4
   4   7   3 11047.3 585.321   1
  -4  11   3 11656.2 667.785   2
   7 -11   3 11920.6 608.736   3
   4   7   3 10773.7 757.983   2
  -4  11   6 3009.00 476.598   2
 -11   4   6 1776.36 201.633   4
   4   7   6 1953.34 499.377   2
  -4  11   6 2930.93 446.563   4
  -7  -4   6 2037.64 237.501   4
   4   7   6 2068.00 395.450   1
 -11   4   6 1577.78 189.574   4
   4   7   6 3418.79 519.229   4
  -4  11   9 9610.02 720.847   4
  -6  -5 -10 4993.75 465.277   1
   5   6 -10 5709.67 1027.22   1
 -11   5 -10 10709.7 1172.09   3
  -6  -5 -10 6108.39 1033.32   3
   5   6 -10 7997.07 822.795   2
   6 -11 -10 7613.35 933.895   1
  11  -6 -10 6854.42 1017.78   1
  -5  11 -10 7923.94 937.110   3
   5   6 -10 7926.11 1034.42   3
  -5  11 -10 7586.92 1002.98   1
   6 -11 -10 7395.72 1194.71   3
  -5  11 -10 7134.51 989.852   2
   6 -11  -7 18551.4 901.280   2
   6 -11  -7 19204.5 1210.03   1
  -5  11  -7 19788.8 1227.93   1
   5   6  -7 18779.7 1418.34   1
  -5  11  -7 17831.1 1274.09   2
  -6  -5  -7 18539.8 709.998   1
  -5  11  -7 20154.9 1105.14   3
  -6  -5  -7 18924.7 1344.84   3
   5   6  -7 17692.3 528.080   4
   6 -11  -7 19575.3 973.903   4
 -11   5  -7 18531.1 1247.90   3
   5   6  -7 19724.3 1049.41   2
  11  -6  -7 18722.8 1342.56   1
  -5  11  -7 19857.7 977.967   4
   5   6  -4 25840.1 1011.10   2
  -5  11  -4 25934.6 1285.79   2
   6 -11  -4 26202.4 1177.82   1
  11  -6  -4 23646.5 1267.35   1
 -11   5  -4 24099.4 1088.38   3
  -5  11  -4 26694.3 1106.05   4
  -6  -5  -4 25255.3 1178.36   4
   5   6  -4 25173.3 1294.88   1
 -11   5  -4 26381.6 1222.89   4
   5   6  -4 25223.7 869.472   3
  -6  -5  -4 23047.5 1128.29   2
   5   6  -4 26465.5 966.028   4
  -6  -5  -4 25121.1 1213.75   3
   6 -11  -4 27143.6 1131.29   4
  -5  11  -4 26189.8 867.997   3
   6 -11  -4 24784.9 917.413   2
 -11   5  -1 27638.1 920.414   3
   6 -11  -1 30620.9 1144.72   4
   6 -11  -1 28459.2 1028.32   1
   6 -11  -1 28409.9 813.636   3
  -5  11  -1 28140.6 1114.06   2
  11  -6  -1 29188.3 1113.37   1
   6 -11  -1 29599.3 1037.94   2
  -6  -5  -1 31092.8 914.392   3
  -5  11  -1 28988.2 510.977   3
  -6  -5  -1 30683.1 1182.56   4
   5   6  -1 27554.7 972.464   2
   5   6  -1 28422.7 1108.19   4
  -5  11  -1 32317.6 1051.00   1
  -6  -5  -1 30573.7 1070.75   2
  -5  11  -1 30778.4 1161.94   4
 -11   5  -1 28372.7 931.715   1
   5   6  -1 28846.1 723.328   3
  11  -6  -1 28519.8 916.554   3
  -6  -5   2 46069.4 1247.18   2
   6 -11   2 47206.3 880.057   3
   6 -11   2 44849.9 1401.67   4
  -6  -5   2 46029.2 1024.48   3
  -5  11   2 49828.4 1446.72   1
 -11   5   2 47463.5 1348.58   3
 -11   5   2 45348.7 1576.12   1
   5   6   2 46211.2 1538.06   4
  -6  -5   2 49077.5 1360.64   4
  11  -6   2 48600.3 902.933   1
   5   6   2 45106.9 1339.27   3
  -5  11   2 41691.3 1367.34   4
 -11   5   2 45768.3 808.724   2
  11  -6   2 48965.7 1350.23   3
   5   6   2 47535.0 1060.02   1
   6 -11   2 46104.4 1526.28   2
   5   6   2 44173.5 1443.54   2
  -5  11   2 44946.3 1200.56   2
   5   6   5 23438.5 1176.19   4
  -6  -5   5 23172.8 1061.27   2
   5   6   5 24628.2 915.920   1
 -11   5   5 22738.7 778.402   4
  -5  11   5 24830.6 1033.49   2
 -11   5   5 21483.2 727.287   4
  -5  11   5 23099.0 1063.53   4
  -6  -5   5 22728.0 820.410   4
  -5  11   8 19435.3 982.160   4
   5   6   8 16366.3 970.515   1
  -6  11 -11 7608.52 967.636   3
  11  -5 -11 7917.20 1203.18   1
  -5  -6 -11 6797.41 1162.53   3
   5 -11 -11 7389.94 920.997   1
  -6  11 -11 7309.29 1012.50   1
   6   5 -11 8292.58 1215.25   1
   5 -11 -11 9447.32 1468.54   3
   6   5 -11 8127.42 1180.81   3
  -6  11 -11 7990.04 1100.05   2
 -11   6 -11 8604.31 1115.21   3
  -6  11  -8 17517.9 1144.69   3
 -11   6  -8 21729.1 1397.87   3
  -6  11  -8 19342.8 996.176   4
   6   5  -8 19018.0 1038.43   2
   6   5  -8 20377.4 1520.28   1
   5 -11  -8 21047.8 1283.82   1
  -6  11  -8 18724.3 1361.16   2
  -5  -6  -8 20323.7 1491.57   3
 -11   6  -8 13535.0 594.553   1
   5 -11  -8 18919.6 1579.62   3
  11  -5  -8 20655.3 1463.75   1
  -5  -6  -8 16931.5 789.200   1
   5 -11  -8 18143.4 967.260   4
  -6  11  -8 21473.1 1327.12   1
   5 -11  -8 15047.5 911.824   2
   5 -11  -5 25081.0 1195.70   1
 -11   6  -5 25980.4 1235.02   3
  -6  11  -5 23871.8 1066.31   4
   5 -11  -5 27495.9 1177.56   4
   6   5  -5 24763.5 836.760   4
  -6  11  -5 20839.6 1240.25   2
   6   5  -5 24215.3 986.237   2
   5 -11  -5 25439.0 989.236   2
  -5  -6  -5 23262.4 1279.49   3
   6   5  -5 24765.4 1026.89   3
  11  -5  -5 25814.7 1387.62   1
  -5  -6  -5 24150.2 1178.92   4
   6   5  -5 24999.7 1412.27   1
  -6  11  -5 25067.0 1012.24   3
  -5  -6  -5 24959.3 791.994   1
  -6  11  -2 44666.6 1214.53   1
   6   5  -2 42280.6 1164.72   2
  -5  -6  -2 45191.9 1472.09   4
   5 -11  -2 46904.1 1451.06   4
 -11   6  -2 45616.3 1005.82   1
   6   5  -2 42513.6 1296.61   4
  -6  11  -2 46651.4 1446.59   4
  11  -5  -2 44131.7 1479.96   1
  11  -5  -2 42737.6 1161.25   3
  -6  11  -2 45007.1 1513.07   2
  -5  -6  -2 44617.6 1356.94   2
  -5  -6  -2 44573.2 1251.80   3
   5 -11  -2 46112.4 1262.73   2
 -11   6  -2 46051.3 1220.42   3
  -6  11  -2 49124.2 772.768   3
   5 -11  -2 44026.4 1313.26   1
   6   5  -2 45084.6 963.701   3
  -5  -6   1 31209.6 745.871   3
   5 -11   1 33090.1 1066.16   1
  -6  11   1 33426.5 1214.51   4
 -11   6   1 34979.7 1079.64   3
  -5  -6   1 31675.4 1151.16   4
 -11   6   1 30629.0 1174.96   1
  -6  11   1 32968.7 1160.52   1
  11  -5   1 32254.1 891.280   1
  -6  11   1 32284.1 1048.15   2
  -5  -6   1 31721.7 1060.44   2
   6   5   1 31119.4 1221.21   4
  11  -5   1 33005.6 1050.43   3
   5 -11   1 31859.5 1182.50   4
   6   5   1 31123.0 1010.90   3
   6   5   1 32335.7 1155.55   2
   5 -11   1 34582.2 553.355   3
   5 -11   1 34502.6 1278.50   2
  -6  11   4 30177.3 1002.52   2
   6   5   4 25826.9 1298.51   3
   6   5   4 26499.1 1277.44   2
  11  -5   4 26979.8 1280.38   3
  -5  -6   4 28849.5 1153.98   2
   6   5   4 27029.5 1223.12   4
 -11   6   4 28284.1 946.997   4
  -6  11   4 29394.8 1166.82   4
  -6  11   4 28699.8 1329.68   1
   6   5   4 30998.1 866.435   1
  -5  -6   4 29169.2 994.654   4
   6   5   7 19620.9 1132.83   4
   6   5   7 18806.7 879.255   1
  -6  11   7 19705.6 952.176   4
   4 -11 -12 1508.43 635.713   1
  -7  11 -12 168.696 622.463   2
   7   4 -12 456.715 785.205   1
   4 -11 -12 1230.41 861.381   3
  11  -4 -12 576.859 766.970   1
  -4  -7 -12 566.035 938.255   3
   7   4 -12 38.9387 725.497   3
  -7  11 -12 870.403 642.228   3
 -11   7 -12 1185.80 680.299   3
   4 -11  -9 9194.40 1299.43   3
  -7  11  -9 8014.57 687.557   4
  -7  11  -9 8650.18 1063.76   2
 -11   7  -9 7412.09 564.538   1
   7   4  -9 9474.47 757.082   2
  -7  11  -9 10159.7 971.643   3
 -11   7  -9 8217.60 965.664   3
  -7  11  -9 8568.50 991.207   1
  -4  -7  -9 7842.40 626.498   1
  -4  -7  -9 9530.38 1174.16   3
   7   4  -9 7793.95 1061.24   1
  11  -4  -9 7508.40 1049.69   1
   4 -11  -9 7898.95 867.201   1
 -11   7  -6 2299.55 271.293   1
  -4  -7  -6 2581.16 332.581   1
 -11   7  -6 2583.23 232.160   1
  -7  11  -6 2147.84 390.082   4
   4 -11  -6 2516.09 431.201   4
   7   4  -6 2943.16 266.589   4
   4 -11  -6 2706.57 510.445   1
   7   4  -6 2703.71 388.596   2
   7   4  -6 1781.40 675.688   1
 -11   7  -6 3036.53 549.971   3
  11  -4  -6 2450.68 670.191   1
   4 -11  -6 2530.69 388.701   2
  -7  11  -6 3534.18 503.199   3
  -7  11  -6 1463.45 489.723   2
  -4  -7  -6 2659.68 636.283   3
  -4  -7  -6 2283.59 487.647   4
   7   4  -3 12718.8 603.963   3
   7   4  -3 12506.9 688.659   4
   7   4  -3 9387.63 787.566   1
  -7  11  -3 11934.8 846.066   2
  -7  11  -3 13738.1 804.560   4
  -4  -7  -3 12580.4 836.301   4
  -7  11  -3 11822.9 648.492   1
 -11   7  -3 13974.9 531.880   1
  11  -4  -3 12633.2 925.231   1
  -4  -7  -3 12803.9 809.839   3
   4 -11  -3 14030.3 830.371   4
   4 -11  -3 13233.6 781.164   1
  -4  -7  -3 11565.9 754.494   2
  -7  11  -3 13821.8 566.713   3
 -11   7  -3 12720.1 742.793   3
   4 -11  -3 12452.9 695.913   2
  -4  -7  -3 13223.9 599.360   1
  11  -4  -3 12377.4 725.375   3
   7   4  -3 12704.9 637.837   2
 -11   7   0 7265.23 500.157   3
   4 -11   0 7111.67 566.510   2
  -4  -7   0 7638.09 621.873   4
   7   4   0 7199.54 552.103   2
  -7  11   0 6652.41 600.884   4
   4 -11   0 6496.21 517.730   1
  -7  11   0 6746.13 538.112   1
  -4  -7   0 7309.57 383.387   3
   7   4   0 7541.66 621.104   4
  11  -4   0 7133.19 537.786   1
  -4  -7   0 7896.35 585.592   2
  -7  11   0 8645.01 614.637   2
 -11   7   0 6583.39 536.780   1
   4 -11   0 8140.66 631.944   4
   7   4   0 7851.56 476.589   3
   4 -11   0 7365.19 296.153   3
  11  -4   0 5437.15 447.660   3
  -7  11   3 6123.64 640.634   1
   4 -11   3 5295.11 593.241   2
   7   4   3 5636.27 338.765   1
 -11   7   3 5415.15 669.283   1
  -4  -7   3 5136.21 505.174   2
  -7  11   3 5598.75 405.771   2
  -7  11   3 5051.07 531.942   4
   7   4   3 4807.24 555.696   2
   7   4   3 6091.19 621.701   4
  11  -4   3 4525.65 546.619   3
  -4  -7   3 4635.57 466.168   4
   4 -11   3 6583.78 564.345   4
   7   4   3 4771.37 581.096   3
  -7  11   6 1659.97 343.921   2
   7   4   6 1130.11 392.244   4
 -11   7   6 1462.53 236.715   4
   7   4   6 1104.63 239.008   1
  -7  11   6 1591.89 352.691   4
  -4  -7   6 1244.62 229.063   4
  -7  11   9 10411.5 616.306   4
   3 -11 -10 10142.8 1405.83   3
  -8  11 -10 8924.99 1126.40   2
  -8  11 -10 7998.07 703.421   4
  -8  11 -10 11430.5 1103.94   3
  -8  11 -10 9409.72 1029.64   1
 -11   8 -10 10461.7 1113.94   3
   3 -11 -10 12040.5 1065.20   1
   8   3 -10 9603.21 1295.70   1
   8   3 -10 8291.68 723.426   2
 -11   8 -10 9482.67 844.407   4
  -3  -8 -10 11888.4 1358.85   3
  11  -3 -10 8564.35 1132.58   1
  -3  -8 -10 9156.05 770.773   1
 -11   8  -7 4104.81 646.875   3
   8   3  -7 4352.24 795.350   1
  -8  11  -7 3948.30 524.810   4
  -8  11  -7 4605.97 605.391   3
  -8  11  -7 3979.27 778.197   2
  11  -3  -7 3923.36 773.014   1
  -3  -8  -7 4658.63 788.078   3
   3 -11  -7 4627.98 626.848   1
 -11   8  -7 3869.00 437.190   1
   3 -11  -7 5530.73 900.145   3
 -11   8  -7 4195.22 339.367   1
   8   3  -7 4987.80 480.857   2
   3 -11  -7 3548.63 511.791   4
  -3  -8  -7 3417.58 434.704   1
   3 -11  -4 7751.16 651.766   1
   8   3  -4 6657.51 495.633   4
  -8  11  -4 9256.55 835.140   2
  11  -3  -4 6022.07 715.765   1
  -8  11  -4 7687.40 539.909   1
  -3  -8  -4 7750.14 507.129   1
   8   3  -4 7491.26 552.375   3
  -3  -8  -4 8045.62 744.069   4
   8   3  -4 7086.59 810.298   1
 -11   8  -4 7697.88 422.256   1
  -3  -8  -4 7778.22 747.675   3
  -3  -8  -4 7679.43 648.987   2
   3 -11  -4 7968.92 719.189   4
 -11   8  -4 8114.12 640.609   3
   8   3  -4 7637.49 492.974   2
   3 -11  -4 8461.49 627.782   2
  -8  11  -4 8652.26 688.561   4
  -8  11  -4 8080.23 540.433   3
  -8  11  -1 12201.0 484.084   3
  -3  -8  -1 13014.6 739.203   2
  -8  11  -1 11776.6 771.396   4
  11  -3  -1 14338.2 840.733   1
  -8  11  -1 12710.2 694.126   1
  -3  -8  -1 11672.9 783.478   4
   8   3  -1 12270.3 751.693   4
   8   3  -1 11205.7 560.468   3
   3 -11  -1 12037.2 773.379   4
   8   3  -1 12343.7 641.260   2
   3 -11  -1 12888.0 727.565   2
   3 -11  -1 13756.0 725.785   1
   8   3  -1 11322.8 731.317   1
  -8  11  -1 14691.7 839.824   2
 -11   8  -1 11918.3 649.598   1
 -11   8  -1 11932.4 602.849   3
  -3  -8  -1 11912.8 571.898   3
  11  -3  -1 12128.0 635.212   3
 -11   8   2 26996.7 719.376   2
  -3  -8   2 27921.8 1090.70   2
  -8  11   2 27209.0 873.802   2
   3 -11   2 28122.0 1216.73   2
 -11   8   2 28642.5 1079.91   3
  11  -3   2 27061.7 1059.13   3
   8   3   2 27641.2 1219.40   4
   3 -11   2 26360.2 1091.78   4
 -11   8   2 27201.1 1238.96   1
  -3  -8   2 27715.9 1066.64   4
   8   3   2 27267.9 1080.76   3
  -8  11   2 27866.2 1118.77   4
  11  -3   2 27537.0 665.476   1
  -8  11   2 27398.3 1166.45   1
   8   3   2 27642.2 1188.58   2
  -8  11   5 5226.27 508.944   4
  -3  -8   5 5476.82 632.949   2
   8   3   5 5540.70 327.545   1
  -3  -8   5 4810.59 461.370   4
   8   3   5 5401.93 648.837   4
 -11   8   5 4101.24 394.167   4
  -8  11   5 5190.79 428.554   2
  -8  11   8 5561.91 489.953   4
   9   2 -11 7517.36 1248.69   1
  -9  11 -11 7019.34 1095.23   2
  -2  -9 -11 8392.88 1309.18   3
   2 -11 -11 9748.05 1420.90   3
  11  -2 -11 7827.67 1239.02   1
   2 -11 -11 6982.32 829.839   1
 -11   9 -11 9131.89 1109.95   3
  -9  11 -11 8320.73 1023.81   3
  -2  -9  -8 5430.19 572.920   1
  -2  -9  -8 6622.87 968.419   3
   2 -11  -8 7360.98 764.914   1
  -9  11  -8 6268.81 900.817   2
 -11   9  -8 5093.45 428.810   1
 -11   9  -8 6346.72 620.448   1
   9   2  -8 6755.64 1065.28   1
   2 -11  -8 4805.55 610.158   4
 -11   9  -8 8264.10 894.063   3
  -9  11  -8 5096.77 604.868   4
   9   2  -8 6271.13 524.635   2
   2 -11  -8 8830.30 1119.09   3
  -9  11  -8 5070.20 682.106   3
  11  -2  -8 5661.92 842.550   1
  11  -2  -8 4251.69 274.971   2
  -9  11  -8 5012.32 712.001   1
  11  -2  -8 3704.37 241.445   2
  -9  11  -5 27554.7 990.611   1
 -11   9  -5 27885.1 826.223   1
   9   2  -5 24385.4 1420.03   1
 -11   9  -5 27336.4 1198.06   3
  -2  -9  -5 27234.9 1024.95   1
  -9  11  -5 22680.0 1111.09   4
  -9  11  -5 26749.6 1469.36   2
   9   2  -5 26877.0 833.247   2
   2 -11  -5 27793.1 1262.41   4
  -2  -9  -5 26685.4 1280.02   4
  -2  -9  -5 26204.2 1380.66   3
   2 -11  -5 25706.2 1118.31   2
   2 -11  -5 27730.3 1173.62   1
  -9  11  -5 29304.8 1132.27   3
  11  -2  -5 26129.1 1484.89   1
  11  -2  -5 21944.8 462.295   2
   2 -11  -5 25912.5 1377.62   3
 -11   9  -2 18929.0 762.479   3
  11  -2  -2 18549.9 649.132   2
  -2  -9  -2 19847.4 812.752   1
   9   2  -2 18492.3 1029.31   1
   2 -11  -2 18790.8 847.448   3
  -2  -9  -2 18454.3 842.837   3
  -2  -9  -2 17650.4 957.415   4
   9   2  -2 17994.6 863.136   4
  -2  -9  -2 18415.2 902.152   2
  11  -2  -2 18760.3 1035.13   1
  -9  11  -2 18241.8 945.368   4
 -11   9  -2 18668.7 745.891   1
   9   2  -2 18097.2 721.291   2
   9   2  -2 18029.7 710.326   3
   2 -11  -2 20127.0 890.076   1
   2 -11  -2 16944.0 932.338   4
   2 -11  -2 18278.2 876.521   2
  -9  11  -2 18792.2 638.268   3
  11  -2  -2 16747.1 746.333   3
  -9  11  -2 18537.5 1013.32   2
  -9  11  -2 20348.6 848.496   1
   9   2   1 46807.9 1273.12   3
  -2  -9   1 48464.7 667.752   3
 -11   9   1 48251.9 1266.73   3
  -9  11   1 48043.1 1470.88   1
 -11   9   1 47443.5 1205.41   2
   2 -11   1 48647.6 1469.45   4
  11  -2   1 47904.7 1154.76   1
   9   2   1 46078.8 1528.72   4
  -2  -9   1 49415.5 1441.20   2
  -9  11   1 44258.0 1203.09   2
  -9  11   1 47740.8 1446.72   4
  -2  -9   1 48661.3 1473.83   4
 -11   9   1 47958.4 1508.01   1
  11  -2   1 47865.2 1307.89   3
   2 -11   1 49175.7 1491.18   2
   9   2   1 45504.9 1420.27   2
   2 -11   4 26318.9 1094.67   4
 -11   9   4 25121.3 967.288   4
   9   2   4 27732.7 1284.09   4
   2 -11   4 24079.9 1261.97   2
  -2  -9   4 26200.4 1216.57   2
  -9  11   4 26580.5 797.287   2
  -9  11   4 25281.7 1078.58   4
  -2  -9   4 25612.7 1036.52   4
  -9  11   7 21825.2 919.127   4
 -11   9   7 20290.8 746.107   4
 -10  11  -9 2880.43 509.163   4
 -11  10  -9 3407.83 591.872   1
 -10  11  -9 4897.57 875.920   2
 -11  10  -9 3064.12 521.531   4
  11  -1  -9 2546.95 252.328   2
   1 -11  -9 4283.49 931.408   3
  11  -1  -9 3488.53 810.104   1
  -1 -10  -9 3013.52 750.207   3
   1 -11  -9 5369.72 693.345   1
 -10  11  -9 3329.17 669.701   3
 -10  11  -9 3425.56 635.076   1
 -11  10  -9 4335.23 782.307   3
  10   1  -9 4143.77 869.151   1
  -1 -10  -9 3662.76 574.733   1
  10   1  -9 3523.15 394.756   2
  -1 -10  -6 2953.40 663.808   3
  -1 -10  -6 1847.72 400.678   1
  11  -1  -6 1560.99 174.260   2
   1 -11  -6 1499.09 402.128   4
 -10  11  -6 2515.80 496.715   3
   1 -11  -6 1917.48 566.779   3
  10   1  -6 2127.42 596.115   1
 -10  11  -6 1682.84 407.932   4
 -11  10  -6 1920.47 286.272   1
  11  -1  -6 1394.18 582.740   1
   1 -11  -6 2524.60 453.739   1
  10   1  -6 2646.24 285.700   2
 -11  10  -6 2090.25 438.301   3
 -10  11  -6 1438.33 289.189   1
  -1 -10  -6 1517.12 436.924   4
 -10  11  -3 26594.4 936.657   1
  11  -1  -3 24824.9 951.075   3
   1 -11  -3 25398.9 1016.35   1
  10   1  -3 26684.5 956.413   3
  10   1  -3 24414.6 1294.01   1
 -10  11  -3 26730.8 895.968   3
   1 -11  -3 27129.4 1211.81   4
   1 -11  -3 24976.4 1063.68   2
 -11  10  -3 26908.2 958.563   3
  -1 -10  -3 23695.2 1162.61   4
 -11  10  -3 26795.3 896.391   1
 -10  11  -3 23694.3 1120.32   4
  -1 -10  -3 24287.6 1120.67   3
   1 -11  -3 24534.9 1117.94   3
  10   1  -3 25456.4 789.254   2
  11  -1  -3 25196.4 1318.25   1
  11  -1  -3 24681.5 708.756   2
  -1 -10  -3 29058.1 1028.81   1
  -1 -10  -3 25918.9 1100.77   2
 -11  10   0 2699.49 410.813   1
  -1 -10   0 2536.90 217.352   3
  11  -1   0 2889.04 371.843   2
 -10  11   0 2303.92 308.230   3
   1 -11   0 2755.88 409.631   2
  -1 -10   0 2505.40 410.536   4
   1 -11   0 3124.38 426.062   4
  10   1   0 2571.60 403.331   1
  10   1   0 2767.02 449.663   4
 -11  10   0 2559.08 412.417   2
  11  -1   0 2236.01 386.181   1
  10   1   0 2308.33 326.749   3
 -11  10   0 2620.52 347.584   3
 -10  11   0 2951.01 397.261   1
  10   1   0 2485.19 376.564   2
   1 -11   0 2268.67 197.038   3
 -10  11   0 2363.54 369.531   2
  -1 -10   0 3024.54 458.271   2
  11  -1   0 2231.30 342.522   3
 -10  11   0 2996.90 444.662   4
  10   1   3 23257.6 595.163   1
 -10  11   3 22374.6 1013.60   4
   1 -11   3 23454.8 1186.16   2
  -1 -10   3 23143.7 1127.20   2
   1 -11   3 24299.6 1067.94   4
 -10  11   3 22134.9 690.301   2
  10   1   3 18055.1 442.032   1
 -11  10   3 21279.9 587.296   2
  10   1   3 21563.1 1152.46   4
 -11  10   3 19686.9 1146.62   1
  11  -1   3 19840.7 1049.95   3
 -10  11   3 23008.2 1216.85   1
 -11  10   3 21569.2 956.213   4
  10   1   3 20298.0 1071.17   3
  -1 -10   3 22445.5 997.228   4
 -11  10   6 664.376 251.003   4
 -10  11   6 1050.98 285.261   4
  -1 -10   6 699.859 257.641   4
 -10  11   9 4817.68 350.688   4
  11   0 -10 595.615 656.326   1
 -11  11 -10 161.340 445.967   1
   0 -11 -10 737.663 703.779   3
 -11  11 -10 356.889 344.619   4
 -11  11 -10-313.280 506.440   3
   0 -11 -10 929.423 459.331   1
 -11  11 -10 1378.55 695.711   2
 -11  11  -7 276.817 379.466   3
 -11  11  -7-183.159 346.365   4
 -11  11  -7 142.300 374.314   1
  11   0  -7 269.356 503.865   1
 -11  11  -7 47.6730 218.715   1
   0 -11  -7 30.6150 295.984   1
   0 -11  -7 56.4340 496.256   3
  11   0  -7-109.868 125.718   2
 -11  11  -4 8864.13 562.565   1
   0 -11  -4 9247.25 794.726   4
   0 -11  -4 9930.34 681.524   1
   0 -11  -4 9707.37 828.592   3
  11   0  -4 8517.26 428.069   2
   0 -11  -4 9393.40 715.308   2
  11   0  -4 7459.31 786.606   1
 -11  11  -4 8705.10 626.017   3
  11   0  -1-190.880 210.457   3
 -11  11  -1 395.801 335.399   4
  11   0  -1-137.878 226.286   2
  11   0  -1-23.7929 326.323   1
   0 -11  -1 555.025 323.523   4
   0 -11  -1 160.025 262.875   2
 -11  11  -1-90.3284 197.237   3
   0 -11  -1 123.674 201.573   3
 -11  11  -1 77.5238 350.715   2
 -11  11  -1 138.842 257.772   1
  11   0   2 6077.51 600.712   3
   0 -11   2 6450.80 577.773   4
  11   0   2 6725.53 431.575   1
   0 -11   2 7860.47 685.551   2
 -11  11   2 6574.86 594.529   4
  11   0   2 6518.57 669.971   2
 -11  11   2 6511.45 437.708   2
 -11  11   2 6675.18 693.385   1
   0 -11   5 375.131 263.692   4
 -11  11   5 144.931 232.391   4
 -11  11   5 201.195 120.086   2
 -11  11   8 1603.42 276.564   4
  12 -12  -9-739.201 628.695   1
   0  12  -9 284.512 228.766   4
   0  12  -9 152.626 416.521   2
   0  12  -9-465.573 472.889   3
 -12   0  -9-216.629 564.295   3
   0  12  -9 967.119 623.534   1
   0  12  -6 5955.61 617.978   4
  12 -12  -6 5717.63 806.375   1
   0  12  -6 5060.93 681.640   2
  12 -12  -6 3630.70 276.110   2
 -12   0  -6 5254.28 772.510   3
   0  12  -6 4792.88 547.615   3
   0  12  -3 56.5871 74.8772   3
   0  12  -3-46.4026 284.711   4
   0  12  -3-312.806 279.671   2
   0  12  -3-116.929 108.396   3
 -12   0  -3 32.2306 330.036   3
  12 -12  -3-735.832 442.510   1
  12 -12   0 3270.04 435.461   1
   0  12   0 2914.05 394.271   1
  12 -12   0 2797.13 344.451   3
   0  12   0 1600.11 379.164   4
   0  12   0 1444.07 324.437   2
 -12   0   0 1876.01 344.632   2
 -12   0   0 2491.53 394.817   3
 -12   0   0 2587.13 460.342   4
  12 -12   3-0.79127 185.760   1
   0  12   3-7.42802 271.348   1
 -12   0   3 219.298 186.211   2
 -12   0   3-239.977 291.360   3
   0  12   3 0.50416 312.078   4
 -12   0   3 68.4600 229.038   4
  12 -12   3-297.621 278.044   3
   0  12   3-0.85195 265.965   2
   0  12   6 15648.4 1112.73   2
   0  12   6 15625.2 1058.88   4
 -12   0   6 12522.8 621.463   4
   0  12   9-35.8798 342.397   4
  -1  12 -10 6802.68 881.519   3
  -1  12 -10 5338.20 959.434   1
  11 -12 -10 6130.02 941.647   1
  12 -11 -10 7512.82 1059.05   1
  -1  12 -10 7576.59 949.394   2
   1  11 -10 5983.32 822.320   2
   1  11 -10 6597.36 904.445   3
 -11  -1 -10 8348.83 1156.00   3
 -12   1 -10 7140.92 1022.33   3
   1  11 -10 8487.79 1257.90   1
  -1  12  -7 21499.5 1043.40   4
   1  11  -7 22145.6 997.240   4
  12 -11  -7 21209.8 1427.40   1
  -1  12  -7 22587.7 1354.89   2
   1  11  -7 21466.9 1282.52   2
   1  11  -7 20641.3 1481.99   1
  -1  12  -7 19950.8 1077.79   3
  11 -12  -7 20248.8 1360.72   1
  -1  12  -7 21847.6 1481.00   1
 -11  -1  -7 19957.3 1377.06   3
 -12   1  -7 22078.5 1439.08   3
   1  11  -7 18227.7 1061.09   3
 -12   1  -4 15650.1 993.304   3
   1  11  -4 18477.2 615.177   3
  12 -11  -4 18831.7 1163.51   1
  -1  12  -4 17544.3 996.335   4
   1  11  -4 16768.9 965.531   4
  11 -12  -4 17269.7 1105.60   1
   1  11  -4 17439.7 1034.57   2
 -11  -1  -4 19553.0 1103.71   3
  -1  12  -4 17250.3 653.757   3
  11 -12  -4 18718.0 712.011   2
  -1  12  -4 16756.1 1046.30   2
  11 -12  -1 79049.0 1502.86   3
 -12   1  -1 82023.7 1710.74   3
 -11  -1  -1 78269.8 2056.10   4
   1  11  -1 79204.6 2058.97   4
  12 -11  -1 80312.8 1900.48   1
  11 -12  -1 82184.3 1915.55   1
   1  11  -1 76321.0 868.383   3
  -1  12  -1 81164.4 1989.96   2
   1  11  -1 85165.6 1981.83   2
 -12   1  -1 77268.1 2042.60   4
  -1  12  -1 85232.8 1860.95   1
 -11  -1  -1 79303.4 1888.14   2
  12 -11  -1 80569.1 1566.82   3
  -1  12  -1 82618.5 2094.20   4
 -11  -1  -1 80273.0 1665.89   3
 -12   1  -1 78339.3 1882.33   2
   1  11   2 22954.9 1159.86   4
  -1  12   2 24004.6 1195.73   4
 -12   1   2 26731.3 1053.28   3
 -12   1   2 26803.2 834.878   2
  11 -12   2 25277.7 935.640   1
   1  11   2 25116.9 987.416   1
  -1  12   2 25891.1 1047.56   1
  12 -11   2 26130.5 985.175   3
 -11  -1   2 25516.9 1101.18   4
 -12   1   2 26569.8 1115.24   4
  12 -11   2 24402.1 872.615   1
  -1  12   2 24356.9 1052.75   2
 -11  -1   2 25823.2 887.164   2
   1  11   2 24302.7 1082.12   2
 -11  -1   2 26553.8 1005.30   3
  11 -12   2 27125.8 936.297   3
 -12   1   2 25913.7 1268.11   1
 -12   1   5 20402.4 844.212   4
 -11  -1   5 21966.7 834.454   2
  -1  12   5 22090.2 1194.46   4
   1  11   5 20871.1 1185.76   4
  11 -12   5 20963.4 1158.46   3
   1  11   5 21818.8 1150.41   1
  -1  12   5 24601.6 1229.32   2
 -11  -1   5 22046.3 866.955   4
   1  11   5 22512.0 1227.82   2
  -1  12   8 6387.23 709.835   4
   1  11   8 7600.87 799.878   4
  12 -10 -11 6636.22 1091.10   1
  -2  12 -11 6014.68 927.114   2
   2  10 -11 6350.93 972.681   3
 -10  -2 -11 2482.49 867.566   3
   2  10 -11 4455.13 767.571   2
  -2  12 -11 3254.32 908.821   1
   2  10 -11 3698.76 951.561   1
  10 -12 -11 4694.77 910.730   1
 -12   2 -11 7973.81 1133.28   3
  -2  12 -11 4195.53 796.816   3
   2  10  -8 965.276 366.601   2
 -10  -2  -8 915.204 592.008   3
  -2  12  -8 125.504 266.868   4
  -2  12  -8 1012.73 601.679   1
  -2  12  -8 333.316 428.412   2
  10 -12  -8 1247.19 522.302   1
   2  10  -8 306.299 527.349   1
  10 -12  -8 487.094 238.129   2
  -2  12  -8 415.465 417.021   3
 -12   2  -8 1219.15 655.128   3
  12 -10  -8 260.458 498.974   1
   2  10  -8 693.436 482.886   3
   2  10  -8 812.194 234.039   4
 -10  -2  -5 11657.7 970.255   3
  -2  12  -5 12474.7 959.577   2
  -2  12  -5 12447.8 832.895   4
  10 -12  -5 10530.5 548.062   2
   2  10  -5 12942.6 799.572   4
 -12   2  -5 10914.5 873.969   3
   2  10  -5 11198.0 848.071   2
  -2  12  -5 10711.4 649.386   3
  10 -12  -5 10900.9 915.287   1
  12 -10  -5 10799.3 945.630   1
  10 -12  -2 461.314 341.659   1
  -2  12  -2 503.450 357.490   4
 -10  -2  -2-6.20756 280.113   4
 -12   2  -2 215.124 265.659   2
  12 -10  -2 286.592 210.014   3
  10 -12  -2 475.980 254.646   3
   2  10  -2 183.549 108.893   3
  -2  12  -2 174.555 321.893   2
   2  10  -2 288.703 276.521   4
  10 -12  -2 204.301 236.158   2
 -10  -2  -2 620.051 326.104   2
   2  10  -2 196.243 273.103   2
 -12   2  -2-25.4505 304.044   4
  -2  12  -2 364.539 287.423   1
 -10  -2  -2 138.593 281.749   3
 -12   2  -2 231.710 320.463   3
  12 -10  -2 259.566 384.636   1
 -10  -2   1-220.412 270.813   4
   2  10   1-5.03597 206.718   1
  -2  12   1 375.782 331.707   4
  12 -10   1 144.115 220.840   1
   2  10   1 503.204 364.319   4
 -12   2   1 291.177 276.015   3
 -12   2   1-111.663 297.187   4
 -12   2   1 456.270 416.618   1
  -2  12   1 446.396 291.958   1
 -10  -2   1 46.6429 209.318   2
  -2  12   1 504.983 286.862   2
   2  10   1-10.2648 252.787   2
  10 -12   1-117.171 226.001   1
  12 -10   1 134.957 227.795   3
 -10  -2   1 204.771 245.747   3
   2  10   1 93.3908 225.548   3
 -12   2   1 3.81320 179.948   2
  10 -12   1 78.6709 192.404   3
 -12   2   4 2590.98 358.959   4
  -2  12   4 2715.80 479.480   1
   2  10   4 2539.31 398.502   1
 -10  -2   4 2182.49 316.101   2
   2  10   4 2619.24 475.722   4
  -2  12   4 2057.42 390.299   2
 -12   2   4 2260.89 214.016   2
  10 -12   4 3093.00 444.929   3
  12 -10   4 3295.08 513.040   3
 -10  -2   4 2235.87 347.600   4
  -2  12   4 2221.86 459.760   4
   2  10   4 1747.22 401.715   2
  -2  12   7 4656.94 631.341   2
   2  10   7 3663.32 663.509   2
   2  10   7 6233.50 711.978   4
  -2  12   7 4226.79 594.954   4
   2  10   7 4431.84 653.538   1
  -2  12  10 24.8659 322.169   4
   3   9  -9-747.914 604.593   1
  -3  12  -9-41.7362 517.128   1
  -3  12  -9 570.684 473.212   2
  -3  12  -9 942.413 469.447   3
   3   9  -9 1155.49 505.535   3
   9 -12  -9 624.083 498.211   1
 -12   3  -9 148.494 531.290   3
  -9  -3  -9 181.923 506.834   3
  -3  12  -9 312.360 274.892   4
   3   9  -9 101.708 348.557   2
  12  -9  -9 133.706 560.378   1
   9 -12  -6 11941.9 1010.23   1
 -12   3  -6 11369.0 995.245   3
   9 -12  -6 9970.94 575.883   2
   3   9  -6 11198.6 848.612   2
  -9  -3  -6 10352.1 961.488   3
   3   9  -6 10635.8 1018.84   1
   9 -12  -6 10438.7 731.594   4
  -3  12  -6 10953.4 797.483   4
  -3  12  -6 8528.08 861.336   2
   3   9  -6 10586.6 668.604   4
  -3  12  -6 9051.27 669.036   3
  12  -9  -6 8758.29 993.734   1
  -3  12  -3 8116.34 701.910   2
   3   9  -3 8959.34 402.547   3
 -12   3  -3 9743.14 795.818   2
  12  -9  -3 7795.17 613.358   3
   9 -12  -3 9266.70 751.685   1
   9 -12  -3 8294.70 540.457   2
   3   9  -3 7167.94 609.938   2
 -12   3  -3 8220.38 744.200   4
  -3  12  -3 9769.96 726.826   4
  -9  -3  -3 8192.88 683.362   3
   3   9  -3 9543.47 705.684   4
  -9  -3  -3 9148.78 764.001   4
  -9  -3  -3 9389.67 758.509   2
   9 -12  -3 8083.19 647.516   4
  -3  12  -3 8963.20 334.182   3
 -12   3  -3 10044.4 740.196   3
  12  -9  -3 8663.25 792.238   1
 -12   3   0 9743.34 723.630   4
   9 -12   0 11653.3 752.606   2
   9 -12   0 11579.4 506.035   3
  -3  12   0 12003.2 823.523   4
  12  -9   0 10186.8 584.458   3
  -3  12   0 11831.2 714.573   1
  -9  -3   0 11546.2 673.790   2
   3   9   0 11728.4 821.189   4
 -12   3   0 9510.47 685.295   1
   3   9   0 11008.8 715.573   2
   9 -12   0 10771.1 677.449   1
 -12   3   0 10938.0 673.843   2
  12  -9   0 10609.3 641.889   1
  -3  12   0 11174.3 741.366   2
   3   9   0 10952.3 512.395   3
  -9  -3   0 10540.5 573.382   3
 -12   3   0 10830.8 638.837   3
  -9  -3   0 11747.6 789.703   4
   3   9   3 482.373 294.382   2
 -12   3   3-59.8774 454.459   1
  -3  12   3 271.343 253.695   2
  -9  -3   3 124.270 238.575   4
 -12   3   3 297.250 219.721   4
  -3  12   3 171.672 326.094   4
   3   9   3 571.929 327.182   4
  12  -9   3-151.796 155.944   1
   9 -12   3 96.6425 217.931   3
 -12   3   3 78.5072 100.599   2
  12  -9   3 471.396 301.668   3
   3   9   3 164.440 207.955   1
  -3  12   3 535.953 349.332   1
  -9  -3   3 328.227 213.208   2
   3   9   6 7249.84 691.789   1
 -12   3   6 6273.37 402.307   4
  -3  12   6 7108.93 711.864   4
 -12   3   6 6269.73 399.046   4
   3   9   6 7365.19 763.372   4
  -3  12   6 7442.63 738.968   2
  -9  -3   6 6466.39 408.996   4
   3   9   6 7487.76 796.404   2
   3   9   9-47.0159 346.382   4
  -3  12   9-158.329 309.985   4
   8 -12 -10 1871.83 669.640   1
   4   8 -10 1879.78 531.956   2
   4   8 -10 512.392 521.165   3
 -12   4 -10 1884.70 748.340   3
  -4  12 -10 1945.82 655.883   2
  -4  12 -10 2027.04 603.070   3
  -8  -4 -10 1109.96 653.889   3
   4   8 -10 1085.50 623.169   1
   8 -12 -10 448.783 707.812   3
  -4  12 -10 1578.06 628.888   1
  12  -8 -10 1435.58 647.164   1
   8 -12  -7 19263.2 1261.18   1
   8 -12  -7 17091.2 812.259   2
   4   8  -7 19677.8 1099.18   2
   4   8  -7 20311.0 764.935   4
  12  -8  -7 17923.3 1341.19   1
  -4  12  -7 21159.6 1070.78   4
  -4  12  -7 17874.9 1296.75   2
  -8  -4  -7 19070.9 1358.93   3
  -4  12  -7 17678.4 1011.40   3
 -12   4  -7 19296.8 1284.81   3
   4   8  -7 20851.2 1492.88   1
  -8  -4  -7 16206.0 534.555   1
   8 -12  -7 17945.9 926.865   4
   4   8  -4 20455.2 754.408   3
  -4  12  -4 21223.6 1046.02   4
   8 -12  -4 21927.8 1056.53   4
   4   8  -4 20449.4 940.169   4
  -4  12  -4 19806.9 1156.54   2
 -12   4  -4 18800.5 1088.09   4
 -12   4  -4 23398.6 1131.95   3
  -8  -4  -4 19060.4 1087.61   4
   4   8  -4 22887.0 1049.66   2
  12  -8  -4 19019.6 1175.05   1
  -4  12  -4 21076.1 730.456   3
  -8  -4  -4 20920.2 1146.83   3
   8 -12  -4 20494.0 818.532   2
   8 -12  -4 21906.2 1124.57   1
   4   8  -1 75297.3 1745.68   2
  -4  12  -1 81867.5 1746.22   1
  -8  -4  -1 76659.2 1957.32   4
   8 -12  -1 77912.6 1892.14   4
   8 -12  -1 79067.5 1779.92   1
 -12   4  -1 78538.8 1546.74   1
  12  -8  -1 77894.0 1540.26   3
   4   8  -1 76978.4 1887.07   4
   4   8  -1 76805.7 1124.69   3
  -4  12  -1 76439.0 1954.69   4
  -8  -4  -1 80192.2 1804.95   2
 -12   4  -1 75834.9 1804.66   2
   8 -12  -1 78571.4 1381.05   3
  12  -8  -1 75014.0 1816.28   1
   8 -12  -1 77522.7 1768.94   2
 -12   4  -1 77107.6 1580.29   3
  -8  -4  -1 78662.2 1535.41   3
  -4  12  -1 78027.8 1908.76   2
  -4  12   2 6149.79 605.402   4
  -8  -4   2 5888.49 540.014   4
 -12   4   2 6320.75 548.927   4
  -8  -4   2 5749.65 451.473   3
 -12   4   2 6090.32 647.977   1
  -4  12   2 5407.20 487.856   2
  -8  -4   2 5183.59 467.541   2
   4   8   2 5252.61 525.380   3
   4   8   2 6079.21 467.323   1
   4   8   2 5351.68 621.346   4
   8 -12   2 5913.41 396.554   3
   4   8   2 5965.06 592.800   2
 -12   4   2 6036.38 563.858   3
  12  -8   2 4509.08 458.964   3
   8 -12   2 6061.88 501.893   1
 -12   4   2 6072.87 362.898   2
  12  -8   2 5444.17 384.623   1
  -4  12   2 5123.38 534.617   1
  -8  -4   5 36677.1 1072.20   4
   4   8   5 40803.5 1597.54   4
 -12   4   5 36744.6 1050.03   4
  -4  12   5 38462.6 1446.36   4
  -8  -4   5 38144.3 1291.51   2
   8 -12   5 37954.2 1434.01   3
   4   8   5 36782.7 1594.71   2
  -4  12   5 39094.3 1392.76   2
   4   8   5 40299.9 1304.90   1
   4   8   8 777.341 403.116   4
   4   8   8 654.518 412.423   1
  -4  12   8 564.479 302.887   4
   5   7 -11 6907.75 1126.61   1
  -5  12 -11 8020.07 1113.76   1
   7 -12 -11 9020.83 1432.19   3
  -5  12 -11 6058.09 972.044   2
   7 -12 -11 8404.82 1047.20   1
   5   7 -11 7536.73 829.592   2
   5   7 -11 8551.43 1146.02   3
  12  -7 -11 5526.93 1058.78   1
  -5  12 -11 7926.03 951.542   3
  -7  -5 -11 9176.04 1240.84   3
 -12   5 -11 8246.88 1120.51   3
  12  -7  -8-169.107 506.793   1
  -5  12  -8 253.770 438.735   1
  -7  -5  -8 191.396 185.000   1
   7 -12  -8-172.917 288.314   2
   7 -12  -8 365.646 283.468   4
  -5  12  -8 410.845 319.373   4
  -7  -5  -8 841.232 536.650   3
   5   7  -8-351.358 606.993   1
   7 -12  -8 124.961 406.868   1
 -12   5  -8 268.425 484.348   3
  -5  12  -8 612.840 487.510   2
   5   7  -8-197.926 291.904   2
  -5  12  -8 232.512 362.780   3
  -5  12  -5 35950.2 1622.93   2
   5   7  -5 34550.7 1146.63   3
   7 -12  -5 38665.1 1399.54   4
 -12   5  -5 38216.4 1506.59   3
   5   7  -5 37202.0 1157.64   4
  -5  12  -5 36275.6 1353.07   4
   7 -12  -5 36266.2 1144.34   2
   5   7  -5 34639.3 1654.56   1
   7 -12  -5 35761.1 1475.02   1
   5   7  -5 32644.2 1249.01   2
  -7  -5  -5 35732.9 1571.58   3
  12  -7  -5 37581.3 1716.71   1
  -5  12  -5 35669.7 1135.20   3
  12  -7  -2 7259.23 541.031   3
  -5  12  -2 7410.05 562.479   1
 -12   5  -2 7680.01 594.914   3
   7 -12  -2 7219.08 623.168   4
   7 -12  -2 7724.73 560.148   2
  -7  -5  -2 6507.34 638.962   4
   5   7  -2 6510.31 544.195   2
   5   7  -2 7128.39 391.665   3
 -12   5  -2 8015.51 455.694   1
   5   7  -2 6384.34 587.482   4
  -7  -5  -2 6975.71 603.060   2
   7 -12  -2 7137.15 605.289   1
  12  -7  -2 6525.92 683.495   1
  -5  12  -2 7828.39 650.979   4
  -5  12  -2 6976.03 251.103   3
  -5  12  -2 6848.43 673.377   2
  -7  -5  -2 6409.20 551.160   3
 -12   5   1 17550.2 698.994   2
   7 -12   1 19259.2 541.234   3
 -12   5   1 18431.2 822.565   3
  12  -7   1 17284.1 696.940   1
   5   7   1 18614.8 741.631   1
  -5  12   1 18635.6 861.858   2
   7 -12   1 18305.6 967.052   2
  12  -7   1 17932.2 802.952   3
   7 -12   1 17409.2 910.912   4
  -7  -5   1 17016.4 888.724   4
   5   7   1 15781.1 916.268   4
   7 -12   1 16621.1 792.197   1
  -5  12   1 18933.7 905.394   1
 -12   5   1 17986.8 961.125   1
  -7  -5   1 16985.2 806.717   2
  -7  -5   1 17095.0 651.147   3
  -5  12   1 19018.4 996.123   4
   5   7   1 17078.7 765.764   3
   5   7   1 17517.6 880.742   2
  -7  -5   4 5394.87 481.880   4
  -7  -5   4 5664.24 574.489   2
  -5  12   4 4748.66 482.933   2
   5   7   4 5662.08 629.480   4
   5   7   4 5420.47 449.513   1
  -5  12   4 4906.23 607.975   1
  -5  12   4 4964.94 602.673   4
   7 -12   4 4957.18 508.348   3
  -5  12   7 18239.3 1079.04   2
  -7  -5   7 14761.6 473.912   4
  -5  12   7 18669.0 1026.93   4
   5   7   7 18213.2 999.510   1
   5   7   7 18514.5 1137.10   4
  -6  12  -9 1215.85 614.688   2
  12  -6  -9 2234.07 733.551   1
  -6  12  -9 1351.29 386.800   4
   6 -12  -9 1851.86 595.265   1
  -6  12  -9 772.688 447.811   3
  -6  12  -9 1787.27 605.831   1
   6   6  -9 1786.24 477.606   2
  -6  -6  -9 1195.25 282.862   1
   6   6  -9 650.124 620.783   1
  -6  -6  -9 2167.25 682.701   3
 -12   6  -9 1092.52 527.840   3
   6 -12  -9 2296.43 806.561   3
  -6  12  -6 12455.2 1039.35   2
   6 -12  -6 14181.8 1012.96   1
  -6  12  -6 13407.6 872.586   4
   6   6  -6 14014.0 634.182   4
   6   6  -6 12239.3 1108.86   1
   6   6  -6 13311.3 825.214   2
   6 -12  -6 14891.6 923.469   4
   6 -12  -6 14129.8 785.379   2
 -12   6  -6 15230.2 1056.92   3
  -6  -6  -6 14743.7 631.206   1
  -6  12  -6 15086.0 864.805   3
  -6  -6  -6 13692.0 1111.76   3
  12  -6  -6 13009.1 1100.85   1
  12  -6  -3 5831.90 526.742   3
  12  -6  -3 5656.26 646.139   1
   6   6  -3 6062.06 403.614   3
  -6  -6  -3 5787.75 621.283   4
  -6  12  -3 5334.82 331.657   3
   6 -12  -3 5601.31 563.707   1
   6 -12  -3 5359.00 588.403   4
  -6  12  -3 5632.37 564.500   4
   6 -12  -3 5568.97 486.038   2
   6   6  -3 5969.94 533.090   4
  -6  -6  -3 5987.31 592.307   2
  -6  -6  -3 4768.31 574.310   3
   6   6  -3 5258.73 478.047   2
  -6  12  -3 6332.58 533.072   1
 -12   6  -3 5239.39 317.896   1
  -6  12  -3 5147.10 624.009   2
 -12   6  -3 5026.10 546.312   3
   6 -12   0 34350.9 688.028   3
  -6  -6   0 32979.7 1251.94   4
   6 -12   0 33221.2 1258.68   4
  -6  -6   0 31993.2 844.983   3
  12  -6   0 34238.3 1041.69   3
   6 -12   0 35119.5 1132.61   1
  -6  -6   0 36840.4 1190.20   2
   6 -12   0 36306.4 1297.68   2
 -12   6   0 33553.5 1179.79   1
  -6  12   0 34524.1 1170.78   1
  -6  12   0 34109.9 1185.97   2
   6   6   0 32468.1 1136.58   2
   6   6   0 31867.6 899.378   3
  12  -6   0 33915.3 1114.59   1
 -12   6   0 33642.9 1043.25   3
   6   6   0 31586.7 1254.58   4
   6   6   3 6027.38 639.765   2
  -6  -6   3 4823.14 497.420   2
   6 -12   3 5128.83 566.916   4
  -6  12   3 5134.56 457.113   2
   6 -12   3 6231.53 425.265   3
  12  -6   3 4206.49 254.953   1
  -6  -6   3 4340.73 452.894   4
   6   6   3 5527.18 615.625   4
  -6  12   3 6038.98 652.551   1
   6   6   3 5654.67 621.946   3
   6   6   3 5717.43 401.492   1
  12  -6   3 5842.15 610.179   3
  -6  12   3 5350.90 573.635   4
 -12   6   3 5757.67 674.719   1
  -6  12   6 13491.2 846.868   2
  -6  12   6 15330.8 890.346   4
   6   6   6 13656.5 966.416   4
  -6  -6   6 13072.7 619.353   4
 -12   6   6 14171.3 599.166   4
 -12   6   6 12440.6 558.340   4
   6   6   6 13607.5 747.306   1
  -6  12   9 1127.78 332.918   4
   5 -12 -10 389.349 496.761   1
  -7  12 -10 939.851 502.079   3
  -7  12 -10-39.0499 535.211   2
   7   5 -10 380.711 365.167   2
  12  -5 -10-63.5892 619.066   1
  -5  -7 -10 1211.45 659.314   3
 -12   7 -10 1181.25 578.531   3
   5 -12 -10 600.701 778.192   3
   7   5 -10 743.287 658.904   1
  -7  12 -10 1021.65 630.670   1
  -5  -7 -10 300.747 275.347   1
   5 -12  -7 16535.9 946.495   2
  -5  -7  -7 18795.8 794.659   1
   7   5  -7 20772.2 1492.00   1
  -5  -7  -7 18198.5 1328.28   3
 -12   7  -7 19882.2 1245.17   3
  -7  12  -7 17038.9 979.367   4
  12  -5  -7 17581.2 1356.67   1
  -7  12  -7 19380.9 1083.22   3
   7   5  -7 18545.4 955.322   2
  -7  12  -7 18091.8 1319.20   2
   5 -12  -7 18691.3 1155.86   1
   5 -12  -7 20336.4 1109.05   4
 -12   7  -4 5556.64 311.497   1
   7   5  -4 4908.26 694.841   1
  -7  12  -4 6173.54 620.576   4
   5 -12  -4 5830.38 605.482   4
   5 -12  -4 5635.57 509.766   2
  -5  -7  -4 4832.50 395.474   1
  -7  12  -4 4185.85 465.874   1
   7   5  -4 5030.54 478.836   4
   7   5  -4 5639.35 483.757   2
  -7  12  -4 5242.45 431.456   3
   5 -12  -4 5401.35 575.476   1
   7   5  -4 5271.10 463.540   3
  -5  -7  -4 5363.77 656.131   3
  12  -5  -4 5029.97 711.608   1
  -7  12  -4 4719.43 619.843   2
  -5  -7  -4 4812.79 588.204   4
 -12   7  -4 5318.66 592.682   3
  -5  -7  -1 16593.9 829.966   2
  -7  12  -1 15797.7 503.650   3
 -12   7  -1 15218.4 744.936   1
  -7  12  -1 14831.9 759.750   1
  -5  -7  -1 13698.5 646.238   3
   5 -12  -1 16012.9 822.132   2
  -7  12  -1 15546.9 892.429   4
   5 -12  -1 16426.5 921.778   4
   7   5  -1 14758.9 744.355   2
  -5  -7  -1 14643.5 869.974   4
   5 -12  -1 15771.9 820.213   1
   7   5  -1 14293.4 605.313   3
  -7  12  -1 16646.6 920.699   2
  12  -5  -1 14981.3 851.916   1
  12  -5  -1 15083.9 706.420   3
   7   5  -1 16278.4 874.915   4
 -12   7  -1 14694.1 702.084   3
   7   5   2 6191.95 657.433   4
   7   5   2 6026.30 611.123   2
   5 -12   2 5259.31 587.588   2
   7   5   2 4730.80 512.327   3
  -5  -7   2 5972.17 547.416   4
 -12   7   2 5669.98 651.994   1
  -5  -7   2 5869.06 527.290   2
 -12   7   2 4984.10 504.324   3
   5 -12   2 6458.84 598.905   4
  12  -5   2 5979.50 340.886   1
  -7  12   2 5643.59 574.391   4
   5 -12   2 5878.44 297.361   3
  -7  12   2 5747.38 469.123   2
  12  -5   2 6343.41 564.646   3
  -5  -7   2 5706.31 374.551   3
  -7  12   2 5817.35 589.979   1
   7   5   2 5570.76 380.745   1
   7   5   5 36296.2 1636.58   2
  -7  12   5 37242.0 1214.24   2
  -5  -7   5 35517.5 1401.20   2
  -5  -7   5 35866.3 1113.75   4
  -7  12   5 36114.8 1322.67   4
   7   5   5 40762.3 1048.89   1
 -12   7   5 36940.6 1077.02   4
   7   5   5 37191.3 1528.71   4
  -7  12   8 340.748 275.594   4
   7   5   8 399.679 293.623   1
   4 -12 -11 8362.21 989.171   1
   4 -12 -11 9281.58 1420.30   3
  -8  12 -11 9126.97 1184.21   2
  12  -4 -11 8079.62 1188.63   1
 -12   8 -11 10085.7 1192.10   3
  -8  12 -11 9567.15 1071.38   3
  -4  -8 -11 7031.22 1176.41   3
  -8  12 -11 8979.15 1073.92   1
   8   4 -11 7434.73 1178.55   1
   4 -12  -8 551.604 368.432   4
  -8  12  -8 654.054 428.075   1
   8   4  -8 313.989 502.362   1
   4 -12  -8 377.429 427.677   1
   8   4  -8 740.053 318.663   2
  -4  -8  -8 76.3384 520.445   3
 -12   8  -8 778.518 262.012   1
  -8  12  -8 1573.76 566.275   2
 -12   8  -8 516.426 182.029   1
  12  -4  -8 649.963 571.191   1
  -8  12  -8 500.911 426.793   3
 -12   8  -8 711.075 529.898   3
  -4  -8  -8 648.359 298.069   1
  -8  12  -8 595.012 358.847   4
   4 -12  -8 1107.51 720.893   3
   4 -12  -5 40171.0 1503.48   4
  -8  12  -5 30820.8 1268.68   4
 -12   8  -5 33621.8 776.515   1
 -12   8  -5 35946.1 1406.47   3
   8   4  -5 33357.2 1209.86   3
   4 -12  -5 36967.3 1293.19   2
   8   4  -5 35007.9 1010.02   4
  -8  12  -5 36737.2 1226.94   1
   4 -12  -5 35557.2 1399.71   1
  -8  12  -5 36436.7 1669.24   2
  -4  -8  -5 34799.8 1574.07   3
  -4  -8  -5 36596.8 1088.39   1
   8   4  -5 35319.3 1096.73   2
  -4  -8  -5 36041.7 1516.67   4
   8   4  -5 35570.6 1763.26   1
  -8  12  -5 37035.0 1216.35   3
  12  -4  -5 34416.5 1712.71   1
   8   4  -2 4538.66 426.723   2
  -8  12  -2 4530.54 306.152   3
 -12   8  -2 5287.97 484.911   3
   4 -12  -2 4322.19 530.788   4
   4 -12  -2 6397.38 563.104   2
  -8  12  -2 5068.49 631.026   2
  -4  -8  -2 4941.79 587.529   4
  -8  12  -2 5057.67 565.077   4
   4 -12  -2 4803.73 489.106   1
  -4  -8  -2 4061.42 478.285   2
  12  -4  -2 4069.34 574.991   1
   8   4  -2 4378.00 378.401   3
  -4  -8  -2 4732.31 476.609   3
  12  -4  -2 5317.70 462.914   3
   8   4  -2 5488.93 543.725   4
 -12   8  -2 5109.00 435.791   1
   8   4  -2 4482.41 550.640   1
  -8  12  -2 5064.41 472.268   1
  -4  -8   1 79287.2 1092.62   3
   4 -12   1 82157.5 1976.87   4
  -8  12   1 80524.2 1964.13   4
 -12   8   1 83195.1 1733.54   3
   4 -12   1 80400.7 1999.00   2
  -4  -8   1 82518.5 1931.51   4
  12  -4   1 81998.1 1724.14   3
   8   4   1 81177.2 2067.58   4
  -8  12   1 78461.7 1664.64   2
  -4  -8   1 79552.7 1810.32   2
   8   4   1 75191.5 1837.28   2
 -12   8   1 81498.3 1986.87   1
  -8  12   1 83059.4 1899.27   1
   8   4   1 73344.0 1588.71   3
  12  -4   1 81346.4 1506.07   1
 -12   8   4 16886.5 801.648   4
   4 -12   4 19799.5 1002.45   4
  -4  -8   4 18952.9 904.301   4
   8   4   4 19535.8 621.166   1
  -8  12   4 20195.6 993.295   4
  -4  -8   4 19499.0 1034.16   2
   8   4   4 18479.9 1092.85   4
  -8  12   4 19968.9 787.735   2
   8   4   4 18826.7 1132.39   2
 -12   8   7 16466.9 614.358   4
   8   4   7 16937.0 689.181   1
   9   3  -9-606.764 590.556   1
 -12   9  -9-414.097 502.550   3
  -9  12  -9 799.780 389.002   4
  -3  -9  -9 1302.77 772.791   3
  -9  12  -9 286.547 529.858   2
  -3  -9  -9-131.142 306.031   1
   9   3  -9 218.504 259.359   2
  -9  12  -9 170.760 403.475   1
   3 -12  -9 303.821 636.860   3
 -12   9  -9 545.651 341.872   1
  12  -3  -9 814.237 639.646   1
  -9  12  -9-385.112 400.028   3
   3 -12  -9 651.484 455.712   1
  12  -3  -6 7240.84 873.001   1
  -9  12  -6 6700.63 556.217   1
  -3  -9  -6 7316.42 566.102   1
   3 -12  -6 6916.48 872.789   3
   9   3  -6 6746.09 492.187   2
  -9  12  -6 7487.34 697.873   4
 -12   9  -6 7542.14 431.471   1
   3 -12  -6 5931.18 643.737   1
  -9  12  -6 7618.02 894.575   2
 -12   9  -6 7113.96 741.174   3
  -3  -9  -6 6880.62 839.885   3
   9   3  -6 6701.79 876.363   1
   3 -12  -6 6621.55 707.070   4
  -9  12  -6 7061.70 650.989   3
  -9  12  -3 176.173 300.646   4
   9   3  -3 333.226 222.806   3
   9   3  -3 227.705 173.563   2
  12  -3  -3 97.2860 229.486   3
  -3  -9  -3 295.439 219.305   1
 -12   9  -3 392.151 290.894   3
   3 -12  -3 538.209 287.781   1
  -3  -9  -3 377.769 334.311   3
  -3  -9  -3 162.587 261.481   2
 -12   9  -3 135.625 193.061   1
  -9  12  -3 214.605 254.178   1
  -3  -9  -3-320.762 303.019   4
   3 -12  -3 650.219 279.703   2
   3 -12  -3 130.213 294.359   4
  -9  12  -3-55.4634 355.609   2
  12  -3  -3 264.280 421.544   1
   9   3  -3 13.9324 217.387   4
   9   3  -3 248.876 408.403   1
  -9  12  -3 152.165 207.771   3
  -9  12   0 11173.9 716.336   2
   3 -12   0 10405.5 671.464   1
  -3  -9   0 10922.4 779.365   4
   3 -12   0 10809.7 757.862   4
  -9  12   0 10962.9 783.229   4
 -12   9   0 11325.8 632.848   3
   9   3   0 9749.23 665.484   2
   9   3   0 9296.14 738.281   4
  -9  12   0 11338.0 742.638   1
  -3  -9   0 12229.3 458.470   3
  12  -3   0 11417.1 693.949   1
 -12   9   0 11104.0 720.811   1
   3 -12   0 12006.4 428.054   3
  -3  -9   0 11084.5 725.492   2
  -9  12   0 10648.8 531.493   3
   9   3   0 9755.46 573.641   3
  12  -3   0 10155.3 612.171   3
   3 -12   0 12350.3 762.638   2
   9   3   3 5791.63 641.330   2
 -12   9   3 7648.51 598.070   4
  12  -3   3 7274.62 674.812   3
   3 -12   3 7866.15 745.247   2
   9   3   3 7349.85 692.497   4
 -12   9   3 8252.96 834.611   1
   9   3   3 8516.64 381.545   1
   3 -12   3 8300.25 679.495   4
  -9  12   3 8728.01 793.374   1
 -12   9   3 6710.60 292.414   2
  -3  -9   3 7367.63 659.875   2
   9   3   3 6895.50 683.102   3
  -9  12   3 8470.44 504.683   2
  -9  12   3 8123.68 667.204   4
  -3  -9   3 8507.21 637.410   4
  -9  12   6 11374.2 655.199   2
  -3  -9   6 11187.6 663.392   4
 -12   9   6 11174.3 624.746   4
  -9  12   6 12706.3 790.980   4
  -9  12   9 192.032 204.164   4
 -10  12 -10 376.537 344.314   4
 -12  10 -10-36.7620 333.952   4
  -2 -10 -10 878.601 746.659   3
  -2 -10 -10 361.729 359.965   1
   2 -12 -10-119.541 416.834   1
   2 -12 -10-42.2490 693.739   3
  10   2 -10 447.724 667.975   1
 -10  12 -10 802.370 515.636   1
  12  -2 -10 622.282 583.681   1
 -10  12 -10 50.9486 533.320   2
 -10  12 -10-258.126 487.756   3
 -12  10 -10-166.254 498.311   3
  -2 -10  -7 4998.12 824.291   3
 -10  12  -7 4654.14 607.977   4
  -2 -10  -7 4045.79 508.568   1
 -12  10  -7 4345.80 512.987   1
 -10  12  -7 4578.45 823.805   2
 -10  12  -7 3593.65 575.484   3
 -10  12  -7 4081.67 464.596   1
  10   2  -7 5687.42 909.134   1
 -12  10  -7 3506.60 370.634   1
  12  -2  -7 3836.66 744.620   1
   2 -12  -7 4701.86 812.932   3
   2 -12  -7 4539.81 611.207   1
  10   2  -7 4363.94 401.510   2
 -12  10  -7 4068.08 658.896   3
   2 -12  -4 2389.01 480.574   3
  10   2  -4 2430.92 394.405   3
   2 -12  -4 3045.85 438.119   1
  -2 -10  -4 2931.13 385.299   1
  12  -2  -4 2891.50 224.411   2
  10   2  -4 2751.59 353.982   4
  12  -2  -4 1922.66 531.600   1
 -10  12  -4 2807.06 367.564   1
  10   2  -4 3031.87 667.973   1
  -2 -10  -4 2289.96 502.188   3
 -10  12  -4 2479.45 442.243   4
   2 -12  -4 3313.55 451.837   2
 -12  10  -4 3397.41 364.558   1
  -2 -10  -4 2961.81 513.529   4
  10   2  -4 3201.11 329.163   2
 -10  12  -4 2623.67 366.263   3
 -10  12  -4 2105.94 527.305   2
   2 -12  -4 2518.34 472.809   4
 -12  10  -4 2544.94 396.584   3
   2 -12  -1 354.593 261.825   1
 -10  12  -1 363.030 187.153   3
 -10  12  -1-336.265 279.020   1
  10   2  -1 179.842 230.845   3
  12  -2  -1 120.948 225.241   2
 -10  12  -1 274.091 304.471   4
 -10  12  -1 153.639 300.419   2
  -2 -10  -1-87.2191 315.325   4
   2 -12  -1 629.400 342.404   4
   2 -12  -1 303.167 281.967   2
  12  -2  -1 315.291 214.801   3
  10   2  -1 162.580 298.475   4
  -2 -10  -1 6.86861 233.935   2
  10   2  -1 476.967 388.548   1
  12  -2  -1 37.0085 315.349   1
   2 -12  -1 559.461 241.885   3
  -2 -10  -1-117.423 206.441   3
  10   2  -1 295.708 241.688   2
 -12  10  -1 539.450 258.510   3
 -12  10  -1 350.090 283.059   1
 -12  10   2-44.2390 387.809   1
  -2 -10   2-255.177 290.045   2
 -10  12   2 146.035 265.269   4
 -10  12   2 649.355 404.340   1
  10   2   2 370.279 308.145   2
 -10  12   2 320.449 221.417   2
   2 -12   2 315.934 262.165   4
   2 -12   2 480.711 324.838   2
 -12  10   2 511.536 199.915   2
  10   2   2 475.059 366.123   4
  12  -2   2 150.404 280.075   3
  10   2   2-130.116 278.258   3
 -12  10   2 655.474 304.115   4
  -2 -10   2 415.153 266.544   4
  12  -2   2 415.198 204.695   1
  -2 -10   5 11390.8 726.703   4
 -10  12   5 9245.33 685.270   4
   2 -12   5 10864.6 744.988   4
 -12  10   5 9413.87 638.677   4
 -10  12   5 10407.0 549.948   2
 -12  10   8 648.938 174.200   4
 -10  12   8 756.533 283.042   4
  11   1 -11 10972.1 1466.61   1
   1 -12 -11 19190.0 1872.26   3
 -11  12 -11 15483.3 1322.30   3
  -1 -11 -11 12986.3 1581.62   3
   1 -12 -11 12662.1 1099.46   1
 -11  12 -11 12037.2 1466.19   2
 -12  11 -11 16562.0 1423.60   3
  12  -1 -11 12856.6 1505.39   1
 -12  11 -11 12815.7 1596.82   2
 -12  11  -8 9338.14 938.354   3
 -11  12  -8 9026.64 892.096   3
  11   1  -8 6606.67 978.106   1
 -12  11  -8 8288.26 830.243   4
  -1 -11  -8 7173.13 990.751   3
 -11  12  -8 7024.59 590.957   1
  -1 -11  -8 7767.62 715.211   1
 -11  12  -8 7550.08 785.980   1
  12  -1  -8 7845.34 1051.52   1
 -12  11  -8 6027.79 512.471   1
  11   1  -8 7988.21 486.772   2
 -12  11  -8 6449.52 670.547   1
  12  -1  -8 5420.41 287.046   2
  12  -1  -8 6281.44 340.666   2
   1 -12  -8 7906.90 1059.26   3
   1 -12  -8 6096.62 704.804   1
 -11  12  -8 8368.72 783.351   4
   1 -12  -5 20967.3 1037.24   1
 -11  12  -5 22730.2 1030.61   3
 -11  12  -5 19752.6 1101.79   4
  12  -1  -5 19913.3 1365.94   1
  -1 -11  -5 20316.6 1248.58   3
  -1 -11  -5 21349.1 978.194   1
 -11  12  -5 21472.4 911.540   1
  11   1  -5 20375.6 1365.02   1
   1 -12  -5 20068.6 1243.99   3
  11   1  -5 20538.5 699.712   2
  12  -1  -5 20768.2 582.387   2
 -12  11  -5 22059.7 1067.07   3
 -12  11  -5 21166.1 822.616   1
 -11  12  -2 26468.5 1029.35   1
 -11  12  -2 27478.5 1307.07   2
   1 -12  -2 26809.9 1062.39   1
 -12  11  -2 25841.5 972.509   1
  -1 -11  -2 23967.5 1187.46   4
  11   1  -2 21252.2 1185.37   1
  -1 -11  -2 24030.9 979.282   3
  12  -1  -2 21840.3 884.359   3
  -1 -11  -2 26060.9 1122.16   2
   1 -12  -2 27877.9 1054.25   3
  11   1  -2 23319.9 1034.52   4
 -11  12  -2 23573.8 1137.02   4
  12  -1  -2 24017.4 1221.08   1
 -11  12  -2 25111.6 830.381   3
  11   1  -2 24564.3 888.064   2
  -1 -11  -2 25237.0 1011.39   1
 -12  11  -2 25592.3 882.755   3
   1 -12  -2 24853.2 1104.10   2
   1 -12  -2 24401.8 1178.99   4
  12  -1  -2 24766.6 846.989   2
  11   1  -2 24106.9 891.226   3
  11   1   1 81494.3 1980.66   2
  -1 -11   1 81834.8 748.140   3
 -11  12   1 85846.7 2107.40   1
 -12  11   1 85628.3 1769.10   3
 -12  11   1 86813.7 1770.70   2
  11   1   1 85845.8 2166.43   4
 -11  12   1 82334.4 2042.17   4
   1 -12   1 84257.1 2061.73   4
 -11  12   1 83773.5 1704.54   3
  11   1   1 80507.2 1777.95   3
  -1 -11   1 86081.8 2045.60   2
  12  -1   1 79384.9 1667.17   1
 -12  11   1 83103.6 2084.89   1
 -11  12   1 83630.9 1742.85   2
   1 -12   1 87300.9 2088.36   2
 -12  11   1 82321.0 2007.11   4
  -1 -11   1 82354.4 2032.32   4
  12  -1   1 81143.6 1795.82   3
  12  -1   1 80071.1 1973.20   2
  11   1   1 77945.0 1769.10   1
 -12  11   4 17082.1 910.533   4
  -1 -11   4 15384.2 896.725   4
   1 -12   4 17446.3 948.790   4
 -11  12   4 17047.8 617.337   2
 -11  12   4 14511.4 858.896   4
 -12  11   4 15930.0 503.634   2
 -11  12   7 21225.2 955.641   4
 -12  11   7 19160.4 841.710   4
   0 -12  -9-634.610 589.839   3
  12   0  -9-297.049 657.114   1
 -12  12  -9 863.547 478.541   1
 -12  12  -9-153.771 500.520   3
   0 -12  -9 172.013 362.688   1
 -12  12  -9 22.5123 380.237   4
  12   0  -6 12569.3 1131.97   1
   0 -12  -6 12971.1 859.426   1
 -12  12  -6 12682.8 703.021   1
  12   0  -6 12755.1 509.140   2
   0 -12  -6 14757.0 1205.33   3
 -12  12  -6 14167.8 935.008   3
 -12  12  -6 12361.2 947.294   4
 -12  12  -3 372.729 347.640   4
   0 -12  -3 292.458 315.125   3
   0 -12  -3 64.4290 290.937   4
  12   0  -3-84.9851 171.063   2
   0 -12  -3-99.3489 231.582   1
 -12  12  -3 54.5286 216.695   3
  12   0  -3 38.3528 385.427   1
   0 -12  -3 191.190 264.516   2
 -12  12  -3 497.364 269.615   1
  12   0  -3 40.4736 226.730   3
  12   0   0 3402.52 447.630   1
   0 -12   0 3152.44 229.140   3
  12   0   0 2531.46 382.226   2
 -12  12   0 3118.54 477.973   1
  12   0   0 2969.38 400.690   3
 -12  12   0 3528.77 391.277   3
   0 -12   0 3152.23 494.701   4
 -12  12   0 3489.94 534.686   4
 -12  12   0 3518.64 476.397   2
   0 -12   0 3968.01 530.286   2
   0 -12   3 210.855 356.764   2
 -12  12   3 266.143 295.207   4
   0 -12   3 159.463 290.703   4
 -12  12   3 58.0905 137.248   2
  12   0   3-215.300 140.653   1
 -12  12   6 6452.69 575.847   4
   0 -12   6 5398.21 569.081   4
 -12  12   9 176.600 159.074   4
   0  13 -10 36219.7 1804.22   3
  13 -13 -10 32077.9 1987.56   1
   0  13 -10 32623.4 1829.94   2
   0  13 -10 29086.4 2138.98   1
 -13   0 -10 35644.1 2137.57   3
  13 -13  -7-351.000 473.034   1
  13 -13  -7 179.096 85.7212   2
   0  13  -7-525.899 353.695   4
 -13   0  -7 803.590 557.545   3
   0  13  -7 508.807 315.804   3
   0  13  -7 242.347 363.242   2
   0  13  -4 58402.0 942.334   3
  13 -13  -4 56356.8 1990.59   1
   0  13  -4 57504.1 1934.16   2
 -13   0  -4 52326.5 1770.88   3
   0  13  -4 57246.3 1843.14   4
   0  13  -4 52123.9 1040.93   3
 -13   0  -1 388.009 325.667   4
  13 -13  -1 180.235 219.526   3
  13 -13  -1-73.7605 302.169   1
   0  13  -1 67.5936 303.905   2
   0  13  -1 37.2034 235.585   1
   0  13  -1 203.965 375.000   4
 -13   0  -1 284.743 261.225   3
 -13   0  -1-194.809 258.394   2
 -13   0   2 110176. 2174.44   3
 -13   0   2 103337. 2327.66   4
   0  13   2 103583. 2538.49   4
  13 -13   2 106818. 1952.19   1
 -13   0   2 105741. 1857.69   2
   0  13   2 105599. 2338.39   2
  13 -13   2 106239. 2001.66   3
   0  13   2 107094. 2204.19   1
   0  13   5-236.640 333.674   4
 -13   0   5 87.1338 224.582   4
 -13   0   5-167.896 169.058   2
   0  13   8 39567.4 1762.87   4
  -1  13 -11 1006.11 562.542   3
  13 -12 -11-372.579 592.932   1
  -1  13 -11 223.546 432.899   2
   1  12 -11-36.6524 401.112   2
 -12  -1 -11 21.5544 624.048   3
   1  12 -11 1239.85 639.027   3
   1  12 -11 691.590 782.747   1
  12 -13 -11-824.976 743.452   1
 -13   1 -11 299.828 747.326   3
  -1  13 -11 690.487 718.283   1
  12 -13  -8 258.244 474.026   1
   1  12  -8 464.908 383.616   3
  -1  13  -8 888.258 337.647   4
  -1  13  -8 1200.95 570.175   1
  -1  13  -8 204.619 340.642   3
   1  12  -8 1649.63 553.228   1
  -1  13  -8 804.248 444.564   2
   1  12  -8 535.338 415.463   2
  13 -12  -8 976.762 579.957   1
   1  12  -8 347.565 272.737   4
 -12  -1  -8 534.515 511.312   3
 -13   1  -8 1192.51 584.982   3
  -1  13  -5 2427.81 357.120   3
   1  12  -5 2081.24 307.360   3
 -12  -1  -5 1709.97 480.948   3
  13 -12  -5 1959.90 526.555   1
   1  12  -5 1334.63 362.767   4
  -1  13  -5 1923.21 471.868   2
  -1  13  -5 2302.04 470.187   4
  12 -13  -5 2337.32 286.445   2
 -13   1  -5 1228.98 475.762   3
  12 -13  -5 2806.16 559.113   1
   1  12  -5 1912.75 474.655   2
  -1  13  -2 627.426 399.981   4
  12 -13  -2 337.461 389.203   1
 -13   1  -2 432.743 275.380   2
  13 -12  -2 499.300 245.799   3
  12 -13  -2 880.153 294.410   3
   1  12  -2 318.468 314.272   4
  -1  13  -2 1061.88 414.342   2
  13 -12  -2 244.838 332.657   1
 -12  -1  -2 985.423 332.092   2
 -12  -1  -2 382.599 317.466   3
   1  12  -2 791.595 345.607   2
 -13   1  -2 809.551 330.750   3
 -12  -1   1 10612.3 667.343   3
 -13   1   1 10013.2 666.482   3
   1  12   1 10632.6 835.497   4
  12 -13   1 12504.0 709.947   1
 -13   1   1 10629.9 633.641   2
 -12  -1   1 13000.2 857.316   4
  13 -12   1 10475.7 661.275   1
   1  12   1 11686.7 819.192   2
 -12  -1   1 12234.5 691.825   2
  12 -13   1 9827.05 569.748   3
  -1  13   1 11934.7 733.965   1
  13 -12   1 10902.4 634.782   3
  -1  13   1 12138.6 814.613   2
  -1  13   1 11953.6 923.373   4
 -13   1   1 12105.5 823.728   4
   1  12   1 11742.6 750.583   1
  -1  13   4 3287.52 524.985   4
   1  12   4 3211.96 534.170   2
   1  12   4 3618.30 578.578   4
   1  12   4 2963.66 464.308   1
 -13   1   4 2759.94 279.106   2
 -13   1   4 2915.04 432.334   4
 -12  -1   4 2949.75 425.889   4
 -12  -1   4 2690.65 328.025   2
  13 -12   4 2989.78 478.887   3
  12 -13   4 3247.62 494.929   3
  -1  13   4 3131.49 471.163   2
  -1  13   4 3488.55 524.568   1
  -1  13   7 2744.84 581.831   2
   1  12   7 1888.18 564.891   2
  -1  13   7 2468.38 542.464   4
 -12  -1   7 1461.42 210.707   4
 -13   1   7 1590.70 208.577   4
   1  12   7 1523.33 456.671   4
   1  12  10 829.411 432.671   4
  -1  13  10 1008.22 463.331   4
  13 -11  -9 5653.33 927.354   1
  -2  13  -9 6666.80 606.768   4
  11 -13  -9 5654.02 868.657   1
  -2  13  -9 5566.57 830.355   2
 -11  -2  -9 4050.85 823.344   3
   2  11  -9 7160.46 1090.64   1
  -2  13  -9 6284.48 1033.62   1
   2  11  -9 4982.41 757.085   3
   2  11  -9 6567.47 802.834   2
 -13   2  -9 6424.16 991.885   3
  -2  13  -9 5208.35 710.934   3
  13 -11  -6 10521.6 1036.08   1
  11 -13  -6 12346.0 1051.22   1
  -2  13  -6 11812.3 862.408   4
   2  11  -6 12541.5 805.652   4
  -2  13  -6 12059.2 752.865   3
  -2  13  -6 13227.6 1046.51   2
 -11  -2  -6 11599.3 1048.22   3
   2  11  -6 12327.2 952.413   2
 -13   2  -6 11978.1 1052.17   3
  11 -13  -6 11003.2 563.647   2
  -2  13  -3 4117.08 564.518   2
  13 -11  -3 3955.15 615.493   1
  11 -13  -3 3984.38 491.916   3
  11 -13  -3 3938.24 408.462   2
  11 -13  -3 4622.88 606.125   1
   2  11  -3 5263.69 573.020   2
   2  11  -3 4269.05 539.551   4
 -11  -2  -3 4309.63 552.266   3
 -13   2  -3 3378.03 507.667   3
  -2  13  -3 5289.63 611.587   4
   2  11  -3 4526.07 256.053   3
  13 -11   0-238.575 208.476   3
   2  11   0-100.547 186.383   3
 -11  -2   0-94.1020 250.630   3
 -13   2   0-102.534 251.896   2
  11 -13   0 172.136 177.116   3
  13 -11   0-143.418 304.421   1
  -2  13   0 218.478 273.422   1
  -2  13   0 118.008 298.067   2
   2  11   0 264.947 248.092   1
  -2  13   0-191.613 324.656   4
 -13   2   0-24.8479 282.799   4
   2  11   0 292.913 303.329   2
   2  11   0 38.1941 311.446   4
 -13   2   0 30.8161 264.187   1
  11 -13   0-259.877 310.590   1
 -13   2   0 86.1509 302.036   3
 -11  -2   0-104.261 261.999   4
 -11  -2   0 150.210 258.101   2
  -2  13   3 1280.19 369.040   1
 -13   2   3 1393.96 369.988   3
   2  11   3 888.212 362.039   4
 -11  -2   3 1640.78 298.303   2
  13 -11   3 777.831 217.848   1
   2  11   3 889.480 293.149   1
 -11  -2   3 1257.42 321.187   4
 -11  -2   3 693.856 322.478   3
  13 -11   3 1439.49 370.949   3
  -2  13   3 1784.06 430.855   4
 -13   2   3 1202.55 205.147   2
  -2  13   3 1337.49 371.096   2
 -13   2   3 1054.62 315.524   4
  11 -13   3 852.276 293.980   3
   2  11   3 1537.10 404.897   2
   2  11   6 6118.73 769.859   2
   2  11   6 5214.85 683.303   4
  -2  13   6 5889.43 683.598   4
 -13   2   6 4759.58 402.126   4
   2  11   6 4292.38 619.139   1
 -11  -2   6 5381.06 439.776   4
  -2  13   6 4638.81 629.053   2
   2  11   9 2422.90 534.279   4
  -2  13   9 2239.32 485.868   4
  13 -10 -10 11955.7 1354.37   1
  -3  13 -10 17006.3 1249.62   3
   3  10 -10 14303.9 1269.55   3
   3  10 -10 10096.6 1260.79   1
  -3  13 -10 13811.7 1444.99   1
  -3  13 -10 12090.6 1217.62   2
 -13   3 -10 13770.9 1340.88   3
   3  10 -10 14172.7 1162.94   2
 -10  -3 -10 16560.1 1507.79   3
  10 -13 -10 12917.6 1236.63   1
  10 -13  -7 60.4472 211.402   2
   3  10  -7 363.358 555.240   1
   3  10  -7-96.5531 318.254   2
  13 -10  -7 199.479 500.847   1
   3  10  -7 131.045 219.240   4
  -3  13  -7 104.765 385.809   2
  -3  13  -7-55.1413 277.881   4
  10 -13  -7 907.736 485.561   1
  -3  13  -7 318.131 361.742   3
 -10  -3  -7-8.38997 504.421   3
 -13   3  -7 884.975 501.212   3
  -3  13  -4 63522.5 2025.49   2
  10 -13  -4 63126.6 1795.79   4
   3  10  -4 62418.4 1761.13   4
  10 -13  -4 61589.7 1953.15   1
  -3  13  -4 63805.3 1871.66   4
   3  10  -4 62911.2 1873.29   2
   3  10  -4 64560.6 1222.27   3
  -3  13  -4 64055.4 1137.87   3
 -10  -3  -4 63995.4 1949.07   3
 -13   3  -4 59816.3 1847.78   3
  10 -13  -4 64232.3 1434.48   2
  13 -10  -4 58614.7 2046.49   1
  -3  13  -1 9907.43 664.312   1
   3  10  -1 9852.35 418.907   3
  -3  13  -1 7238.35 669.410   2
  10 -13  -1 9185.12 536.095   3
  13 -10  -1 8958.51 704.427   1
  10 -13  -1 10829.5 786.107   4
  10 -13  -1 9848.52 683.045   2
   3  10  -1 9553.38 709.201   2
   3  10  -1 10055.5 782.876   4
 -10  -3  -1 8676.14 765.106   4
  13 -10  -1 10095.4 599.626   3
 -13   3  -1 7903.60 705.806   4
  10 -13  -1 9300.75 693.433   1
 -13   3  -1 9376.30 710.813   2
 -10  -3  -1 9853.39 688.116   2
  -3  13  -1 10103.5 813.877   4
 -10  -3  -1 9671.86 617.558   3
 -13   3  -1 9253.45 587.158   1
 -13   3  -1 9497.45 653.131   3
 -10  -3   2 86737.2 1740.68   3
  10 -13   2 77930.7 1697.36   1
 -13   3   2 78805.1 1844.08   3
   3  10   2 81223.8 1712.23   1
  13 -10   2 80524.2 1493.39   1
 -10  -3   2 74244.2 1889.30   4
 -13   3   2 76666.1 1895.26   4
  -3  13   2 79386.2 2135.61   4
   3  10   2 79185.8 2151.67   4
 -10  -3   2 83543.0 1682.51   2
   3  10   2 77445.4 1838.58   3
  -3  13   2 80466.1 1859.86   2
 -13   3   2 75439.9 2175.66   1
  -3  13   2 83483.1 1962.97   1
  13 -10   2 81123.8 1811.41   3
 -13   3   2 79231.1 1371.33   2
   3  10   2 79912.5 2019.23   2
  10 -13   2 84991.7 1527.04   3
   3  10   5 7106.72 662.119   1
 -10  -3   5 5498.82 472.959   4
 -13   3   5 6428.40 512.374   4
  -3  13   5 6790.93 686.049   2
   3  10   5 6917.75 742.047   4
  10 -13   5 6968.59 688.195   3
  -3  13   5 5562.87 647.821   4
 -10  -3   5 6505.77 548.400   2
   3  10   5 5831.51 700.875   2
  -3  13   8 12544.5 951.962   4
   3  10   8 14262.2 1065.31   4
  -4  13 -11 631.381 566.392   2
  -9  -4 -11 298.967 661.583   3
   9 -13 -11 144.873 516.922   1
   4   9 -11 1109.80 515.674   2
   9 -13 -11 392.415 839.465   3
  -4  13 -11 867.816 691.185   1
   4   9 -11 67.5737 726.738   1
   4   9 -11 588.632 634.274   3
  -4  13 -11 756.967 537.861   3
 -13   4 -11 623.018 648.216   3
  13  -9 -11 111.504 621.135   1
   4   9  -8 3534.00 334.204   4
  -9  -4  -8 3389.57 746.645   3
  -4  13  -8 2400.89 431.187   4
  -4  13  -8 3507.15 698.170   2
  -4  13  -8 3865.36 602.654   3
   4   9  -8 3499.01 554.854   2
   4   9  -8 2827.94 825.769   1
   9 -13  -8 3000.05 402.177   2
  -4  13  -8 2713.54 658.806   1
  13  -9  -8 2933.28 730.380   1
 -13   4  -8 2920.51 706.286   3
   9 -13  -8 2932.44 656.639   1
   9 -13  -5 709.050 257.802   2
  13  -9  -5 952.435 486.783   1
  -4  13  -5 431.247 282.275   4
   4   9  -5 491.026 225.781   3
 -13   4  -5 496.755 406.580   3
   9 -13  -5 879.740 332.693   4
  -4  13  -5 566.069 238.991   3
   9 -13  -5 725.234 445.890   1
   4   9  -5 1375.13 396.884   2
   4   9  -5 689.958 291.337   4
  -9  -4  -5 1048.64 457.979   3
  -4  13  -5 265.053 357.100   2
  -9  -4  -2 20750.6 1135.73   4
 -13   4  -2 23749.6 1182.75   2
   9 -13  -2 25458.4 954.433   3
   4   9  -2 23651.5 1045.86   2
 -13   4  -2 23140.9 762.351   1
   9 -13  -2 26154.6 1175.86   4
 -13   4  -2 23650.6 1187.19   4
   4   9  -2 24320.3 1124.09   4
  -9  -4  -2 25337.2 1143.40   2
  -4  13  -2 25855.8 1197.96   4
  -4  13  -2 24668.3 1039.33   1
  -4  13  -2 23436.8 1153.61   2
   9 -13  -2 23745.1 1114.32   1
   4   9  -2 25754.8 644.689   3
  -9  -4  -2 21926.4 965.043   3
  13  -9  -2 23728.8 941.052   3
 -13   4  -2 22856.0 1019.22   3
   9 -13  -2 25648.3 1019.03   2
  13  -9  -2 24478.9 1194.48   1
 -13   4   1 6570.65 548.154   3
   4   9   1 5790.24 607.845   4
   9 -13   1 6864.99 397.577   3
   4   9   1 7979.67 554.465   1
  -4  13   1 7420.47 598.639   2
   9 -13   1 6743.12 634.165   2
  -4  13   1 7545.85 635.600   1
  -9  -4   1 7107.26 628.203   4
   4   9   1 7035.38 616.679   2
  13  -9   1 6989.42 509.111   1
  -9  -4   1 6596.04 481.528   3
   4   9   1 7001.33 528.222   3
 -13   4   1 6199.83 598.208   4
 -13   4   1 6721.33 481.756   2
  -4  13   1 6805.00 659.231   4
   9 -13   1 7129.50 557.818   1
  13  -9   1 7026.96 549.160   3
  -9  -4   1 6119.19 522.672   2
 -13   4   1 6868.11 658.016   1
  -9  -4   4 16820.5 841.481   2
  -4  13   4 16561.2 1016.17   4
   4   9   4 16979.3 833.987   1
  -4  13   4 15826.5 872.028   2
  -9  -4   4 14167.0 784.171   4
   4   9   4 18018.1 1070.26   2
   9 -13   4 17564.7 889.200   3
   4   9   4 16823.2 1061.89   4
 -13   4   4 16995.8 838.383   4
  -9  -4   7 1501.34 201.359   4
  -4  13   7 2060.67 495.722   2
   4   9   7 1421.30 447.041   4
  -4  13   7 1911.46 455.054   4
   4   9   7 1475.87 432.905   1
 -13   4   7 1120.27 151.313   4
  -4  13  10 9684.08 777.538   4
   5   8  -9 1869.89 506.768   2
  13  -8  -9 2411.26 726.105   1
   8 -13  -9 602.762 442.849   1
  -5  13  -9 1257.65 551.484   2
   5   8  -9 2767.28 915.544   1
  -5  13  -9 2606.12 572.086   3
 -13   5  -9 2016.44 663.621   3
  -8  -5  -9 2653.46 778.792   3
  -8  -5  -9 1298.91 225.333   1
  -5  13  -9 1338.34 388.727   4
  -5  13  -9 3442.02 767.258   1
   5   8  -6 6059.83 864.808   1
   8 -13  -6 7292.09 803.827   1
   5   8  -6 6459.37 597.244   3
   5   8  -6 6105.67 505.411   4
  -5  13  -6 5097.57 583.620   4
   8 -13  -6 5504.54 500.853   2
  -5  13  -6 4845.41 715.700   2
   5   8  -6 6446.19 644.518   2
   8 -13  -6 6554.95 662.567   4
  13  -8  -6 5968.76 792.252   1
  -5  13  -6 5479.09 562.872   3
  -8  -5  -6 6752.41 846.043   3
 -13   5  -6 5264.51 701.280   3
 -13   5  -3 25874.0 1275.84   4
   5   8  -3 27729.4 772.259   3
 -13   5  -3 25736.0 619.934   1
   5   8  -3 25364.2 1072.34   2
   8 -13  -3 26908.6 1204.61   1
   8 -13  -3 26437.3 994.768   2
  -5  13  -3 26875.6 1086.73   1
   5   8  -3 26905.5 1139.37   4
  -5  13  -3 27082.7 1216.81   4
  -5  13  -3 27484.1 587.547   3
  -5  13  -3 26752.6 1283.02   2
  -8  -5  -3 26244.7 1272.94   4
   8 -13  -3 26304.8 1201.05   4
  -8  -5  -3 25893.1 1155.44   3
 -13   5  -3 27866.8 1141.07   3
  13  -8  -3 25070.9 1269.90   1
 -13   5   0 51538.4 1397.04   2
   5   8   0 47618.7 1612.40   4
  13  -8   0 51604.7 1421.76   1
  -5  13   0 55279.9 1493.12   1
   8 -13   0 53680.9 1640.87   4
   8 -13   0 51446.5 1578.30   2
 -13   5   0 48312.0 1463.79   1
  -5  13   0 50132.0 1654.04   4
  -8  -5   0 53066.6 1633.22   4
   8 -13   0 52303.9 1455.36   1
  -8  -5   0 50618.1 1420.52   2
  -5  13   0 52936.8 1565.75   2
 -13   5   0 52805.5 1360.06   3
  13  -8   0 49815.4 1291.67   3
  -8  -5   0 50584.2 1167.57   3
   5   8   0 49862.8 1139.51   3
   5   8   0 49393.7 1475.53   2
   8 -13   0 52121.5 978.961   3
 -13   5   3 5668.07 264.289   2
  13  -8   3 7223.50 391.153   1
  -5  13   3 6602.74 656.228   4
  -5  13   3 9036.17 755.586   1
   8 -13   3 6389.18 465.058   3
  -8  -5   3 6816.31 560.475   2
  13  -8   3 7089.64 643.356   3
  -5  13   3 7429.37 570.978   2
   5   8   3 7822.85 530.483   1
  -8  -5   3 7341.22 588.104   4
   5   8   3 6957.96 697.771   4
   5   8   3 7698.93 712.427   2
   5   8   3 6438.50 672.875   3
  -5  13   6 8253.18 729.338   4
  -5  13   6 6935.11 678.900   2
   5   8   6 7380.22 828.635   2
 -13   5   6 6706.97 442.894   4
   5   8   6 7476.36 787.709   4
  -8  -5   6 7035.37 487.630   4
   5   8   6 7851.07 667.003   1
 -13   5   6 5375.98 444.580   4
  -5  13   9 7186.50 697.937   4
  -6  13 -10 8746.16 1129.99   2
  -7  -6 -10 7172.19 1064.89   3
   7 -13 -10 7147.17 934.509   1
   6   7 -10 6862.14 784.630   2
   7 -13 -10 7090.00 1227.82   3
  -6  13 -10 6105.24 929.834   1
   6   7 -10 5218.07 969.593   1
 -13   6 -10 8373.54 1055.98   3
   6   7 -10 7481.79 1043.11   3
  -6  13 -10 7317.90 861.242   3
  13  -7 -10 5671.96 1001.22   1
  -7  -6  -7 574.896 504.957   3
   7 -13  -7 1078.08 386.255   4
  13  -7  -7 1849.26 652.205   1
  -6  13  -7 1207.00 394.657   4
  -6  13  -7 238.746 358.486   3
  -6  13  -7 262.141 397.002   2
  -7  -6  -7 293.247 189.175   1
   6   7  -7 731.911 196.041   4
   6   7  -7 542.131 333.170   2
   7 -13  -7 334.621 260.732   2
   6   7  -7-38.6082 488.365   1
 -13   6  -7 488.895 422.686   3
   7 -13  -7 320.488 395.417   1
   6   7  -4 51568.5 1234.95   3
   7 -13  -4 54719.7 1461.04   2
   6   7  -4 51768.0 1497.33   4
   7 -13  -4 53855.8 1702.74   4
  -6  13  -4 56224.6 1173.65   3
   7 -13  -4 57901.7 1815.22   1
  -6  13  -4 53693.1 1702.57   4
  -7  -6  -4 56849.0 1822.43   3
   6   7  -4 55691.5 2007.20   1
   6   7  -4 52868.8 1493.91   2
  13  -7  -4 51745.8 1949.86   1
  -6  13  -4 56728.5 1973.07   2
  -6  13  -4 52005.1 1508.10   1
 -13   6  -4 55462.2 1683.00   3
   6   7  -1 2886.87 477.904   4
   7 -13  -1 2722.76 299.447   3
  13  -7  -1 2631.11 456.196   1
   7 -13  -1 2528.86 415.980   1
  -6  13  -1 2170.74 420.553   2
  -6  13  -1 2307.68 453.685   4
  -6  13  -1 2605.06 377.928   1
 -13   6  -1 3290.35 410.481   1
   7 -13  -1 2704.73 409.060   2
   7 -13  -1 2469.20 435.878   4
   6   7  -1 3073.45 313.417   3
   6   7  -1 2262.18 389.110   2
  -7  -6  -1 3140.37 469.933   4
  -7  -6  -1 2660.67 359.503   3
  -7  -6  -1 2461.96 397.112   2
 -13   6  -1 3110.72 403.704   3
  13  -7  -1 2765.60 362.618   3
  -6  13   2 36756.3 1421.51   4
  -7  -6   2 37823.7 1234.37   2
 -13   6   2 27393.7 1102.74   3
  -7  -6   2 38482.6 1330.60   4
   7 -13   2 39233.8 1516.37   2
   6   7   2 34014.4 1429.92   4
  -6  13   2 36131.7 1185.44   2
  13  -7   2 37725.9 916.015   1
 -13   6   2 38454.1 878.205   2
   6   7   2 38242.6 1316.65   3
 -13   6   2 40049.5 1566.48   1
   7 -13   2 37037.6 796.348   3
   7 -13   2 36100.6 1364.42   4
  -7  -6   2 36593.8 972.933   3
  -6  13   2 36687.7 1361.01   1
  13  -7   2 37913.7 1288.42   3
   6   7   2 38503.3 1043.97   1
   6   7   5 12827.0 1013.56   2
   6   7   5 13474.8 988.559   4
 -13   6   5 13079.3 694.069   4
  -7  -6   5 12483.7 835.988   2
  -7  -6   5 12982.2 726.465   4
  -6  13   5 13670.3 823.326   2
  -6  13   5 12623.2 862.324   4
 -13   6   5 13405.2 702.982   4
   6   7   5 14578.4 746.504   1
   6   7   8 15458.0 907.819   1
   6   7   8 14236.8 1063.08   4
  -6  13   8 15260.2 965.318   4
  13  -6 -11 480.075 603.579   1
 -13   7 -11 1002.34 684.545   3
  -6  -7 -11 159.667 639.228   3
  -7  13 -11-369.893 552.103   2
  -7  13 -11 340.860 546.548   1
   7   6 -11 595.834 614.380   3
   6 -13 -11-364.176 863.236   3
   6 -13 -11-488.373 545.124   1
  -7  13 -11 1065.75 575.045   3
   7   6 -11 897.096 770.184   1
   6 -13  -8 12841.8 923.671   4
   7   6  -8 15652.1 962.715   2
  -7  13  -8 14792.3 1150.50   1
   7   6  -8 13951.7 1305.76   1
  -7  13  -8 16013.4 1334.05   2
  -6  -7  -8 12717.7 667.782   1
   6 -13  -8 15604.6 1162.56   1
  -7  13  -8 15755.2 976.092   4
  13  -6  -8 13213.6 1267.25   1
  -7  13  -8 15072.1 1027.63   3
 -13   7  -8 14560.2 1166.20   3
  -6  -7  -8 13791.6 1287.20   3
   7   6  -5 13620.9 754.427   3
   6 -13  -5 15986.9 998.306   4
  -6  -7  -5 14320.5 1052.14   3
  -7  13  -5 12790.6 1054.65   2
   7   6  -5 14736.0 748.428   4
   6 -13  -5 14388.3 816.845   2
   6 -13  -5 14020.4 979.277   1
   7   6  -5 13027.0 764.493   2
  13  -6  -5 13765.0 1103.26   1
  -7  13  -5 16297.4 794.877   3
  -6  -7  -5 13430.7 620.001   1
 -13   7  -5 14070.7 951.168   3
  -7  13  -5 14234.4 926.729   4
   7   6  -5 15553.0 1205.42   1
  -7  13  -5 12500.5 784.396   1
  13  -6  -2 34044.4 1131.39   3
   6 -13  -2 33780.9 1224.87   1
   6 -13  -2 37477.0 1430.86   4
  -7  13  -2 36218.6 1446.54   2
  -7  13  -2 37144.7 1234.41   1
   6 -13  -2 36283.3 1246.66   2
  -7  13  -2 34700.4 1355.56   4
   7   6  -2 36908.6 1344.68   4
 -13   7  -2 39163.7 1205.23   3
   7   6  -2 35204.4 1153.64   2
 -13   7  -2 38759.0 1060.45   1
  -6  -7  -2 37958.6 1352.11   2
  -6  -7  -2 36460.6 1438.84   4
  -6  -7  -2 34432.7 1161.34   3
  13  -6  -2 35747.8 1436.07   1
   7   6  -2 36384.7 942.141   3
  -7  13  -2 39354.2 722.870   3
 -13   7   1 2516.06 407.318   3
  -6  -7   1 3180.99 307.394   3
  -7  13   1 1853.95 394.461   4
   6 -13   1 3822.67 522.780   2
   7   6   1 3230.43 534.396   4
  -7  13   1 2179.35 367.636   2
  -6  -7   1 3045.61 468.213   4
 -13   7   1 2428.45 474.753   1
   7   6   1 2647.92 387.036   3
   6 -13   1 2948.61 203.254   3
  13  -6   1 2388.74 382.902   3
   6 -13   1 3073.62 472.741   4
  -7  13   1 3041.38 468.256   1
   6 -13   1 2256.12 392.889   1
   7   6   1 2787.92 418.573   2
  13  -6   1 2526.96 353.446   1
  -6  -7   1 2658.58 416.306   2
   7   6   4 51021.2 1869.72   2
   7   6   4 56727.7 1242.36   1
  -6  -7   4 53128.2 1486.04   4
  -7  13   4 56583.1 1731.94   4
  -6  -7   4 54597.2 1649.02   2
   7   6   4 53496.6 1857.08   4
  -7  13   4 56100.0 1433.34   2
  -6  -7   7 507.239 184.643   4
  -7  13   7 1329.34 381.619   2
 -13   7   7 736.979 171.041   4
  -7  13   7 1145.43 359.616   4
 -13   7   7 600.953 163.765   4
   7   6   7 1003.26 427.077   4
   7   6   7 1069.37 313.712   1
 -13   8  -9 8886.04 992.618   3
   8   5  -9 7826.07 707.481   2
  -8  13  -9 7642.94 952.347   1
  13  -5  -9 6699.24 1036.52   1
  -8  13  -9 6650.41 962.606   2
   5 -13  -9 6432.95 820.697   1
  -5  -8  -9 6966.08 1071.67   3
  -8  13  -9 7504.41 714.060   4
  -5  -8  -9 6382.75 542.647   1
   8   5  -9 5111.39 983.669   1
   5 -13  -9 6099.65 1068.89   3
  -8  13  -9 6974.88 792.244   3
   5 -13  -6 6407.60 601.747   2
   5 -13  -6 8456.35 785.072   4
  -8  13  -6 6119.00 661.236   4
  -5  -8  -6 7017.00 838.330   3
  -5  -8  -6 7830.35 540.177   1
 -13   8  -6 4740.37 314.590   1
   8   5  -6 6589.94 570.384   2
   8   5  -6 6913.00 927.699   1
   8   5  -6 7014.41 470.552   4
 -13   8  -6 5317.38 282.504   1
  13  -5  -6 6904.66 924.904   1
  -8  13  -6 7429.91 870.785   2
   5 -13  -6 7210.83 738.208   1
  -8  13  -6 6649.62 616.749   3
 -13   8  -6 6620.01 738.025   3
   8   5  -3 6703.89 462.156   3
   5 -13  -3 7833.54 616.223   2
  -8  13  -3 7022.15 735.810   2
  -8  13  -3 4985.69 565.016   4
   5 -13  -3 5663.22 621.392   4
   8   5  -3 7225.37 605.652   4
  -8  13  -3 6539.90 379.950   3
  -5  -8  -3 6479.61 666.165   4
  13  -5  -3 6276.21 707.092   1
  -8  13  -3 7336.34 572.147   1
   8   5  -3 7070.26 536.737   2
  -5  -8  -3 6977.87 654.079   3
   8   5  -3 8026.76 851.070   1
 -13   8  -3 6367.64 586.869   3
   5 -13  -3 6602.70 621.613   1
 -13   8  -3 7054.64 444.120   1
   5 -13   0 51303.6 796.126   3
   8   5   0 51049.2 1652.63   4
   5 -13   0 46549.0 1385.02   1
   8   5   0 49789.2 1233.17   3
  -8  13   0 49170.7 1599.99   4
  -5  -8   0 50279.5 1460.51   2
  -8  13   0 49883.0 1489.96   2
  -5  -8   0 49865.9 1630.40   4
  -8  13   0 52155.3 1510.07   1
 -13   8   0 51106.1 1514.42   1
  13  -5   0 47563.6 1386.41   1
 -13   8   0 50540.7 1313.30   3
   8   5   0 46857.3 1438.26   2
  -5  -8   0 49276.4 1003.99   3
  13  -5   0 48041.3 1300.85   3
   5 -13   0 48052.5 1528.07   2
   5 -13   0 53292.5 1672.58   4
   8   5   3 27741.1 784.837   1
  -8  13   3 25986.0 1277.94   1
  -5  -8   3 27172.8 1152.66   2
   8   5   3 27819.5 1341.57   4
  13  -5   3 21893.0 495.132   1
  -5  -8   3 24928.8 1083.45   4
  -8  13   3 27677.4 966.897   2
 -13   8   3 25295.7 514.603   2
  -8  13   3 29339.2 1272.34   4
   8   5   3 26306.1 1227.03   3
   5 -13   3 29563.4 1253.60   4
   8   5   3 26771.6 1297.95   2
  -8  13   6 6850.00 606.010   2
   8   5   6 5842.97 719.609   4
   8   5   6 6941.30 465.672   1
  -5  -8   6 5619.44 483.816   4
 -13   8   6 5794.24 457.438   4
  -8  13   6 5098.82 568.525   4
  -8  13   9 3105.57 442.352   4
  -9  13 -10 8604.21 942.019   3
 -13   9 -10 7181.32 818.241   4
  -9  13 -10 6900.93 699.301   4
  -9  13 -10 8572.94 1190.82   2
  -4  -9 -10 5855.20 606.850   1
  -9  13 -10 6278.71 900.925   1
   9   4 -10 7308.44 708.980   2
   4 -13 -10 9410.45 1439.37   3
   9   4 -10 7659.47 1218.29   1
  -4  -9 -10 7693.00 1137.56   3
  13  -4 -10 8103.40 1150.28   1
 -13   9 -10 8932.43 1069.18   3
   4 -13 -10 6828.06 869.347   1
  -9  13  -7 2037.56 431.608   4
  -4  -9  -7 1808.27 603.879   3
  13  -4  -7 1595.13 636.641   1
 -13   9  -7 1363.05 522.456   3
   4 -13  -7 1574.88 443.046   1
  -9  13  -7 1907.77 564.081   2
   9   4  -7 2142.47 659.835   1
   4 -13  -7 1585.23 697.047   3
 -13   9  -7 1512.56 219.663   1
 -13   9  -7 1499.66 277.683   1
  -9  13  -7 2175.54 481.939   3
  -4  -9  -7 1802.41 372.181   1
   9   4  -7 2110.12 348.565   2
  -4  -9  -4 15741.7 760.488   1
  -9  13  -4 14619.9 927.557   4
   9   4  -4 15611.8 767.108   3
  -9  13  -4 16785.9 738.533   3
  13  -4  -4 14922.1 1156.12   1
   9   4  -4 16279.6 814.730   4
  -9  13  -4 17226.2 846.599   1
   4 -13  -4 18560.3 1067.26   4
  -9  13  -4 16806.3 1151.30   2
   9   4  -4 16153.2 759.014   2
   4 -13  -4 15767.4 879.849   2
 -13   9  -4 17567.4 650.798   1
 -13   9  -4 18268.5 945.115   3
   9   4  -4 13774.9 1115.04   1
  -4  -9  -4 16233.5 1042.96   3
   4 -13  -4 16300.9 942.914   1
  -9  13  -1 7706.02 429.477   3
  -4  -9  -1 7196.18 495.512   3
   9   4  -1 7643.63 497.386   3
  -9  13  -1 8758.37 730.754   2
  -9  13  -1 6356.73 646.237   4
  -4  -9  -1 7904.71 633.552   2
  13  -4  -1 8757.71 719.829   1
  -9  13  -1 7577.82 621.491   1
  -4  -9  -1 8528.15 718.011   4
   4 -13  -1 7716.77 685.455   4
 -13   9  -1 7425.90 595.038   1
   9   4  -1 7601.75 580.495   2
   9   4  -1 7306.61 666.698   4
   4 -13  -1 7812.43 641.591   2
   4 -13  -1 8315.04 625.668   1
  13  -4  -1 6709.35 523.045   3
 -13   9  -1 8406.14 558.340   3
   4 -13   2 23800.7 1205.38   2
  13  -4   2 22388.2 697.461   1
  -9  13   2 22050.4 1140.16   1
 -13   9   2 21641.2 1016.64   3
 -13   9   2 20817.6 734.263   2
   4 -13   2 23335.0 1120.40   4
  -9  13   2 21025.7 1056.58   4
  -4  -9   2 20759.3 1026.75   2
  -4  -9   2 22695.1 1057.00   4
  13  -4   2 20220.2 991.803   3
  -9  13   2 20735.1 862.100   2
   9   4   2 21613.8 1159.70   4
 -13   9   2 22795.6 1223.57   1
   9   4   2 21334.3 1031.23   3
   9   4   2 21715.6 1109.86   2
  -9  13   5 305.794 229.802   2
   9   4   5 733.203 184.096   1
  -9  13   5 558.204 306.733   4
  -4  -9   5 725.242 372.977   2
 -13   9   5 80.6951 197.344   4
   9   4   5 776.472 333.063   4
  -4  -9   5 871.439 302.923   4
 -13   9   8 1741.90 183.263   4
  -9  13   8 2787.47 430.964   4
  -3 -10 -11 377.327 764.526   3
 -10  13 -11 440.002 642.983   2
   3 -13 -11 1014.45 555.844   1
   3 -13 -11 444.986 922.589   3
  10   3 -11 863.431 724.070   1
 -10  13 -11 402.772 505.917   3
 -13  10 -11 419.749 586.518   3
  13  -3 -11 1723.87 766.406   1
 -10  13  -8 10925.1 964.707   1
 -13  10  -8 11013.8 555.419   1
  -3 -10  -8 11743.8 768.633   1
  10   3  -8 14155.7 1392.56   1
  -3 -10  -8 12551.8 1240.10   3
 -13  10  -8 11591.5 716.440   1
 -10  13  -8 12047.0 913.806   4
  10   3  -8 14952.4 781.142   2
 -10  13  -8 12018.7 1230.66   2
  13  -3  -8 14254.1 1363.07   1
   3 -13  -8 14520.9 1398.56   3
   3 -13  -8 12591.0 994.156   1
 -13  10  -8 11947.4 1069.34   3
 -10  13  -8 14432.3 1044.54   3
   3 -13  -5 5924.85 623.121   1
  10   3  -5 8148.23 907.447   1
   3 -13  -5 5609.18 674.284   4
 -10  13  -5 5069.84 593.420   4
  -3 -10  -5 7265.53 564.510   1
 -13  10  -5 6190.26 430.751   1
 -10  13  -5 5958.28 533.442   1
  10   3  -5 6603.71 486.496   2
   3 -13  -5 6114.88 615.713   2
 -10  13  -5 7039.98 838.171   2
  13  -3  -5 7481.58 904.845   1
   3 -13  -5 5465.38 737.602   3
  -3 -10  -5 3818.20 646.424   3
 -13  10  -5 6524.38 664.618   3
 -10  13  -5 7244.65 605.626   3
  -3 -10  -2 80115.5 2171.74   4
  -3 -10  -2 82171.4 2008.77   2
   3 -13  -2 82930.8 1982.78   2
   3 -13  -2 82744.9 1787.61   3
  10   3  -2 81220.5 1953.30   4
 -13  10  -2 84150.4 1721.00   1
  10   3  -2 82418.0 1582.46   3
 -10  13  -2 83668.6 2146.74   4
  10   3  -2 80124.5 2248.09   1
 -10  13  -2 84652.2 2257.05   2
   3 -13  -2 81801.2 2127.63   4
  13  -3  -2 69292.3 2049.29   1
   3 -13  -2 71467.6 1764.65   1
 -13  10  -2 82576.1 1648.91   3
  -3 -10  -2 82471.4 1760.76   3
  10   3  -2 78020.2 1646.48   2
 -10  13  -2 81825.8 1827.10   1
 -10  13  -2 82855.1 1358.08   3
  13  -3  -2 80306.5 1698.83   3
  -3 -10   1 10469.7 378.584   3
 -10  13   1 11144.7 802.171   4
 -10  13   1 9142.60 742.485   1
  13  -3   1 9313.04 685.067   3
   3 -13   1 10455.4 800.933   2
   3 -13   1 10611.7 787.145   4
  13  -3   1 11182.9 636.400   1
 -13  10   1 10650.4 805.400   1
 -13  10   1 9962.63 638.224   2
 -13  10   1 10389.8 683.770   3
  10   3   1 9658.44 655.940   3
  10   3   1 8800.40 748.509   4
  -3 -10   1 11122.2 777.258   2
  -3 -10   1 9586.68 731.351   4
  10   3   1 12057.2 812.147   2
 -10  13   1 9333.75 649.300   2
   3 -13   4 62483.0 1832.19   4
 -10  13   4 63792.5 1349.14   2
  10   3   4 59273.6 946.195   1
 -10  13   4 60392.0 1800.79   4
  10   3   4 63790.7 2161.14   2
 -13  10   4 61333.5 1635.10   4
  -3 -10   4 61132.0 1918.60   2
  -3 -10   4 63309.4 1731.51   4
  10   3   4 66739.4 2089.26   4
 -10  13   7 577.393 330.931   4
 -13  10   7 258.433 183.081   4
  -3 -10   7 169.142 222.902   4
 -11  13  -9 4077.48 913.026   2
 -13  11  -9 2201.50 448.835   1
  -2 -11  -9 2695.21 480.429   1
 -11  13  -9 2679.67 532.140   4
 -13  11  -9 3917.25 712.990   3
   2 -13  -9 2452.03 627.290   1
 -13  11  -9 2310.20 550.715   4
 -11  13  -9 2681.97 625.883   1
  11   2  -9 2920.38 375.080   2
  -2 -11  -9 3364.16 828.732   3
   2 -13  -9 2026.06 789.357   3
  11   2  -9 2665.04 840.398   1
  13  -2  -9 3855.08 841.263   1
 -11  13  -9 3409.97 666.790   3
  11   2  -6 5299.45 898.761   1
 -11  13  -6 3895.47 714.854   2
 -11  13  -6 3733.21 551.357   4
  11   2  -6 5166.94 412.699   2
  -2 -11  -6 5142.34 546.037   1
  13  -2  -6 5139.98 831.985   1
   2 -13  -6 5773.85 816.432   3
 -11  13  -6 4820.53 500.781   1
 -13  11  -6 4352.06 624.936   3
 -11  13  -6 5844.89 618.713   3
  -2 -11  -6 4787.43 798.514   3
 -13  11  -6 5382.66 436.746   1
   2 -13  -6 4777.24 603.500   1
  11   2  -3 881.031 260.929   3
 -11  13  -3-186.981 360.578   2
  -2 -11  -3 897.686 384.562   3
   2 -13  -3 676.819 292.867   1
  13  -2  -3 712.493 202.342   2
  11   2  -3 446.950 387.054   1
  -2 -11  -3 693.441 280.913   1
   2 -13  -3 1292.82 395.056   4
  11   2  -3 1239.09 353.547   4
   2 -13  -3 703.423 385.364   3
   2 -13  -3 1126.54 354.199   2
  13  -2  -3 1080.18 442.648   1
 -11  13  -3 688.510 269.634   1
 -13  11  -3 741.625 262.282   1
 -11  13  -3 771.955 341.082   4
  11   2  -3 623.881 209.560   2
 -13  11  -3 492.075 282.715   3
 -11  13  -3 402.565 207.737   3
 -11  13   0-230.911 344.399   4
  11   2   0-93.5705 248.363   2
 -13  11   0-83.5170 259.580   3
 -13  11   0-23.0320 266.484   1
 -11  13   0 181.281 229.042   3
 -13  11   0 457.352 268.616   2
   2 -13   0-15.6358 268.266   4
 -11  13   0-74.5440 273.036   2
  11   2   0 215.067 298.452   1
   2 -13   0-48.3415 292.904   2
  -2 -11   0-469.087 304.430   2
  -2 -11   0 194.723 149.639   3
  13  -2   0 100.567 280.947   1
 -11  13   0 16.5817 307.432   1
   2 -13   0-81.4771 123.856   3
  11   2   0-56.4575 326.430   4
  11   2   0 118.688 245.881   3
  13  -2   0 184.104 254.750   3
  11   2   3 3695.01 574.094   2
 -11  13   3 4606.80 554.691   4
  -2 -11   3 4648.47 579.041   2
 -13  11   3 4630.78 537.922   4
   2 -13   3 4603.37 549.852   4
 -13  11   3 4883.69 327.551   2
  11   2   3 4079.59 270.925   1
 -11  13   3 3544.64 350.580   2
  11   2   3 4935.56 361.791   1
  11   2   3 4558.25 602.884   4
  13  -2   3 2992.85 219.543   1
  -2 -11   3 5062.76 571.161   4
 -11  13   6 13765.5 651.018   2
 -13  11   6 14003.4 790.007   4
 -11  13   6 12403.0 823.372   4
  -2 -11   6 11649.3 764.949   4
 -11  13   9 5035.92 468.648   4
  -1 -12 -10 1098.70 439.613   1
 -12  13 -10 513.413 473.364   1
  12   1 -10-509.611 698.690   1
 -12  13 -10 717.265 404.343   4
 -12  13 -10 1072.26 559.038   3
  13  -1 -10 807.856 652.952   1
 -13  12 -10 1127.03 506.389   4
   1 -13 -10 1848.67 823.427   3
  -1 -12 -10 1876.97 789.220   3
   1 -13 -10 1235.13 438.584   1
 -12  13 -10 332.716 548.000   2
 -13  12 -10 760.933 513.435   3
  -1 -12  -7 2294.80 437.707   1
 -13  12  -7 2613.60 536.501   4
   1 -13  -7 2986.33 531.830   1
 -12  13  -7 2841.09 518.867   4
  -1 -12  -7 2104.47 661.682   3
 -12  13  -7 2961.43 688.665   2
 -13  12  -7 2744.64 365.982   1
  13  -1  -7 2081.36 185.840   2
  12   1  -7 2784.09 287.977   2
   1 -13  -7 2536.90 672.395   3
  12   1  -7 2966.92 755.198   1
 -12  13  -7 2380.46 386.893   1
  13  -1  -7 2156.54 718.431   1
 -12  13  -7 3107.42 544.614   3
 -13  12  -7 2767.22 508.203   3
   1 -13  -4 4667.00 639.791   3
 -12  13  -4 3487.08 620.621   2
   1 -13  -4 3964.63 509.437   1
 -13  12  -4 3255.75 395.644   1
  12   1  -4 3158.51 620.369   1
  -1 -12  -4 3831.93 606.546   3
  13  -1  -4 3087.79 626.433   1
  13  -1  -4 2981.27 286.252   2
 -12  13  -4 4109.44 578.532   4
  12   1  -4 3069.32 323.193   2
 -13  12  -4 4156.33 485.599   3
 -12  13  -4 3697.23 423.769   3
  -1 -12  -4 3339.28 443.868   1
 -12  13  -4 3357.21 420.836   1
 -12  13  -1 12731.5 640.864   3
  13  -1  -1 12568.2 718.351   2
   1 -13  -1 13043.0 913.227   4
 -13  12  -1 13945.5 820.285   1
 -12  13  -1 11889.8 855.031   4
  13  -1  -1 12495.6 867.935   1
   1 -13  -1 12661.1 776.491   1
   1 -13  -1 13452.8 871.536   2
  -1 -12  -1 11375.5 870.027   4
  13  -1  -1 11989.1 702.960   3
  12   1  -1 12425.2 882.002   1
 -12  13  -1 12245.9 876.557   2
  -1 -12  -1 12729.4 832.952   2
 -12  13  -1 13038.8 795.820   1
  12   1  -1 13157.7 874.159   4
 -13  12  -1 13640.4 916.033   2
   1 -13  -1 13710.4 626.108   3
  -1 -12  -1 13041.4 618.143   3
 -13  12  -1 13913.0 689.816   3
  12   1  -1 12310.3 691.800   3
  12   1  -1 13183.7 750.072   2
  12   1   2 423.910 331.231   4
  12   1   2 441.001 347.983   2
 -13  12   2 399.609 294.734   4
 -12  13   2 458.672 214.976   2
   1 -13   2 758.280 312.700   4
  -1 -12   2 274.848 343.598   4
   1 -13   2 800.158 356.586   2
 -13  12   2 570.808 216.382   2
 -12  13   2 416.258 269.359   4
  12   1   2 436.786 237.366   1
  -1 -12   2 320.847 329.738   2
  13  -1   2 438.851 186.540   1
  12   1   2 298.859 305.002   3
  -1 -12   5 1917.96 416.436   4
   1 -13   5 1688.69 392.193   4
 -12  13   5 1469.48 374.329   4
 -12  13   5 2051.32 265.378   2
 -13  12   5 1667.94 361.334   4
 -13  12   5 1477.76 160.180   2
 -12  13   8 268.194 255.102   4
 -13  12   8 568.488 245.437   4
   0 -13 -11-156.653 404.781   1
 -13  13 -11-1079.52 711.712   2
   0 -13 -11-67.9975 837.413   3
 -13  13 -11 733.797 571.775   3
  13   0 -11 639.197 664.450   1
   0 -13  -8 44050.3 2264.41   3
   0 -13  -8 43127.3 1625.15   1
 -13  13  -8 39265.0 1609.48   1
  13   0  -8 36058.2 2088.69   1
  13   0  -8 33400.5 795.592   2
 -13  13  -8 44002.1 1809.47   3
 -13  13  -8 41330.3 1766.50   4
 -13  13  -5-282.115 320.862   4
  13   0  -5-228.096 440.213   1
   0 -13  -5 254.003 457.643   3
 -13  13  -5-146.584 234.469   1
 -13  13  -5 81.7664 285.438   3
  13   0  -5-102.588 156.086   2
   0 -13  -5 92.7489 289.292   1
 -13  13  -2 104534. 2624.48   2
 -13  13  -2 99157.7 2461.27   4
  13   0  -2 104146. 2622.81   1
   0 -13  -2 105027. 2036.84   3
 -13  13  -2 104160. 2126.44   1
   0 -13  -2 104883. 2168.21   1
  13   0  -2 99969.8 1886.76   2
  13   0  -2 95714.4 1922.01   3
 -13  13  -2 105831. 1812.98   3
   0 -13   1 546.098 317.952   2
  13   0   1-105.729 252.368   1
 -13  13   1-381.503 352.049   4
  13   0   1 118.578 296.464   2
 -13  13   1 227.464 257.379   3
 -13  13   1 36.7942 327.779   1
   0 -13   1 122.791 294.075   4
 -13  13   1 183.301 256.509   2
  13   0   1 165.432 283.347   3
 -13  13   4 57984.5 1105.81   2
   0 -13   4 60315.7 1864.03   4
 -13  13   4 55176.1 1719.10   4
 -13  13   7 841.768 347.657   4
  14 -14 -11 640.384 717.914   1
   0  14 -11 739.259 508.260   2
   0  14 -11 992.942 677.833   1
   0  14 -11 230.341 534.607   3
 -14   0 -11 321.535 665.066   3
   0  14  -8 369.460 476.056   2
   0  14  -8 296.624 587.689   1
   0  14  -8 387.813 341.811   4
   0  14  -8 167.942 391.034   3
 -14   0  -8 1506.47 672.200   3
  14 -14  -8 540.173 543.951   1
   0  14  -5 69.2616 173.732   3
 -14   0  -5 70.5101 399.154   3
   0  14  -5 681.652 459.265   2
   0  14  -5-276.934 331.930   4
  14 -14  -5-101.564 385.641   1
   0  14  -5-5.74300 233.425   3
 -14   0  -2-87.0044 294.051   3
  14 -14  -2 522.197 388.732   1
   0  14  -2 370.511 335.881   4
   0  14  -2 347.496 312.658   2
  14 -14   1-169.617 242.315   1
 -14   0   1-269.619 264.516   3
   0  14   1 35.6099 363.786   4
 -14   0   1 58.9200 228.335   2
 -14   0   1-128.238 288.185   4
   0  14   1-221.681 290.042   2
  14 -14   1-25.4978 206.338   3
 -14   0   4 1627.58 368.041   4
 -14   0   4 1384.02 269.521   2
  14 -14   4 1459.83 436.305   3
   0  14   4 1360.82 456.010   4
   0  14   4 2010.46 443.543   2
   0  14   7-359.229 435.159   2
 -14   0   7-110.273 178.969   4
   0  14   7-597.868 452.377   4
   0  14  10 2168.48 610.180   4
  -1  14  -9 3805.81 508.920   4
  -1  14  -9 4601.09 953.670   1
  13 -14  -9 5081.24 887.683   1
   1  13  -9 4222.29 482.570   4
  -1  14  -9 3501.55 589.814   3
   1  13  -9 4151.57 687.665   2
  14 -13  -9 4142.74 848.166   1
  -1  14  -9 5513.30 841.291   2
   1  13  -9 3518.91 833.866   1
   1  13  -9 3975.72 647.190   3
 -14   1  -9 4407.14 897.809   3
 -13  -1  -9 4291.29 871.022   3
  -1  14  -6 420.013 376.923   2
 -14   1  -6 432.021 442.466   3
   1  13  -6 603.230 305.407   3
   1  13  -6 807.197 392.065   4
  13 -14  -6 578.914 182.063   2
  -1  14  -6 829.963 408.671   4
   1  13  -6 362.221 349.098   2
  14 -13  -6 538.276 456.503   1
   1  13  -6 1182.81 334.588   3
  13 -14  -6 496.574 485.402   1
  -1  14  -6 908.906 313.892   3
 -13  -1  -6 389.382 459.128   3
  -1  14  -3 7746.07 768.883   2
  -1  14  -3 9577.72 818.930   4
  14 -13  -3 8472.66 798.781   1
  13 -14  -3 8970.92 604.170   2
   1  13  -3 8813.53 290.739   3
   1  13  -3 10923.1 875.991   4
   1  13  -3 10110.7 821.766   2
 -14   1  -3 8672.34 742.365   3
  13 -14  -3 6877.39 717.989   1
 -13  -1  -3 8996.06 764.073   3
   1  13   0 3181.88 567.293   4
   1  13   0 2582.07 403.935   1
 -14   1   0 3913.63 568.739   4
  -1  14   0 3269.44 545.124   4
  -1  14   0 3144.18 484.751   2
   1  13   0 3769.46 542.231   2
  13 -14   0 3215.62 368.371   3
  14 -13   0 2432.75 415.450   1
 -13  -1   0 3616.21 453.435   2
 -14   1   0 2905.25 441.173   2
  13 -14   0 3028.84 467.849   1
 -13  -1   0 2936.09 514.847   4
  14 -13   0 3149.14 390.308   3
 -13  -1   0 2438.22 387.970   3
 -14   1   0 3447.58 450.246   3
 -13  -1   3 4843.39 571.023   3
  -1  14   3 4360.97 643.191   4
   1  13   3 3957.65 514.285   1
 -14   1   3 4139.03 543.715   4
  14 -13   3 4131.26 439.382   1
 -13  -1   3 3884.84 405.739   2
 -13  -1   3 4194.26 534.451   4
 -14   1   3 4130.51 376.297   2
   1  13   3 4998.29 648.414   4
  13 -14   3 4914.57 483.594   1
  13 -14   3 4206.74 501.345   3
  14 -13   3 4419.91 550.395   3
   1  13   3 4553.33 565.107   2
  -1  14   3 4926.11 609.654   2
 -14   1   3 3973.81 544.193   3
  -1  14   6 550.250 388.500   2
   1  13   6 951.129 460.639   2
 -13  -1   6 476.824 272.751   4
 -14   1   6 473.175 260.304   4
  -1  14   6 46.0743 376.198   4
   1  13   6 269.552 349.075   4
  -1  14   9 1636.13 515.264   4
   1  13   9 2982.91 582.361   4
  12 -14 -10 3809.32 835.431   1
  -2  14 -10 4756.82 855.471   2
  -2  14 -10 3680.23 916.537   1
   2  12 -10 3287.75 914.767   1
   2  12 -10 4977.32 772.080   2
  14 -12 -10 5054.60 954.236   1
   2  12 -10 5397.13 833.480   3
  -2  14 -10 5081.83 775.254   3
 -12  -2 -10 5104.02 938.991   3
 -14   2 -10 3307.32 858.693   3
  12 -14  -7 18096.1 1324.60   1
  14 -12  -7 16971.8 1333.60   1
  -2  14  -7 16952.3 1280.23   2
  12 -14  -7 13038.7 629.120   2
  -2  14  -7 16793.1 942.529   3
   2  12  -7 16926.5 929.682   4
  -2  14  -7 18378.6 1087.56   4
   2  12  -7 16192.1 995.136   3
 -12  -2  -7 16092.2 1258.54   3
 -14   2  -7 17193.0 1339.04   3
   2  12  -7 16252.4 1132.51   2
   2  12  -7 16779.9 1392.75   1
   2  12  -4 7526.84 380.262   3
  14 -12  -4 7884.85 813.143   1
  12 -14  -4 8209.51 554.387   2
  -2  14  -4 7644.54 376.064   3
  -2  14  -4 7196.75 755.237   2
 -12  -2  -4 7332.60 747.716   3
  -2  14  -4 6930.66 712.319   4
 -14   2  -4 7020.52 718.169   3
  12 -14  -4 7578.15 785.360   1
   2  12  -4 7545.57 711.566   4
   2  12  -4 8128.86 774.531   2
  12 -14  -1 22701.2 850.444   3
  -2  14  -1 22472.4 1201.03   4
  14 -12  -1 22479.0 1088.60   1
   2  12  -1 23051.1 1137.50   2
  12 -14  -1 23983.4 1116.65   1
   2  12  -1 22062.2 1184.66   4
 -12  -2  -1 23701.6 1110.18   2
   2  12  -1 22895.3 586.865   3
  14 -12  -1 21758.6 889.691   3
 -14   2  -1 21913.0 1076.83   2
 -12  -2  -1 22873.0 954.664   3
  -2  14  -1 22785.9 1175.71   2
 -14   2  -1 25830.3 1041.48   3
 -14   2   2 23291.9 1259.10   1
 -12  -2   2 23303.0 1014.57   3
 -14   2   2 26170.5 1125.63   3
  12 -14   2 27310.1 1044.47   1
  -2  14   2 25947.7 1137.80   2
   2  12   2 27040.7 1077.84   1
  14 -12   2 26087.8 959.622   1
   2  12   2 25997.2 1221.28   2
  12 -14   2 28133.4 993.701   3
 -14   2   2 23759.6 1147.57   4
 -12  -2   2 26353.8 989.354   2
 -14   2   2 26533.9 887.473   2
  -2  14   2 24035.3 1264.79   4
  -2  14   2 23950.0 1105.42   1
  14 -12   2 26943.6 1083.36   3
   2  12   2 26325.5 1311.35   4
 -12  -2   2 26204.6 1194.75   4
   2  12   5 28985.1 1304.92   1
   2  12   5 30312.3 1502.74   4
 -12  -2   5 27417.1 1079.03   4
  12 -14   5 27736.4 1322.17   3
  -2  14   5 28985.0 1354.26   2
  -2  14   5 31720.9 1485.83   4
   2  12   5 30881.2 1491.16   2
 -14   2   5 28296.6 1099.25   4
 -12  -2   5 29118.8 1061.35   2
  -2  14   8 9863.33 1036.35   2
   2  12   8 9484.08 929.900   4
  -2  14   8 10947.6 958.855   4
   3  11 -11 89.3896 441.972   2
   3  11 -11 656.094 597.541   3
  14 -11 -11 1981.71 869.250   1
  -3  14 -11 771.945 671.737   1
  -3  14 -11 881.852 508.184   3
  -3  14 -11 989.989 557.049   2
   3  11 -11 1024.03 707.197   1
 -11  -3 -11 1538.97 829.969   3
  11 -14 -11 928.364 670.400   1
 -14   3 -11 1177.14 702.691   3
  -3  14  -8 3479.75 722.349   1
   3  11  -8 4209.54 968.048   1
 -11  -3  -8 4596.58 872.408   3
   3  11  -8 3721.13 427.644   4
  14 -11  -8 3800.93 807.236   1
   3  11  -8 3429.08 578.540   2
   3  11  -8 3795.80 665.120   3
  -3  14  -8 3335.89 723.893   2
  -3  14  -8 3609.29 573.483   3
 -14   3  -8 2902.45 760.270   3
  -3  14  -8 3072.81 494.815   4
  11 -14  -8 3648.80 702.940   1
   3  11  -5 3297.57 352.258   3
  14 -11  -5 3399.18 667.901   1
  -3  14  -5 3705.82 555.765   4
  11 -14  -5 3183.25 616.522   1
  11 -14  -5 4084.17 415.729   2
 -11  -3  -5 4082.08 650.973   3
 -14   3  -5 4079.38 635.978   3
   3  11  -5 2929.35 476.623   4
  -3  14  -5 3388.05 571.626   2
  -3  14  -5 3370.91 368.224   3
   3  11  -5 3114.23 505.277   2
  14 -11  -2 3215.04 414.494   3
  11 -14  -2 3069.96 401.587   3
  14 -11  -2 3043.98 544.738   1
  11 -14  -2 3512.75 443.089   2
   3  11  -2 2951.62 479.219   4
  -3  14  -2 2736.91 500.894   2
  -3  14  -2 2749.81 485.983   4
 -11  -3  -2 3312.71 458.426   3
   3  11  -2 2835.50 454.860   2
  11 -14  -2 3420.54 541.229   1
 -14   3  -2 3444.26 508.258   3
   3  11  -2 2910.94 221.585   3
 -14   3  -2 3032.07 519.104   2
  -3  14   1 2174.68 432.277   1
 -11  -3   1 1676.65 311.826   3
 -14   3   1 1981.05 378.420   4
 -14   3   1 2343.36 441.113   1
   3  11   1 1035.19 431.850   4
   3  11   1 1788.46 391.882   2
 -11  -3   1 1516.00 397.862   4
  -3  14   1 2135.91 492.122   4
   3  11   1 1812.93 336.715   3
  14 -11   1 2128.40 386.609   1
   3  11   1 1460.05 321.670   1
 -11  -3   1 2024.33 337.160   2
  -3  14   1 2063.22 414.534   2
 -14   3   1 1325.36 340.119   3
  11 -14   1 2232.74 367.866   1
  14 -11   1 1467.37 342.973   3
  11 -14   1 1389.19 259.136   3
 -14   3   1 2071.21 309.174   2
   3  11   4 2261.61 472.294   2
  11 -14   4 2229.54 411.968   3
 -14   3   4 1889.81 196.037   2
 -11  -3   4 2136.94 342.200   2
  -3  14   4 3196.38 553.922   4
   3  11   4 2402.21 425.636   1
 -11  -3   4 2217.69 412.057   4
   3  11   4 2579.03 534.316   4
 -14   3   4 2399.84 384.938   4
  -3  14   4 2899.27 458.587   2
  -3  14   7 5441.33 714.885   2
   3  11   7 7112.25 857.883   2
 -14   3   7 5160.58 361.423   4
 -14   3   7 3528.01 306.527   4
  -3  14   7 5584.28 685.993   4
   3  11   7 5048.34 711.745   4
   3  11   7 4523.43 694.773   1
 -11  -3   7 4130.97 342.121   4
  -3  14  10 4417.03 634.895   4
   3  11  10 3152.20 606.196   4
  -4  14  -9 5193.80 851.011   2
  -4  14  -9 6708.23 984.181   1
   4  10  -9 5556.29 1002.19   1
  10 -14  -9 4877.26 827.659   1
   4  10  -9 6191.01 760.646   2
 -10  -4  -9 5929.40 929.468   3
   4  10  -9 7509.28 919.456   3
  -4  14  -9 5450.38 628.425   4
  -4  14  -9 6827.91 752.130   3
  14 -10  -9 5214.61 923.709   1
 -14   4  -9 5839.41 940.037   3
   4  10  -6 78.1950 441.920   1
 -14   4  -6 263.133 457.957   3
   4  10  -6 645.319 282.112   3
  -4  14  -6 271.328 364.083   2
  10 -14  -6 412.227 233.979   2
  10 -14  -6 236.816 382.598   1
  10 -14  -6 958.243 407.058   4
   4  10  -6 952.074 328.643   4
  14 -10  -6 441.420 425.369   1
  -4  14  -6 11.5501 274.096   3
 -10  -4  -6-332.625 499.671   3
  -4  14  -6 246.465 275.321   4
   4  10  -6 1642.29 425.423   2
  10 -14  -3 20589.0 1086.36   4
  10 -14  -3 18991.9 958.349   3
   4  10  -3 19894.7 1064.93   4
  14 -10  -3 18415.7 1160.11   1
  -4  14  -3 19005.3 1065.01   4
  10 -14  -3 18433.4 1050.26   1
   4  10  -3 20771.0 1052.61   2
 -14   4  -3 19505.4 1038.56   3
  -4  14  -3 20390.4 1163.56   2
 -10  -4  -3 19533.9 1023.00   3
  10 -14  -3 20267.2 903.308   2
  -4  14  -3 17815.3 346.985   3
   4  10  -3 21651.2 632.479   3
  10 -14   0 3997.57 474.068   1
 -14   4   0 2883.66 473.642   1
  10 -14   0 3351.55 494.890   4
  -4  14   0 4140.94 508.141   1
  -4  14   0 3741.54 545.134   4
   4  10   0 4514.83 561.990   4
  14 -10   0 3638.11 470.595   1
  10 -14   0 4205.23 518.083   2
 -14   4   0 2744.94 493.027   4
 -10  -4   0 3326.86 510.004   4
  10 -14   0 3394.06 319.101   3
  -4  14   0 3374.22 484.661   2
   4  10   0 3379.59 463.207   2
   4  10   0 3399.38 353.415   3
 -10  -4   0 4136.00 486.677   2
  14 -10   0 3709.89 417.607   3
 -10  -4   0 3593.46 399.844   3
 -14   4   0 3797.85 452.548   2
 -14   4   0 3640.68 456.415   3
 -14   4   3 6877.95 362.346   2
 -14   4   3 7367.32 695.633   3
 -10  -4   3 8487.31 617.473   3
   4  10   3 7254.06 710.318   3
 -14   4   3 7010.26 613.246   4
 -10  -4   3 7550.23 571.739   2
 -10  -4   3 7352.93 642.535   4
   4  10   3 7800.19 778.590   4
  14 -10   3 6715.81 649.018   3
  14 -10   3 8013.12 467.998   1
  -4  14   3 7498.24 631.790   2
  10 -14   3 5666.88 485.904   3
   4  10   3 7649.92 704.421   2
   4  10   3 7525.02 581.829   1
  -4  14   3 7861.72 744.559   4
  -4  14   6 77.6427 346.968   2
  -4  14   6-30.2261 320.888   4
   4  10   6-62.1138 368.783   2
 -10  -4   6 170.466 201.064   4
 -14   4   6 77.9102 195.497   4
   4  10   6-173.222 325.226   4
   4  10   6 415.347 349.244   1
   4  10   9 8689.47 890.468   4
  -4  14   9 7568.54 782.668   4
   5   9 -10 2340.65 816.180   1
   5   9 -10 2035.19 559.886   2
  14  -9 -10 2707.00 754.577   1
  -5  14 -10 3529.84 782.256   1
  -5  14 -10 3775.15 818.054   2
   5   9 -10 2834.68 761.110   3
  -5  14 -10 3259.80 660.831   3
  -9  -5 -10 2827.12 875.108   3
   9 -14 -10 3334.43 774.342   1
 -14   5 -10 3314.97 797.737   3
   9 -14 -10 4160.24 1138.85   3
  -9  -5  -7 11622.6 1133.00   3
   9 -14  -7 12767.2 884.940   4
   9 -14  -7 12948.9 1089.47   1
  -5  14  -7 12726.0 920.426   4
   5   9  -7 12881.4 699.119   4
   5   9  -7 12250.4 1219.95   1
  14  -9  -7 12405.5 1177.81   1
  -5  14  -7 12294.5 1101.47   2
  -5  14  -7 12710.4 862.945   3
 -14   5  -7 13825.6 1115.84   3
   5   9  -7 12188.0 923.156   2
   9 -14  -7 8525.33 660.721   2
   5   9  -4 7124.62 449.257   3
   9 -14  -4 6943.80 710.779   4
  -5  14  -4 8352.46 795.818   2
  -5  14  -4 7495.10 716.859   4
   9 -14  -4 7298.81 555.949   2
  -5  14  -4 8052.49 420.602   3
   5   9  -4 7278.09 657.347   4
   9 -14  -4 7493.04 757.278   1
   5   9  -4 6403.42 636.002   2
  -9  -5  -4 6211.02 695.484   3
  14  -9  -4 5330.15 741.440   1
 -14   5  -4 6623.14 699.996   3
  14  -9  -1 65870.7 1816.67   1
 -14   5  -1 62651.1 1763.53   2
   9 -14  -1 64579.0 1720.73   1
   9 -14  -1 67449.2 1798.44   2
  -5  14  -1 64938.4 1851.94   2
   5   9  -1 64522.7 1903.09   4
   9 -14  -1 65235.1 1310.46   3
  -9  -5  -1 61517.1 1889.99   4
   9 -14  -1 64986.8 1894.40   4
   5   9  -1 61337.8 1683.75   2
  -5  14  -1 64300.1 1943.78   4
 -14   5  -1 66675.1 1588.48   1
  -9  -5  -1 63939.0 1746.30   2
  -5  14  -1 64672.1 1698.62   1
  -9  -5  -1 65300.7 1471.18   3
 -14   5  -1 64650.8 1591.20   3
   5   9  -1 64283.8 1152.23   3
  14  -9  -1 62322.5 1493.27   3
   5   9   2 30717.4 1325.27   2
  -9  -5   2 34129.6 1042.08   3
   9 -14   2 32767.4 1170.33   1
  -5  14   2 31662.1 1326.16   1
 -14   5   2 32592.7 1243.61   3
  -5  14   2 34414.8 1430.18   4
 -14   5   2 30557.0 1421.06   1
  -9  -5   2 33148.3 1170.89   2
  -9  -5   2 33043.3 1299.41   4
   5   9   2 31630.9 1433.65   4
   5   9   2 31938.1 1232.86   3
   5   9   2 32238.1 1060.78   1
   9 -14   2 33529.3 890.388   3
  -5  14   2 33398.7 1220.25   2
  14  -9   2 33095.4 958.070   1
  14  -9   2 30159.2 1190.23   3
 -14   5   2 32831.4 881.161   2
   5   9   5 17744.9 1196.65   2
   5   9   5 18708.2 1184.83   4
   5   9   5 20564.4 964.805   1
  -9  -5   5 16827.9 849.491   4
  -5  14   5 20449.1 1163.00   4
 -14   5   5 18764.6 858.208   4
  -9  -5   5 18993.1 968.107   2
   9 -14   5 17949.0 996.187   3
  -5  14   5 20253.0 1047.02   2
  -5  14   8 9007.75 795.488   4
   5   9   8 9784.06 923.630   4
   5   9   8 6871.25 745.271   1
   8 -14 -11 3297.51 795.864   1
  -6  14 -11 4177.43 875.969   1
   6   8 -11 5245.25 998.259   3
   8 -14 -11 4536.55 1205.97   3
   6   8 -11 4564.93 1008.97   1
  -8  -6 -11 6982.04 1203.90   3
  -6  14 -11 3275.51 858.392   2
 -14   6 -11 4587.97 928.517   3
  -6  14 -11 4706.68 804.346   3
  14  -8 -11 6017.40 1085.41   1
  -6  14  -8 4408.23 725.484   1
  14  -8  -8 3731.09 773.974   1
  -6  14  -8 4090.20 812.505   2
  -8  -6  -8 2262.46 668.212   3
  -6  14  -8 4894.74 612.341   4
   6   8  -8 4642.53 616.269   2
   6   8  -8 3735.99 311.397   4
   6   8  -8 4897.99 880.877   1
  -6  14  -8 4136.09 585.629   3
  -8  -6  -8 3795.17 332.774   1
 -14   6  -8 3423.96 710.205   3
   8 -14  -8 3162.75 699.925   1
   6   8  -5 17257.1 1259.43   1
   6   8  -5 17339.7 800.055   3
   6   8  -5 17862.4 963.132   2
   8 -14  -5 18393.5 1076.78   4
  -6  14  -5 17324.4 1016.62   4
  -6  14  -5 15501.6 1144.89   2
  -6  14  -5 17138.2 770.109   3
   8 -14  -5 15832.1 1070.88   1
  -8  -6  -5 17304.8 1151.85   3
   6   8  -5 17855.2 905.773   4
  14  -8  -5 18440.2 1271.32   1
 -14   6  -5 17774.9 1094.45   3
   8 -14  -5 16975.7 857.656   2
  14  -8  -2 3192.70 415.267   3
  -6  14  -2 3954.22 203.222   3
  -6  14  -2 4339.20 549.419   4
 -14   6  -2 4542.35 513.223   3
   8 -14  -2 4285.44 588.618   4
   8 -14  -2 3997.67 440.637   3
   6   8  -2 3925.67 534.773   4
 -14   6  -2 4299.00 409.836   1
  -6  14  -2 4087.31 562.997   2
   6   8  -2 4489.16 351.388   3
   8 -14  -2 3588.69 452.777   2
   6   8  -2 3970.42 510.513   2
  -8  -6  -2 4277.54 515.941   2
  -8  -6  -2 4177.33 582.197   4
  14  -8  -2 4175.55 600.026   1
  -8  -6  -2 4253.94 495.929   3
   8 -14  -2 3101.34 492.680   1
  -6  14  -2 4131.18 487.130   1
  -8  -6   1 45203.8 1099.28   3
 -14   6   1 49973.6 1460.48   3
 -14   6   1 46669.1 1623.51   1
   6   8   1 48682.6 1561.12   2
   8 -14   1 48602.9 1641.64   4
   8 -14   1 48395.8 901.832   3
   8 -14   1 49918.0 1706.71   2
  -6  14   1 48927.2 1688.98   4
  -6  14   1 48664.4 1553.19   1
  -8  -6   1 47421.1 1577.66   4
   6   8   1 49131.5 1708.51   4
  14  -8   1 44991.5 1355.26   3
  14  -8   1 48486.0 1250.25   1
  -8  -6   1 47067.6 1401.69   2
  -6  14   1 49713.8 1485.75   2
   6   8   1 47748.5 1320.50   3
   8 -14   1 47083.9 1409.85   1
 -14   6   1 47448.3 1244.90   2
  -8  -6   4 10351.6 737.528   2
  -8  -6   4 11310.3 737.839   4
   8 -14   4 9723.33 657.209   3
  -6  14   4 10458.4 827.131   4
   6   8   4 12426.0 683.127   1
  -6  14   4 10873.2 715.169   2
   6   8   4 11297.8 925.676   4
   6   8   4 10873.1 911.738   2
  -6  14   7 8338.71 745.982   2
  -8  -6   7 6187.63 433.930   4
 -14   6   7 5090.29 347.904   4
 -14   6   7 6126.93 397.072   4
   6   8   7 6568.21 631.645   1
  -6  14   7 8817.74 763.040   4
   6   8   7 9323.81 879.723   4
  -7  -7  -9 4751.46 409.877   1
  14  -7  -9 5521.66 939.970   1
  -7  14  -9 6119.99 942.889   2
  -7  14  -9 4762.84 774.741   1
   7 -14  -9 5644.73 818.237   1
  -7  14  -9 5049.09 648.595   4
   7 -14  -9 5567.73 1086.91   3
   7   7  -9 5235.67 624.838   2
 -14   7  -9 5402.40 891.596   3
   7   7  -9 4917.05 940.627   1
  -7  14  -9 4660.79 664.332   3
  -7  -7  -9 3809.44 835.395   3
  -7  14  -6 801.417 444.954   2
  14  -7  -6 724.765 506.887   1
  -7  14  -6 507.966 298.685   3
   7 -14  -6 63.9758 301.003   4
  -7  14  -6 596.752 352.197   4
   7   7  -6 1621.94 587.420   1
   7   7  -6 258.540 246.546   2
   7 -14  -6 323.077 287.084   2
   7   7  -6 569.509 237.068   4
   7 -14  -6 348.126 374.683   1
  -7  -7  -6 624.763 473.345   3
 -14   7  -6 755.171 416.197   3
   7 -14  -3 40323.4 1481.23   1
   7 -14  -3 38440.8 1505.38   4
  -7  14  -3 39030.7 1504.52   4
   7 -14  -3 40795.6 1331.55   2
  -7  14  -3 42173.3 1681.37   2
   7   7  -3 41039.1 1437.18   4
   7   7  -3 40017.2 1313.38   2
  14  -7  -3 39792.5 1637.12   1
  -7  14  -3 41268.9 1360.53   1
  -7  -7  -3 40251.7 1425.83   3
 -14   7  -3 41162.6 1368.17   3
  -7  14  -3 40859.1 792.321   3
 -14   7  -3 41885.4 990.554   1
   7   7  -3 40502.7 1024.99   3
   7 -14   0 136.227 286.698   4
 -14   7   0 368.262 264.235   3
   7 -14   0 515.565 154.938   3
  14  -7   0 246.021 309.750   1
   7   7   0 528.863 303.649   2
  -7  14   0 252.676 310.360   4
  -7  -7   0 105.869 266.089   4
   7   7   0 249.923 330.550   4
  -7  14   0 190.975 281.194   2
   7 -14   0 99.0701 279.526   1
   7 -14   0 50.1604 277.937   2
   7   7   0 699.973 270.264   3
  -7  -7   0 592.259 289.990   2
  -7  -7   0 660.737 246.855   3
 -14   7   0 751.796 334.316   1
  -7  14   0 228.080 290.012   1
  14  -7   0 292.759 241.566   3
   7   7   3 44737.6 1125.77   1
  -7  14   3 41752.7 1574.58   4
   7   7   3 39984.9 1553.07   3
  -7  -7   3 41542.3 1381.59   2
 -14   7   3 35181.8 715.539   2
   7   7   3 44591.6 1711.82   4
  14  -7   3 42053.2 845.066   1
 -14   7   3 35821.6 633.872   2
  -7  14   3 39915.3 1239.63   2
   7 -14   3 44895.8 1036.76   3
   7 -14   3 41848.6 1542.98   4
  -7  -7   3 39930.2 1385.59   4
   7   7   3 43770.0 1665.20   2
  -7  14   6 541.302 315.981   2
 -14   7   6 661.453 229.939   4
   7   7   6 529.294 393.723   2
  -7  14   6 469.986 379.880   4
  -7  -7   6 941.852 282.449   4
   7   7   6-45.9091 349.539   4
 -14   7   6 543.309 247.079   4
   7   7   6 581.804 289.412   1
  -7  14   9 4819.61 582.172   4
  14  -6 -10 661.071 659.963   1
   6 -14 -10-558.586 556.160   1
  -8  14 -10 306.608 569.866   2
  -8  14 -10 871.244 412.461   4
  -8  14 -10 756.696 610.814   1
   8   6 -10 1254.72 442.597   2
 -14   8 -10 2023.64 728.821   3
   6 -14 -10 1052.81 880.957   3
   8   6 -10 1738.88 750.619   1
  -6  -8 -10 1542.11 714.069   3
  -8  14 -10 1519.47 577.417   3
  -6  -8  -7 9345.49 589.432   1
   8   6  -7 7750.37 1069.30   1
  -8  14  -7 8419.33 993.407   2
  -6  -8  -7 9003.66 1010.82   3
  -8  14  -7 7996.92 766.457   4
   8   6  -7 9259.42 712.511   2
  14  -6  -7 7222.24 943.113   1
   8   6  -7 8325.18 471.714   4
   6 -14  -7 8555.99 885.261   1
 -14   8  -7 8684.75 905.487   3
  -8  14  -7 8040.01 709.331   3
  -8  14  -4 10008.2 706.255   1
  -8  14  -4 10673.8 558.274   3
  -8  14  -4 10434.6 940.007   2
   8   6  -4 11124.8 686.112   2
  -8  14  -4 10571.7 840.634   4
 -14   8  -4 10091.2 758.302   3
 -14   8  -4 10773.2 477.690   1
  14  -6  -4 10905.2 968.526   1
   6 -14  -4 11238.3 874.266   4
   8   6  -4 10148.4 704.355   4
  -6  -8  -4 11980.1 898.071   3
   6 -14  -4 11179.9 742.813   2
   6 -14  -4 11135.1 847.992   1
   8   6  -4 10745.0 624.279   3
   8   6  -4 10998.3 994.115   1
   6 -14  -1 48053.5 1481.93   1
  -8  14  -1 49949.8 931.203   3
   8   6  -1 48108.1 1627.73   4
   6 -14  -1 49239.6 1099.98   3
   6 -14  -1 50426.3 1697.88   4
  -8  14  -1 50278.1 1688.13   4
   6 -14  -1 50652.5 1566.64   2
  -6  -8  -1 48900.8 1672.92   4
 -14   8  -1 48958.5 1413.71   1
  -8  14  -1 50137.9 1492.02   1
  -8  14  -1 42575.9 1520.03   2
  -6  -8  -1 49287.4 1536.53   2
   8   6  -1 48594.2 1446.61   2
  14  -6  -1 47295.0 1557.90   1
  -6  -8  -1 46709.2 1185.74   3
   8   6  -1 46362.6 1150.31   3
  14  -6  -1 44196.5 1273.62   3
 -14   8  -1 44228.6 1262.58   3
  -6  -8   2 3779.13 509.075   4
 -14   8   2 3833.83 338.833   2
  -6  -8   2 4269.41 351.816   3
 -14   8   2 2751.04 465.456   3
  14  -6   2 3465.78 326.142   1
   6 -14   2 3731.49 230.086   3
   6 -14   2 3582.93 505.395   4
   6 -14   2 3427.74 557.398   2
  -8  14   2 3340.08 538.357   4
   8   6   2 3346.50 492.514   3
  -6  -8   2 4544.06 513.219   2
  -8  14   2 3792.42 431.139   2
  -8  14   2 4123.31 585.796   1
   8   6   2 4199.93 373.659   1
 -14   8   2 2593.02 568.456   1
   8   6   2 3375.19 535.197   2
   8   6   2 3394.15 592.296   4
  14  -6   2 3033.82 483.581   3
   8   6   5 17965.7 754.545   1
  -6  -8   5 15904.8 1016.26   2
   8   6   5 16120.4 1159.10   2
 -14   8   5 17547.9 848.407   4
  -6  -8   5 17792.2 921.302   4
   8   6   5 17738.2 1140.56   4
  -8  14   5 18322.9 893.117   2
  -8  14   5 17697.3 1029.91   4
  -8  14   8 4489.01 560.323   4
   8   6   8 4049.93 472.785   1
  -9  14 -11 6458.52 1050.00   1
  14  -5 -11 6065.94 1111.38   1
  -9  14 -11 7215.03 1165.05   2
 -14   9 -11 9488.94 1171.19   3
   9   5 -11 8600.14 1327.73   1
   5 -14 -11 9110.31 1055.83   1
   5 -14 -11 8707.36 1439.88   3
  -5  -9 -11 8760.31 1355.36   3
  -9  14 -11 8015.58 979.456   3
   9   5  -8 9466.36 715.312   2
  -9  14  -8 9775.75 969.570   1
  -9  14  -8 9279.60 1081.22   2
  -9  14  -8 10102.0 870.103   4
   9   5  -8 9727.20 1157.97   1
  -9  14  -8 9517.51 846.240   3
   5 -14  -8 7344.97 1064.55   3
   5 -14  -8 10501.1 967.423   1
  -5  -9  -8 9615.99 651.308   1
  14  -5  -8 9991.39 1145.86   1
  -5  -9  -8 8430.82 1043.73   3
 -14   9  -8 10287.4 1025.88   3
  -9  14  -5 20044.2 982.958   1
 -14   9  -5 18680.8 615.014   1
   9   5  -5 21592.5 1435.78   1
  -9  14  -5 20580.0 893.867   3
  -9  14  -5 18719.7 1112.21   4
   9   5  -5 20784.8 908.521   4
  -5  -9  -5 21095.2 1271.41   3
  -9  14  -5 21578.0 1367.14   2
   9   5  -5 18954.8 877.410   2
   5 -14  -5 20580.7 1041.53   2
  -5  -9  -5 21558.5 876.781   1
  14  -5  -5 19348.0 1342.12   1
   5 -14  -5 20299.3 1122.82   1
 -14   9  -5 22625.3 1156.73   3
   5 -14  -2 37708.8 1488.95   4
  -9  14  -2 33553.8 1215.52   1
   9   5  -2 37863.3 1540.21   1
  -5  -9  -2 33261.5 1469.25   4
  -9  14  -2 36460.0 1514.17   2
   5 -14  -2 36124.5 1341.79   2
   9   5  -2 35815.6 1024.00   3
  14  -5  -2 35271.4 1487.53   1
  -5  -9  -2 32978.0 1305.29   2
   9   5  -2 33460.5 1150.32   2
  -5  -9  -2 36362.7 1185.76   3
   9   5  -2 33744.2 1345.25   4
  -9  14  -2 35191.7 1448.93   4
 -14   9  -2 37279.3 1163.63   1
   5 -14  -2 37963.6 1347.74   1
 -14   9  -2 34759.9 1150.01   3
  -9  14  -2 37091.5 838.867   3
  14  -5  -2 34932.5 1169.44   3
 -14   9   1 70574.8 1740.96   3
   5 -14   1 67433.4 2015.74   2
   5 -14   1 69783.0 1964.33   4
   9   5   1 64729.7 1837.74   2
  -9  14   1 67340.1 1936.71   4
  -5  -9   1 66715.2 1889.71   4
 -14   9   1 66487.4 1944.72   1
  14  -5   1 65255.4 1665.42   3
  -9  14   1 67498.2 1865.00   1
   9   5   1 67980.8 2046.50   4
  -5  -9   1 64498.8 1775.04   2
   9   5   1 63584.6 1585.35   3
  14  -5   1 68118.9 1526.97   1
  -9  14   1 67130.4 1692.72   2
  -5  -9   1 59630.0 1071.59   3
   9   5   4 7303.54 800.207   2
 -14   9   4 8256.03 642.511   4
  -5  -9   4 8430.50 671.828   4
   9   5   4 8340.26 474.556   1
  -5  -9   4 6700.83 681.787   2
   9   5   4 8617.23 822.033   4
  -9  14   4 7858.31 560.158   2
   5 -14   4 7705.46 692.822   4
  -9  14   4 6907.82 676.297   4
  -9  14   7 12559.2 817.265   2
  -5  -9   7 10808.8 647.251   4
  -9  14   7 10774.9 805.862   4
   9   5   7 10874.5 563.701   1
   9   5   7 10421.7 974.217   4
 -14   9   7 11533.6 610.958   4
 -10  14  -9 8919.53 1145.47   2
   4 -14  -9 8051.70 1192.65   3
 -10  14  -9 7560.12 804.553   4
  10   4  -9 8615.18 672.250   2
 -10  14  -9 8864.98 911.251   3
  10   4  -9 9467.05 1252.42   1
   4 -14  -9 9256.47 957.756   1
 -14  10  -9 8649.02 970.941   3
  -4 -10  -9 7796.38 654.223   1
 -10  14  -9 7152.06 840.584   1
  14  -4  -9 5094.01 968.881   1
  -4 -10  -9 9189.20 1200.79   3
 -14  10  -6-66.4381 151.939   1
 -10  14  -6 198.297 282.880   4
  10   4  -6 129.773 451.581   1
  -4 -10  -6 18.7721 220.670   1
  10   4  -6-116.741 214.560   2
   4 -14  -6-397.439 538.937   3
   4 -14  -6 490.722 355.884   1
  -4 -10  -6-958.790 510.054   3
 -10  14  -6-80.1762 411.544   2
 -10  14  -6-254.888 282.390   3
 -14  10  -6 240.721 358.979   3
  14  -4  -6 104.608 518.630   1
 -14  10  -3 6249.23 474.663   1
 -10  14  -3 5806.79 551.796   1
  10   4  -3 5449.20 704.350   1
   4 -14  -3 5340.92 638.249   4
   4 -14  -3 4970.81 561.263   2
  14  -4  -3 5952.56 733.574   1
   4 -14  -3 5972.04 603.414   1
  10   4  -3 5632.41 560.578   4
 -10  14  -3 5373.79 700.922   2
  10   4  -3 5230.72 480.099   2
  -4 -10  -3 5807.89 614.430   3
 -10  14  -3 6842.73 710.344   4
  10   4  -3 5205.22 458.535   3
 -10  14  -3 6416.95 422.253   3
 -14  10  -3 5517.66 535.903   3
 -14  10   0 2995.21 401.353   3
   4 -14   0 3190.69 463.013   1
  -4 -10   0 2821.44 478.897   4
   4 -14   0 3677.42 228.890   3
 -10  14   0 3597.47 373.743   3
   4 -14   0 3878.93 539.308   4
   4 -14   0 3104.18 456.318   2
 -10  14   0 3166.11 482.490   2
 -10  14   0 3027.33 498.532   1
  10   4   0 3427.87 465.976   2
 -10  14   0 3848.93 552.244   4
  -4 -10   0 3054.61 478.262   2
  14  -4   0 3347.22 477.399   1
 -14  10   0 4080.58 524.953   1
  10   4   0 2772.63 395.071   3
  -4 -10   0 3618.95 303.746   3
  14  -4   0 3278.16 458.497   3
  10   4   0 3273.75 549.944   4
  10   4   3 20459.0 1188.22   2
   4 -14   3 20141.5 1091.10   4
  14  -4   3 16072.5 460.498   1
 -14  10   3 19543.0 1001.75   4
 -10  14   3 18423.6 802.808   2
  -4 -10   3 19443.9 1065.05   2
  -4 -10   3 19271.4 1020.70   4
 -10  14   3 18109.0 1048.20   4
  10   4   3 19946.2 1175.52   4
 -14  10   3 17206.1 553.512   2
  10   4   3 19311.6 641.749   1
 -14  10   6 429.552 256.509   4
 -10  14   6 1076.46 294.527   2
  -4 -10   6 439.838 262.131   4
 -10  14   6 527.877 292.689   4
  10   4   6 652.848 382.689   4
  10   4   6 388.439 139.192   1
 -10  14   9 5980.06 565.944   4
 -11  14 -10 3314.94 613.676   4
 -11  14 -10 4780.70 981.767   2
  11   3 -10 5717.92 1100.83   1
 -14  11 -10 3617.59 640.776   4
  -3 -11 -10 3491.99 524.876   1
  14  -3 -10 5116.02 952.053   1
 -11  14 -10 4206.16 773.066   1
   3 -14 -10 3212.54 675.673   1
   3 -14 -10 4292.72 1121.33   3
  -3 -11 -10 5961.36 1066.47   3
 -11  14 -10 5737.89 842.688   3
 -14  11 -10 4299.28 824.271   3
  11   3  -7 5326.00 903.257   1
 -11  14  -7 6066.36 724.514   4
   3 -14  -7 6879.10 979.835   3
  11   3  -7 5176.51 467.994   2
  -3 -11  -7 6303.00 588.563   1
  14  -3  -7 5139.18 896.726   1
 -11  14  -7 5043.43 843.001   2
  -3 -11  -7 5043.95 824.614   3
 -14  11  -7 6145.21 569.020   1
 -14  11  -7 4662.46 408.887   1
 -11  14  -7 6622.51 698.999   3
 -14  11  -7 5225.21 690.477   3
   3 -14  -7 4581.34 623.134   1
  11   3  -4 2179.31 361.455   3
 -11  14  -4 2607.02 402.798   1
 -11  14  -4 2369.05 626.425   2
 -14  11  -4 2777.34 341.421   1
   3 -14  -4 2302.91 451.248   1
  11   3  -4 2427.47 635.949   1
 -11  14  -4 2357.43 375.031   3
  14  -3  -4 3251.32 630.272   1
 -11  14  -4 2746.82 505.632   4
  11   3  -4 2233.03 324.394   2
  -3 -11  -4 2187.50 364.363   1
  11   3  -4 2707.38 406.034   4
 -14  11  -4 2634.37 434.012   3
  -3 -11  -4 3346.24 584.613   3
   3 -14  -4 2466.22 520.238   3
 -11  14  -1 2562.81 327.629   3
 -11  14  -1 2619.93 493.716   2
 -11  14  -1 2097.91 410.563   1
 -11  14  -1 1327.28 437.344   4
   3 -14  -1 2519.09 447.687   2
  11   3  -1 2146.63 506.252   1
  -3 -11  -1 1582.66 417.627   4
   3 -14  -1 1619.28 358.407   1
  -3 -11  -1 1486.91 256.024   3
  14  -3  -1 2854.65 515.251   1
 -14  11  -1 1651.10 364.571   1
   3 -14  -1 2185.26 468.335   4
  11   3  -1 2332.96 464.557   4
   3 -14  -1 1676.09 290.638   3
  -3 -11  -1 1924.42 403.669   2
  11   3  -1 1985.30 333.944   3
  11   3  -1 2528.27 401.352   2
  14  -3  -1 2010.50 362.871   3
 -14  11  -1 2067.56 353.122   3
  11   3   2 4282.38 584.456   2
  -3 -11   2 3830.56 512.395   2
 -14  11   2 3431.03 495.268   3
  -3 -11   2 3612.88 502.360   4
 -11  14   2 3170.12 408.431   2
 -14  11   2 3613.25 382.186   2
 -11  14   2 5022.82 596.310   4
  11   3   2 3351.82 568.459   4
  14  -3   2 3930.04 361.330   1
  11   3   2 3568.77 518.153   3
 -14  11   2 3392.42 503.370   4
   3 -14   2 4751.55 567.945   4
  -3 -11   5 3672.55 496.470   4
  11   3   5 2412.40 195.675   1
   3 -14   5 2676.37 445.828   4
 -11  14   5 4930.06 436.181   2
  11   3   5 4135.74 639.596   4
 -11  14   5 4232.24 541.499   4
 -14  11   5 3792.79 471.351   4
 -11  14   8 2786.39 438.989   4
 -14  11   8 2283.80 308.759   4
 -12  14 -11 11552.9 1196.56   3
 -14  12 -11 10198.4 1426.58   2
 -12  14 -11 9094.00 1314.11   2
  12   2 -11 8577.10 1299.95   1
   2 -14 -11 13245.5 1676.94   3
  -2 -12 -11 11921.5 1497.11   3
  14  -2 -11 11699.5 1458.90   1
 -14  12 -11 10611.4 1146.02   3
   2 -14 -11 9539.70 972.321   1
 -14  12  -8 7296.29 665.516   1
 -14  12  -8 7397.01 862.532   4
 -12  14  -8 7413.67 1049.07   2
 -12  14  -8 8626.27 845.188   1
  12   2  -8 8292.53 524.763   2
  -2 -12  -8 9841.22 773.432   1
  -2 -12  -8 8551.74 1121.55   3
 -14  12  -8 9542.31 939.924   3
  14  -2  -8 6369.15 1044.78   1
 -12  14  -8 10356.2 930.422   3
   2 -14  -8 9897.40 1212.40   3
  12   2  -8 7607.12 1086.30   1
 -12  14  -8 7303.15 818.788   4
   2 -14  -8 10432.7 910.128   1
  14  -2  -5 32806.0 1766.00   1
 -12  14  -5 36093.2 1273.65   3
 -12  14  -5 34364.0 1792.34   2
  14  -2  -5 29689.2 649.236   2
 -12  14  -5 35640.8 1233.55   1
  12   2  -5 32800.4 1767.81   1
 -14  12  -5 33404.0 1076.06   1
 -12  14  -5 30703.5 1444.99   4
   2 -14  -5 31647.6 1331.07   1
   2 -14  -5 33579.1 1605.47   3
  -2 -12  -5 34178.3 1597.81   3
  12   2  -5 33833.1 1005.04   2
 -14  12  -5 35070.1 1359.02   3
  -2 -12  -5 33497.9 1239.51   1
  14  -2  -2 26106.3 935.112   2
 -14  12  -2 28619.6 1109.98   1
   2 -14  -2 27655.3 1157.29   1
  12   2  -2 29317.3 1413.97   1
  14  -2  -2 28308.7 1392.49   1
 -12  14  -2 25157.8 1315.97   2
   2 -14  -2 26040.3 1222.01   2
 -12  14  -2 27954.1 1330.01   4
  12   2  -2 25777.8 1183.45   4
  12   2  -2 25626.4 1002.32   2
 -12  14  -2 27110.2 1140.17   1
 -14  12  -2 27285.3 999.474   3
   2 -14  -2 25732.4 1041.92   3
  -2 -12  -2 27577.4 1053.10   3
  12   2  -2 23913.0 953.168   3
 -12  14  -2 26838.9 878.882   3
  -2 -12   1 22882.6 487.312   3
  12   2   1 24124.9 1044.34   1
 -12  14   1 21611.1 1193.68   1
 -14  12   1 25536.8 1062.81   3
  12   2   1 20737.8 1157.82   4
 -12  14   1 21330.9 1138.75   4
  -2 -12   1 23617.4 1159.14   2
 -12  14   1 23283.5 1030.25   2
  14  -2   1 22208.4 942.429   1
   2 -14   1 23452.4 1195.97   4
 -14  12   1 22072.0 1157.31   4
  -2 -12   1 22293.4 1157.08   4
  12   2   1 19054.2 949.989   3
  14  -2   1 19341.1 998.917   3
 -14  12   1 23656.2 1244.46   1
 -14  12   1 23773.6 1040.58   2
  12   2   1 22480.3 1126.15   2
 -12  14   4 9762.07 537.010   2
 -14  12   4 9004.78 727.765   4
  12   2   4 7819.59 320.916   1
 -12  14   4 8545.24 747.287   4
  12   2   4 8201.08 385.803   1
   2 -14   4 9802.85 802.306   4
 -14  12   4 7840.74 371.904   2
  12   2   4 9150.46 856.001   4
  -2 -12   4 9606.26 762.044   4
  -2 -12   7 15079.1 883.915   4
 -14  12   7 15202.8 827.820   4
 -12  14   7 15407.7 914.247   4
 -13  14  -9 2218.56 570.650   4
 -13  14  -9 3210.08 687.078   3
 -13  14  -9 3289.61 665.621   1
 -13  14  -9 2706.25 801.391   2
  -1 -13  -9 2396.27 783.065   3
  14  -1  -9 2791.61 801.356   1
 -14  13  -9 2389.60 523.674   1
 -14  13  -9 4273.59 740.726   3
  13   1  -9 2810.63 791.651   1
 -14  13  -9 1943.22 517.044   4
  -1 -13  -9 3989.32 593.299   1
   1 -14  -9 2519.44 564.036   1
   1 -14  -9 1587.99 750.706   3
  -1 -13  -6 483.944 347.750   1
  14  -1  -6 321.405 125.326   2
  13   1  -6 434.342 205.162   2
 -14  13  -6 205.771 353.358   4
 -13  14  -6 938.855 517.265   2
   1 -14  -6 830.343 394.106   1
 -13  14  -6 547.655 287.585   1
 -14  13  -6 892.004 296.503   1
 -13  14  -6 453.873 376.968   4
  13   1  -6 596.856 653.500   1
   1 -14  -6 1411.34 558.724   3
  -1 -13  -6 875.576 549.318   3
  14  -1  -6 332.393 559.919   1
 -13  14  -6 413.017 351.540   3
 -14  13  -6 805.577 413.940   3
 -13  14  -3 4501.42 595.304   4
   1 -14  -3 4655.13 541.551   1
 -13  14  -3 5177.72 732.696   2
  -1 -13  -3 4143.45 524.058   1
  13   1  -3 3603.07 607.654   1
 -14  13  -3 4192.45 472.141   1
  13   1  -3 5173.60 455.174   2
  14  -1  -3 4435.86 733.282   1
  -1 -13  -3 4088.26 523.159   3
 -13  14  -3 3806.32 404.280   3
 -13  14  -3 4625.90 519.174   1
   1 -14  -3 3875.04 524.461   3
 -14  13  -3 3798.24 446.095   3
  14  -1  -3 4031.14 381.465   2
  13   1   0 4174.67 560.131   1
  14  -1   0 3469.68 528.799   1
 -14  13   0 3023.81 417.080   3
  14  -1   0 3060.91 447.905   2
 -14  13   0 3163.47 565.985   4
 -13  14   0 3626.03 416.188   3
 -13  14   0 3026.39 520.653   1
 -14  13   0 3413.96 543.398   1
  13   1   0 3380.20 564.123   4
   1 -14   0 3089.64 216.620   3
 -13  14   0 2284.10 497.162   4
 -13  14   0 3198.47 486.996   2
  -1 -13   0 3213.62 244.482   3
  13   1   0 3141.90 444.772   3
  14  -1   0 2768.02 410.415   3
 -14  13   0 2924.81 484.535   2
  13   1   0 3084.98 470.515   2
  -1 -13   3 7501.98 716.239   4
 -13  14   3 8673.90 780.937   4
   1 -14   3 8750.37 767.498   4
 -14  13   3 8487.40 493.298   2
 -13  14   3 8203.55 519.146   2
 -14  13   3 8383.13 753.139   4
  14  -1   3 7520.08 399.489   1
  13   1   3 9197.74 492.062   1
 -13  14   6 384.677 170.156   2
  -1 -13   6 736.057 348.340   4
 -13  14   6 465.588 293.401   4
   1 -14   6 359.133 312.163   4
 -14  13   6 753.407 354.044   4
 -13  14   9 3483.37 430.422   4
   0 -14 -10 1618.89 497.782   1
 -14  14 -10 2155.43 823.223   2
 -14  14 -10 2726.48 663.319   3
  14   0 -10 1348.75 784.021   1
 -14  14 -10 2546.55 635.905   4
 -14  14  -7-234.106 342.756   4
   0 -14  -7 716.629 568.407   3
   0 -14  -7 344.529 339.223   1
  14   0  -7-184.427 567.634   1
 -14  14  -7 175.383 253.312   1
 -14  14  -7-316.921 386.415   3
  14   0  -7-56.1028 116.865   2
   0 -14  -4 2798.45 436.554   1
 -14  14  -4 1634.15 384.062   3
 -14  14  -4 1591.34 363.483   1
  14   0  -4 2223.45 598.447   1
   0 -14  -4 2155.60 522.691   3
  14   0  -4 2041.50 289.227   2
 -14  14  -4 631.996 369.538   4
 -14  14  -1 40.4848 205.255   3
  14   0  -1-21.9602 270.593   2
  14   0  -1 121.302 371.743   1
 -14  14  -1 188.948 310.240   4
   0 -14  -1 73.8923 203.859   3
 -14  14  -1-85.1168 373.074   2
 -14  14  -1 353.927 310.006   1
  14   0  -1 70.4550 241.024   3
 -14  14   2 564.436 321.194   4
 -14  14   2-43.9493 200.282   2
  14   0   2 146.867 220.225   1
   0 -14   5-219.777 335.593   4
 -14  14   5 172.445 273.593   4
 -14  14   5 83.3507 141.591   2
 -14  14   8 281.285 288.440   4
   0  15  -9 36.6369 435.451   3
   0  15  -9 61.7304 635.158   1
   0  15  -9 190.606 421.821   2
   0  15  -9-24.7980 300.312   4
  15 -15  -9 479.265 650.450   1
 -15   0  -9-1155.86 699.868   3
 -15   0  -6 3801.26 705.323   3
   0  15  -6 3095.51 423.929   3
   0  15  -6 3329.21 378.677   3
   0  15  -6 4262.59 609.968   4
   0  15  -6 3474.25 625.409   2
  15 -15  -6 3407.96 699.683   1
   0  15  -3 181.270 403.040   4
  15 -15  -3 206.224 407.099   1
   0  15  -3 220.994 334.954   2
 -15   0  -3 27.0998 323.324   3
   0  15   0 8413.37 834.437   4
   0  15   0 7858.95 737.745   2
 -15   0   0 8265.41 670.226   2
  15 -15   0 8682.09 694.503   1
  15 -15   0 8910.59 605.888   3
 -15   0   0 8808.30 658.745   3
 -15   0   3-323.044 328.877   3
   0  15   3-160.021 326.270   4
 -15   0   3 296.820 297.165   4
 -15   0   3 25.4778 198.545   2
  15 -15   3 102.329 216.455   1
  15 -15   3-7.27328 291.028   3
   0  15   3-148.770 282.201   2
   0  15   6 1161.70 448.179   2
 -15   0   6 1557.06 352.312   4
   0  15   6 1725.34 546.289   4
   0  15   9 288.265 465.289   4
  -1  15 -10 6846.42 1143.82   1
  15 -14 -10 5949.38 1019.66   1
  -1  15 -10 5866.21 915.736   2
  14 -15 -10 6118.15 1019.88   1
   1  14 -10 6356.67 932.602   2
   1  14 -10 5474.33 1074.96   1
 -14  -1 -10 8608.95 1185.33   3
   1  14 -10 7242.68 905.667   3
  -1  15 -10 7093.51 850.184   3
 -15   1 -10 7293.28 1121.27   3
  15 -14  -7 17682.7 1391.34   1
   1  14  -7 15553.9 852.435   3
  -1  15  -7 17549.2 950.792   3
  -1  15  -7 20396.9 1192.17   4
   1  14  -7 19335.1 1127.55   4
   1  14  -7 17019.6 970.845   3
   1  14  -7 19476.9 1322.61   2
 -14  -1  -7 17932.5 1345.36   3
  -1  15  -7 17117.8 1264.64   2
 -15   1  -7 16547.4 1314.65   3
  14 -15  -7 17837.5 1372.37   1
  -1  15  -4 23746.3 473.127   3
  14 -15  -4 23984.9 1368.98   1
  -1  15  -4 26640.3 1382.97   4
  15 -14  -4 23341.3 1381.03   1
  14 -15  -4 23389.0 930.932   2
   1  14  -4 25627.5 1340.32   2
   1  14  -4 26933.4 1371.06   4
  -1  15  -4 23313.5 1319.69   2
   1  14  -4 21997.8 668.301   3
  -1  15  -4 22366.7 541.060   3
 -14  -1  -4 25034.0 1310.31   3
 -15   1  -4 22985.8 1243.61   3
   1  14  -4 25516.8 589.412   3
  -1  15  -1 32600.5 1511.94   4
   1  14  -1 32399.4 1516.34   4
  15 -14  -1 33534.4 1403.94   1
  -1  15  -1 34127.7 1450.94   2
 -15   1  -1 31265.6 1358.51   2
  14 -15  -1 34480.6 1388.09   1
   1  14  -1 30972.8 1361.27   2
 -14  -1  -1 31469.8 1201.76   3
 -15   1  -1 32058.1 1210.95   3
  15 -14  -1 31889.2 1104.23   3
  14 -15  -1 33129.6 1090.15   3
 -14  -1   2 13745.9 850.958   3
 -15   1   2 13210.5 876.746   3
   1  14   2 14689.6 1056.80   4
   1  14   2 12857.6 912.087   2
  14 -15   2 14076.8 793.126   1
  15 -14   2 14490.9 797.052   1
 -14  -1   2 13222.0 929.072   4
  15 -14   2 12608.5 802.262   3
 -15   1   2 12728.6 924.441   4
 -14  -1   2 12743.7 747.085   2
 -15   1   2 12619.4 698.638   2
  -1  15   2 13424.9 898.850   2
  14 -15   2 13056.4 764.346   3
  -1  15   2 14066.7 1032.53   4
 -15   1   5 34985.3 966.795   2
 -14  -1   5 35659.7 1154.69   2
   1  14   5 39141.3 1786.29   4
 -14  -1   5 35517.8 1334.09   4
  -1  15   5 36749.2 1692.80   4
 -15   1   5 33234.7 1301.11   4
   1  14   5 40587.4 1738.58   2
  -1  15   5 39062.7 1675.67   2
  -1  15   8 6755.89 920.186   2
   1  14   8 5832.11 870.833   2
   1  14   8 6465.80 819.157   4
  -1  15   8 7758.47 897.619   4
   2  13 -11 3485.95 948.326   1
  -2  15 -11 1435.22 603.194   3
  -2  15 -11 1532.57 658.059   2
   2  13 -11 1685.38 593.517   2
  15 -13 -11 1620.16 732.436   1
   2  13 -11 743.112 583.304   3
  -2  15 -11 33.9758 713.877   1
  13 -15 -11 1799.13 720.267   1
 -13  -2 -11 1263.67 760.387   3
 -15   2 -11 2084.77 773.125   3
   2  13  -8 2397.96 780.063   1
  -2  15  -8 1912.00 688.084   1
  -2  15  -8 1096.91 442.592   4
  -2  15  -8 1185.35 487.414   2
  15 -13  -8 1569.85 651.238   1
  -2  15  -8 1307.67 430.871   3
   2  13  -8 608.354 440.799   2
   2  13  -8 1631.96 378.217   4
   2  13  -8 1877.82 520.691   3
  13 -15  -8 1792.51 595.433   1
 -13  -2  -8 1459.14 624.354   3
 -15   2  -8 1651.09 575.917   3
   2  13  -5 1352.56 257.704   3
 -13  -2  -5 1602.46 520.901   3
  -2  15  -5 1909.21 279.784   3
  13 -15  -5 1855.82 322.601   2
  15 -13  -5 1980.33 514.993   1
   2  13  -5 1532.11 463.048   2
   2  13  -5 1958.15 465.975   4
  -2  15  -5 1551.90 436.641   4
  13 -15  -5 1564.84 525.856   1
 -15   2  -5 2285.88 524.303   3
  -2  15  -5 2456.51 559.149   2
  -2  15  -2 5899.77 692.852   4
  13 -15  -2 5227.55 510.133   3
  13 -15  -2 5189.49 592.917   1
  -2  15  -2 4951.50 625.742   2
  13 -15  -2 4777.18 514.541   2
  15 -13  -2 5901.93 699.192   1
   2  13  -2 5418.35 701.081   4
   2  13  -2 4937.65 245.412   3
   2  13  -2 5062.33 627.224   2
 -13  -2  -2 5412.50 569.262   3
 -15   2  -2 6345.70 619.230   3
 -13  -2   1 4198.32 478.921   3
 -15   2   1 3582.83 465.590   3
  -2  15   1 3633.98 521.411   2
  15 -13   1 5224.55 554.115   1
 -15   2   1 4213.32 570.027   1
  13 -15   1 3715.33 475.072   1
   2  13   1 2156.34 486.945   4
 -15   2   1 3652.18 545.694   4
 -13  -2   1 3894.97 556.052   4
  13 -15   1 4112.13 417.250   3
   2  13   1 4561.75 558.416   2
   2  13   1 3794.04 483.548   1
  -2  15   1 3046.61 583.019   4
 -15   2   1 3939.79 437.438   2
  15 -13   1 3897.21 464.956   3
 -13  -2   1 4247.57 457.270   2
   2  13   4 187.665 375.425   2
 -13  -2   4-395.279 304.659   4
  -2  15   4 502.604 378.442   4
 -13  -2   4 52.0939 197.108   2
 -15   2   4-127.648 144.039   2
   2  13   4-220.993 336.992   4
 -15   2   4 603.365 324.643   4
  13 -15   4 241.776 344.250   3
   2  13   4-328.083 354.190   1
  -2  15   4 440.974 316.948   2
  -2  15   7 5112.33 740.875   2
   2  13   7 3834.94 722.077   2
  -2  15   7 4071.55 668.073   4
 -13  -2   7 3109.21 346.178   4
 -15   2   7 3054.18 336.335   4
   2  13   7 4499.99 712.283   4
   2  13  10 1248.96 558.418   4
  -2  15  10 789.703 479.188   4
   3  12  -9 2.96236 424.949   2
 -15   3  -9 1158.85 610.509   3
   3  12  -9 820.249 638.818   1
  -3  15  -9 442.585 584.404   1
  -3  15  -9 1486.71 557.311   2
  15 -12  -9 657.241 562.129   1
  -3  15  -9 399.160 322.317   4
   3  12  -9 1701.70 573.345   3
  -3  15  -9 957.672 427.668   3
  12 -15  -9 352.109 513.364   1
 -12  -3  -9 229.797 635.593   3
  12 -15  -6 5230.39 473.008   2
   3  12  -6 5451.34 483.844   3
 -12  -3  -6 5961.44 833.246   3
  -3  15  -6 6365.41 815.127   2
   3  12  -6 6051.89 722.982   2
  12 -15  -6 7200.28 893.461   1
  -3  15  -6 6273.30 698.496   4
   3  12  -6 5826.69 629.820   4
 -15   3  -6 6009.48 802.782   3
  -3  15  -6 6123.28 536.926   3
  15 -12  -6 4841.27 813.557   1
  12 -15  -3 7626.75 600.872   2
  15 -12  -3 9127.68 893.306   1
 -12  -3  -3 7838.31 716.249   3
   3  12  -3 9310.64 383.648   3
   3  12  -3 7860.37 742.656   4
  12 -15  -3 8430.76 786.120   1
   3  12  -3 8255.95 758.677   2
  -3  15  -3 8884.55 836.822   2
  -3  15  -3 8009.25 761.300   4
 -15   3  -3 7420.74 694.337   3
  15 -12   0 1490.12 414.901   1
 -12  -3   0 1295.75 344.103   3
  12 -15   0 975.968 248.968   3
 -15   3   0 1708.65 356.982   2
 -15   3   0 1201.12 335.456   3
  12 -15   0 1272.10 333.255   1
   3  12   0 598.723 278.751   1
 -15   3   0 1576.47 389.378   1
  -3  15   0 1323.17 459.463   4
   3  12   0 1618.04 478.502   4
  15 -12   0 1238.79 308.154   3
   3  12   0 927.605 219.800   3
  -3  15   0 945.758 357.391   2
   3  12   0 1242.73 356.556   2
 -12  -3   0 1168.06 333.565   2
  15 -12   3 2614.92 331.890   1
 -15   3   3 2847.92 520.108   3
 -12  -3   3 1852.53 371.712   3
 -12  -3   3 2522.92 369.007   2
 -12  -3   3 2067.28 416.863   4
  12 -15   3 2419.79 408.515   3
  -3  15   3 1883.75 482.906   4
   3  12   3 2640.58 552.989   4
 -15   3   3 2672.47 446.335   4
 -15   3   3 2312.39 278.596   2
  15 -12   3 2292.11 443.967   3
  -3  15   3 2743.33 468.353   2
   3  12   3 2847.73 441.600   1
   3  12   3 2642.36 487.165   2
   3  12   6 3574.22 655.848   2
  -3  15   6 4520.26 656.559   4
 -15   3   6 3152.55 412.699   4
   3  12   6 4802.44 681.977   4
   3  12   6 2899.47 571.068   1
  -3  15   6 5609.47 677.735   2
 -12  -3   6 4181.30 466.126   4
  -3  15   9 1055.99 452.188   4
   3  12   9 804.085 446.603   4
   4  11 -10 5482.28 774.329   2
  15 -11 -10 6225.49 1077.93   1
  11 -15 -10 5804.74 937.280   1
  -4  15 -10 4352.08 900.181   1
  -4  15 -10 5463.57 900.451   2
   4  11 -10 5057.76 1028.78   1
  -4  15 -10 5312.25 762.124   3
 -11  -4 -10 5089.23 1043.55   3
   4  11 -10 6419.71 934.788   3
 -15   4 -10 4614.36 928.231   3
   4  11  -7 17161.3 916.357   4
  -4  15  -7 17740.2 1091.49   4
  -4  15  -7 13566.2 1169.43   2
  11 -15  -7 17332.5 1283.01   1
  11 -15  -7 13769.0 759.919   2
   4  11  -7 17901.4 1154.62   2
   4  11  -7 18343.3 1482.44   1
  -4  15  -7 16689.6 919.444   3
 -11  -4  -7 18067.5 1380.55   3
 -15   4  -7 16693.2 1254.68   3
  15 -11  -7 17540.2 1392.73   1
   4  11  -4 26589.4 773.902   3
   4  11  -4 26476.4 1242.47   4
  11 -15  -4 25062.2 1010.40   2
   4  11  -4 26413.0 1267.69   2
  -4  15  -4 26368.2 1309.94   4
  -4  15  -4 27500.9 626.136   3
  11 -15  -4 25770.0 1358.37   1
 -15   4  -4 26209.9 1259.65   3
  11 -15  -4 24746.5 1254.49   4
 -11  -4  -4 24479.0 1248.26   3
  -4  15  -4 25368.3 1371.43   2
  15 -11  -4 27447.8 1479.90   1
  11 -15  -1 41074.8 1103.18   3
   4  11  -1 44884.6 1548.79   2
  15 -11  -1 43446.5 1533.28   1
  11 -15  -1 40371.2 1587.76   4
 -15   4  -1 43265.7 1328.92   1
   4  11  -1 41966.1 938.117   3
   4  11  -1 44585.3 1663.51   4
  -4  15  -1 43497.0 1668.04   4
  -4  15  -1 45562.6 1648.41   2
 -11  -4  -1 42059.9 1486.12   2
 -11  -4  -1 36886.5 1199.49   3
 -15   4  -1 43909.1 1375.83   3
  11 -15  -1 43502.9 1487.17   1
  15 -11  -1 41455.2 1262.26   3
 -15   4  -1 40973.4 1478.99   2
  11 -15  -1 46255.6 1541.83   2
  15 -11   2 14231.6 706.416   1
 -11  -4   2 14722.0 788.746   3
 -15   4   2 13873.0 869.172   3
  15 -11   2 13956.5 855.379   3
  -4  15   2 14299.8 1014.44   4
 -11  -4   2 12305.2 751.484   2
 -11  -4   2 13572.7 884.068   4
   4  11   2 14619.8 801.111   1
   4  11   2 14567.6 1030.00   4
  11 -15   2 13509.6 788.925   1
 -15   4   2 14081.1 892.724   4
  -4  15   2 12243.3 827.370   2
   4  11   2 15375.3 889.563   3
 -15   4   2 13630.3 641.305   2
   4  11   2 13340.0 918.209   2
  11 -15   2 15369.9 692.058   3
   4  11   5 38737.7 1429.52   1
 -15   4   5 36554.9 1298.28   4
  11 -15   5 36680.5 1450.22   3
   4  11   5 41854.5 1800.08   4
 -11  -4   5 39120.6 1377.20   2
 -11  -4   5 36854.1 1304.44   4
  -4  15   5 39955.2 1668.83   4
  -4  15   5 41260.0 1563.58   2
   4  11   5 39790.5 1744.10   2
  -4  15   8 3915.08 678.158   2
  -4  15   8 3626.73 618.098   4
   4  11   8 3613.14 647.706   4
   5  10 -11 1655.51 566.408   2
  -5  15 -11 1622.56 699.242   2
  15 -10 -11 1365.40 769.769   1
  -5  15 -11 1776.95 741.720   1
   5  10 -11 1545.23 943.875   1
  10 -15 -11 1127.11 993.313   3
   5  10 -11 1468.22 644.787   3
  -5  15 -11 3773.71 733.573   3
 -10  -5 -11 3295.16 839.558   3
 -15   5 -11 2073.23 805.282   3
  10 -15 -11 2844.70 812.187   1
  -5  15  -8 678.369 381.337   4
   5  10  -8 1058.56 685.593   1
  15 -10  -8 832.312 576.703   1
  -5  15  -8 428.924 461.669   2
 -15   5  -8 712.317 571.735   3
   5  10  -8 1091.32 278.921   4
  -5  15  -8 1152.26 395.991   3
 -10  -5  -8 1239.74 595.336   3
  10 -15  -8 607.064 497.400   1
   5  10  -8 2155.46 493.343   2
   5  10  -5 6499.81 493.239   3
  10 -15  -5 8649.67 840.934   1
  10 -15  -5 7785.58 750.616   4
   5  10  -5 5852.22 607.085   4
   5  10  -5 6838.81 673.836   2
  -5  15  -5 7842.50 749.003   4
 -10  -5  -5 7386.01 850.109   3
  -5  15  -5 8427.33 525.876   3
  15 -10  -5 5473.10 824.978   1
 -15   5  -5 6567.19 758.883   3
  10 -15  -5 6601.64 558.330   2
  -5  15  -5 8610.04 876.182   2
  15 -10  -2 19229.8 1123.19   1
   5  10  -2 18851.4 614.287   3
  -5  15  -2 19485.2 1122.32   4
  10 -15  -2 20676.0 1151.78   4
 -15   5  -2 17643.3 800.743   1
  10 -15  -2 19866.2 981.603   2
  -5  15  -2 17634.3 1057.76   2
   5  10  -2 19197.7 1081.70   4
   5  10  -2 19971.8 1032.09   2
 -15   5  -2 19345.3 1121.89   2
  10 -15  -2 17618.6 1007.76   1
 -10  -5  -2 19369.7 945.329   3
 -15   5  -2 19895.9 967.767   3
  10 -15  -2 18957.9 876.118   3
  10 -15   1 20936.7 975.262   1
 -10  -5   1 19842.7 838.821   3
 -15   5   1 20892.1 984.135   3
 -15   5   1 20401.7 863.242   2
  15 -10   1 21173.4 898.230   1
 -15   5   1 21085.2 1149.97   1
  -5  15   1 19364.8 1157.23   4
   5  10   1 19397.8 1154.95   4
 -10  -5   1 19479.6 1075.76   4
  -5  15   1 18824.5 986.541   2
 -10  -5   1 19077.3 948.053   2
 -15   5   1 19709.0 1074.64   4
   5  10   1 18999.2 869.633   3
   5  10   1 20590.5 1088.46   2
  15 -10   1 20085.9 931.993   3
  10 -15   1 17517.6 1077.59   2
  10 -15   1 20033.0 692.816   3
   5  10   1 22169.1 943.848   1
  10 -15   4 8494.45 636.214   3
   5  10   4 10072.4 892.832   4
  -5  15   4 10497.8 867.202   4
 -10  -5   4 9894.60 704.188   2
  -5  15   4 10345.4 749.779   2
   5  10   4 11670.1 731.706   1
 -15   5   4 9347.69 710.020   4
 -10  -5   4 9690.65 728.060   4
   5  10   4 11180.7 900.551   2
  -5  15   7 6920.84 776.861   2
 -10  -5   7 4555.70 400.496   4
   5  10   7 6184.39 869.779   2
 -15   5   7 4444.16 365.545   4
 -15   5   7 4583.66 381.755   4
  -5  15   7 6941.62 769.914   4
   5  10   7 5458.88 695.288   1
   5  10   7 6470.44 813.539   4
  -5  15  10 2627.96 534.077   4
  -6  15  -9 2720.21 688.186   1
  -6  15  -9 3292.48 770.317   2
   6   9  -9-28.6075 719.366   1
  -6  15  -9 2706.85 516.744   4
   6   9  -9 1959.01 514.206   2
  15  -9  -9 2752.34 786.344   1
  -6  15  -9 2164.14 520.635   3
  -9  -6  -9 2183.03 774.581   3
 -15   6  -9 1929.95 677.535   3
   9 -15  -9 2921.09 693.597   1
   9 -15  -6 7011.13 730.901   4
   6   9  -6 7137.58 609.121   3
   6   9  -6 7131.08 971.541   1
  -6  15  -6 6936.95 740.294   4
   9 -15  -6 6382.56 577.805   2
   6   9  -6 7755.98 724.484   2
   6   9  -6 6612.03 588.753   4
  -6  15  -6 8047.68 946.238   2
  -9  -6  -6 5784.00 807.521   3
  -6  15  -6 7957.27 607.543   3
 -15   6  -6 8005.54 803.678   3
   9 -15  -6 7498.06 834.113   1
  15  -9  -6 6844.60 899.287   1
   9 -15  -3 6019.72 655.010   4
   6   9  -3 4933.05 601.717   4
  15  -9  -3 4885.05 640.936   1
  -6  15  -3 5426.50 662.958   4
   9 -15  -3 5547.86 530.055   2
 -15   6  -3 4697.60 561.017   3
  -6  15  -3 5342.56 667.796   2
 -15   6  -3 5576.58 370.352   1
   6   9  -3 5818.29 589.890   2
  -6  15  -3 5553.13 254.053   3
  -9  -6  -3 5462.98 623.233   3
   9 -15  -3 6524.93 648.199   1
   6   9  -3 6081.28 403.862   3
 -15   6   0 11900.4 737.565   3
 -15   6   0 10437.4 709.539   2
   6   9   0 10479.6 593.499   3
  15  -9   0 11106.2 738.056   1
   9 -15   0 11186.6 842.432   4
   9 -15   0 10165.1 801.129   2
  -6  15   0 11271.2 883.518   4
  -6  15   0 11237.5 816.933   2
 -15   6   0 10936.7 774.462   1
  -6  15   0 10353.3 754.585   1
  -9  -6   0 11366.1 768.562   2
   9 -15   0 11479.7 746.981   1
   6   9   0 12198.9 822.711   2
  -9  -6   0 10747.1 831.005   4
   6   9   0 12339.4 918.853   4
  15  -9   0 9986.10 652.230   3
  -9  -6   0 10145.0 587.157   3
   9 -15   0 10888.3 485.721   3
   6   9   3 10076.0 622.202   1
 -15   6   3 10270.4 816.586   3
  -6  15   3 9087.21 804.674   4
   6   9   3 8688.52 793.536   3
  -9  -6   3 8974.10 672.545   2
  -9  -6   3 9724.26 741.119   4
   6   9   3 11189.1 939.214   4
  -6  15   3 9681.23 682.016   2
 -15   6   3 8939.13 393.126   2
  15  -9   3 10147.7 499.652   1
   6   9   3 8656.69 783.875   2
   9 -15   3 9907.18 552.352   3
   6   9   6 4661.18 694.703   2
   6   9   6 4150.68 534.553   1
  -9  -6   6 4288.06 579.500   2
 -15   6   6 4029.11 424.515   4
  -9  -6   6 3658.58 435.408   4
 -15   6   6 4092.94 441.759   4
  -6  15   6 4374.42 612.255   4
   6   9   6 3828.57 640.904   4
  -6  15   6 4743.15 591.565   2
   6   9   9 501.908 446.458   4
  -6  15   9 1421.44 427.781   4
  -7  15 -10 5817.53 804.548   3
  -8  -7 -10 5570.35 1035.14   3
  15  -8 -10 3762.02 944.267   1
  -7  15 -10 4197.81 842.457   1
   8 -15 -10 5801.40 874.626   1
   7   8 -10 4808.57 674.053   2
   7   8 -10 3373.93 920.811   1
   8 -15 -10 1474.54 884.117   3
 -15   7 -10 4860.03 855.848   3
  -7  15 -10 4643.82 924.333   2
   8 -15  -7 9861.62 973.526   1
   7   8  -7 7598.24 1051.22   1
  -7  15  -7 10336.1 783.758   3
   8 -15  -7 7981.65 699.421   2
   7   8  -7 9879.88 600.047   4
  -7  15  -7 9225.74 1017.67   2
  -8  -7  -7 10797.6 1094.11   3
  -7  15  -7 8011.80 762.470   4
 -15   7  -7 11367.2 1047.28   3
  15  -8  -7 9625.88 1082.49   1
   7   8  -7 8984.99 767.530   2
  -7  15  -4 15356.2 577.210   3
   7   8  -4 15594.3 700.379   3
  15  -8  -4 14862.2 1158.54   1
   8 -15  -4 14355.0 970.687   4
  -7  15  -4 14842.5 1085.33   2
   8 -15  -4 13951.9 823.910   2
  -7  15  -4 15132.4 989.383   4
   7   8  -4 14816.1 911.507   4
   7   8  -4 15079.5 852.685   2
 -15   7  -4 12574.0 416.807   1
   8 -15  -4 15048.5 998.118   1
 -15   7  -4 15915.6 995.826   3
  -8  -7  -4 15094.5 1049.84   3
   8 -15  -1 58243.4 1754.01   2
   8 -15  -1 57675.7 1219.73   3
  -7  15  -1 58484.4 1667.31   1
  -7  15  -1 58483.7 1872.37   4
   7   8  -1 56306.1 1831.04   4
  -7  15  -1 62348.4 1858.16   2
   8 -15  -1 52995.3 1603.74   1
 -15   7  -1 60214.5 1600.20   1
  -8  -7  -1 52897.1 1813.62   4
  -8  -7  -1 55258.5 1663.29   2
   7   8  -1 59496.9 1262.53   3
   7   8  -1 51757.8 1573.82   2
   8 -15  -1 58931.5 1866.94   4
  -8  -7  -1 57471.6 1392.14   3
  15  -8  -1 55677.3 1728.15   1
 -15   7  -1 60530.3 1554.12   3
  15  -8  -1 54035.8 1447.11   3
   7   8   2 7302.26 755.540   4
  -8  -7   2 7612.00 631.787   2
 -15   7   2 7772.05 695.044   3
   7   8   2 6600.08 503.052   1
 -15   7   2 6814.63 810.841   1
  -8  -7   2 8157.15 730.050   4
   7   8   2 6948.72 618.448   3
  -7  15   2 7702.19 616.740   2
 -15   7   2 8054.18 476.802   2
   8 -15   2 8267.59 404.759   3
  15  -8   2 7648.94 491.430   1
   7   8   2 6888.51 690.044   2
  -7  15   2 8724.19 786.885   4
  -8  -7   2 7592.32 502.037   3
   7   8   5 29489.8 1090.46   1
 -15   7   5 25836.7 1100.98   4
  -7  15   5 30097.5 1399.28   4
  -8  -7   5 29495.8 1311.25   2
   7   8   5 30926.6 1534.44   4
  -8  -7   5 28007.0 1153.63   4
  -7  15   5 26671.9 1163.18   2
   7   8   5 29626.7 1562.83   2
  -7  15   8 918.015 353.528   4
   7   8   8 1326.32 486.220   4
   8   7 -11 4051.97 910.697   3
  15  -7 -11 4457.27 995.430   1
  -8  15 -11 4203.88 911.721   2
   7 -15 -11 6323.31 940.091   1
   7 -15 -11 1454.86 966.103   3
  -8  15 -11 4045.59 922.359   1
   8   7 -11 4311.05 1056.55   1
  -8  15 -11 4829.23 786.402   3
  -7  -8 -11 4740.45 1074.72   3
 -15   8 -11 3347.56 867.195   3
 -15   8  -8 1712.25 612.118   3
  15  -7  -8 574.193 604.354   1
   7 -15  -8 1541.04 528.830   1
   8   7  -8 751.061 629.341   1
  -8  15  -8 1527.19 476.514   4
  -8  15  -8 1127.48 609.143   2
  -7  -8  -8 1445.28 304.072   1
  -8  15  -8 1489.95 466.625   3
   8   7  -8 1648.03 393.120   2
  -7  -8  -8 469.765 554.205   3
   8   7  -5 27717.3 1058.86   3
   8   7  -5 28880.3 1630.18   1
  -8  15  -5 30066.6 1390.78   4
  -8  15  -5 28977.3 1604.93   2
   8   7  -5 29669.9 1152.54   4
   8   7  -5 25129.5 1081.90   2
   7 -15  -5 27966.6 1197.02   2
 -15   8  -5 30185.8 1353.91   3
  15  -7  -5 29327.7 1593.09   1
   7 -15  -5 30734.8 1445.85   1
  -7  -8  -5 22872.8 1363.07   3
  -8  15  -5 32147.7 1041.07   3
  -8  15  -2 7535.89 746.235   2
  -8  15  -2 6227.56 320.447   3
  15  -7  -2 6760.04 731.328   1
 -15   8  -2 6194.27 575.558   3
   7 -15  -2 5746.59 646.495   4
  -8  15  -2 6215.62 667.970   4
   7 -15  -2 6358.59 637.256   1
   8   7  -2 6138.40 652.845   4
 -15   8  -2 6685.77 532.371   1
   8   7  -2 6629.80 582.678   2
  -8  15  -2 6594.02 589.186   1
  -7  -8  -2 7304.48 587.412   3
   8   7  -2 6860.84 470.465   3
   7 -15  -2 5882.56 593.692   2
  15  -7   1 56302.7 1419.32   1
 -15   8   1 55945.7 1588.87   3
  -7  -8   1 50946.3 1715.74   4
   7 -15   1 55034.7 1811.18   4
   8   7   1 53156.2 1472.67   3
   8   7   1 55642.4 1907.43   4
  -8  15   1 54184.2 1603.31   2
 -15   8   1 54213.0 1816.50   1
  -7  -8   1 50949.9 1576.01   2
  -8  15   1 54116.5 1736.03   1
   7 -15   1 55538.0 1874.96   2
  -8  15   1 54066.7 1803.15   4
   7 -15   1 55947.3 850.577   3
   8   7   1 53424.4 1718.19   2
  -7  -8   1 48232.8 1111.66   3
  15  -7   1 49657.8 1496.54   3
   7 -15   1 53409.1 1576.31   1
  -8  15   4 14493.2 964.386   4
   8   7   4 16336.1 731.884   1
   8   7   4 13787.8 1042.47   4
  -7  -8   4 14670.2 874.734   4
  -8  15   4 13453.2 784.130   2
   8   7   4 11817.3 977.376   2
  -7  -8   4 12613.8 891.413   2
  -8  15   7 10727.1 820.198   2
  -7  -8   7 8348.62 570.297   4
   8   7   7 10189.0 661.147   1
  -8  15   7 9880.29 841.058   4
   8   7   7 8826.69 901.562   4
 -15   8   7 9336.22 546.239   4
 -15   8   7 8882.16 550.808   4
  15  -6  -9-194.402 514.865   1
   6 -15  -9 1632.60 558.872   1
  -9  15  -9 878.036 428.278   4
  -9  15  -9 1902.80 529.972   3
  -9  15  -9 1523.04 623.305   2
   9   6  -9 1321.34 398.330   2
  -9  15  -9 1320.57 549.736   1
   9   6  -9 910.247 662.480   1
  -6  -9  -9 1207.16 318.949   1
   6 -15  -9 989.925 795.016   3
  -6  -9  -9 302.844 556.985   3
 -15   9  -9 697.412 528.412   3
  15  -6  -6 3060.42 694.605   1
  -6  -9  -6 4223.89 430.953   1
  -9  15  -6 4593.64 769.630   2
   9   6  -6 3878.86 821.107   1
   9   6  -6 3748.73 422.188   4
  -9  15  -6 3386.48 466.913   3
   6 -15  -6 4548.63 682.241   1
  -6  -9  -6 5183.34 807.070   3
  -9  15  -6 4253.67 614.728   4
   9   6  -6 2961.15 437.375   2
 -15   9  -6 2425.55 192.004   1
 -15   9  -6 2772.38 559.379   3
   6 -15  -3 8317.77 706.012   1
 -15   9  -3 7623.42 636.113   3
  -9  15  -3 7968.64 841.440   2
   6 -15  -3 8829.25 715.166   2
  -9  15  -3 8888.76 791.260   4
   9   6  -3 7041.45 807.989   1
  -9  15  -3 10109.3 713.041   1
   9   6  -3 9730.38 759.959   4
  -9  15  -3 9369.25 441.827   3
   9   6  -3 8088.91 613.925   2
  15  -6  -3 9539.04 869.606   1
 -15   9  -3 9412.30 563.974   1
  -6  -9  -3 8977.06 751.084   3
   9   6  -3 8789.77 545.322   3
 -15   9   0 12482.5 747.714   3
   6 -15   0 11715.7 414.970   3
   6 -15   0 12637.3 895.517   4
   9   6   0 12067.1 803.443   2
  -9  15   0 11258.6 908.261   4
   6 -15   0 11118.6 840.277   2
  -9  15   0 11530.7 793.348   2
  15  -6   0 11639.5 724.400   3
  -6  -9   0 10919.4 862.650   4
   6 -15   0 13218.3 826.596   1
   9   6   0 11332.0 905.011   4
  -6  -9   0 10999.9 771.812   2
 -15   9   0 11920.6 853.226   1
  -9  15   0 12094.9 843.785   1
   9   6   0 12469.6 689.056   3
  15  -6   0 11190.5 759.590   1
  -6  -9   0 12022.2 557.215   3
  -6  -9   3 5346.94 585.943   4
 -15   9   3 4812.81 289.018   2
  -9  15   3 3551.29 526.054   4
  -9  15   3 4614.65 462.804   2
  -6  -9   3 4222.30 540.244   2
 -15   9   3 4482.52 300.335   2
   9   6   3 4138.89 372.267   1
  15  -6   3 5170.95 309.381   1
   9   6   3 4163.97 581.347   2
   9   6   3 4580.83 632.063   4
  -6  -9   6 7178.03 608.432   4
 -15   9   6 7774.99 594.877   4
  -9  15   6 7805.74 719.461   4
   9   6   6 7598.28 840.847   4
   9   6   6 7660.86 515.472   1
  -9  15   6 8409.67 688.323   2
  -9  15   9 1920.08 413.016   4
 -10  15 -10 2680.68 772.148   2
  15  -5 -10 2249.19 757.430   1
 -10  15 -10 1828.88 489.981   4
 -10  15 -10 1572.22 656.791   1
   5 -15 -10 2874.94 669.938   1
   5 -15 -10 4629.05 1114.61   3
  10   5 -10 2429.17 988.672   1
  -5 -10 -10 4861.11 1020.36   3
 -10  15 -10 2961.34 659.281   3
 -15  10 -10 3563.31 757.410   3
 -10  15  -7 7274.13 785.812   4
 -15  10  -7 4098.20 335.245   1
  -5 -10  -7 8526.45 611.730   1
  10   5  -7 5935.64 570.283   2
  10   5  -7 4353.77 864.441   1
   5 -15  -7 7111.99 1000.08   3
  15  -5  -7 6114.12 937.461   1
  -5 -10  -7 7316.02 972.364   3
 -10  15  -7 5459.63 847.285   2
   5 -15  -7 7130.19 764.776   1
 -10  15  -7 6689.67 673.975   3
 -15  10  -7 4773.82 311.463   1
 -15  10  -7 6409.82 777.852   3
  10   5  -4 8904.40 605.075   3
 -10  15  -4 9679.63 960.022   2
   5 -15  -4 10845.5 809.157   1
 -10  15  -4 9727.18 825.909   4
   5 -15  -4 9154.48 738.657   2
 -10  15  -4 8033.54 654.742   1
  10   5  -4 9820.83 980.730   1
  10   5  -4 9664.75 699.789   4
  10   5  -4 9464.72 628.004   2
  -5 -10  -4 9424.86 840.439   3
 -10  15  -4 10463.2 575.883   3
 -15  10  -4 10296.0 772.664   3
  15  -5  -4 8433.20 903.210   1
 -15  10  -4 11528.0 586.020   1
   5 -15  -1 21348.2 1038.24   1
 -10  15  -1 19867.3 699.453   3
 -10  15  -1 21788.0 1073.97   1
  10   5  -1 22934.3 1171.91   4
 -10  15  -1 20405.7 1121.41   2
 -10  15  -1 21874.4 1187.01   4
  15  -5  -1 20887.7 1096.10   1
 -15  10  -1 20046.6 996.377   1
  10   5  -1 20569.5 983.613   2
  -5 -10  -1 19751.6 778.944   3
  10   5  -1 20812.5 856.726   3
   5 -15  -1 21447.8 1095.97   2
 -15  10  -1 20288.3 900.120   3
  15  -5   2 19796.5 737.759   1
  -5 -10   2 19129.4 625.968   3
 -15  10   2 20728.6 1062.25   3
   5 -15   2 20346.9 1112.32   4
 -10  15   2 19561.4 1100.95   4
  -5 -10   2 17188.4 1003.49   2
  10   5   2 22234.8 1246.10   4
 -10  15   2 19690.5 923.076   2
  10   5   2 17341.4 973.387   3
  -5 -10   2 16485.4 1007.07   4
 -15  10   2 18993.3 775.833   2
  10   5   2 20130.4 1150.57   2
  10   5   5 7951.06 461.051   1
  10   5   5 8544.97 912.326   2
 -15  10   5 7107.73 632.068   4
 -10  15   5 7785.67 735.365   4
  10   5   5 8441.06 852.988   4
  -5 -10   5 7322.11 645.663   4
 -10  15   5 8810.62 620.618   2
 -15  10   8 238.493 166.018   4
 -10  15   8 240.225 333.485   4
 -15  11 -11 7299.62 1050.84   3
   4 -15 -11 9919.50 1563.27   3
  15  -4 -11 4768.84 1068.87   1
 -11  15 -11 6144.08 1129.11   2
  -4 -11 -11 6914.54 1167.28   3
  11   4 -11 8109.59 1269.62   1
   4 -15 -11 6154.14 919.625   1
 -11  15 -11 7970.12 990.179   3
 -11  15  -8 2173.70 554.547   4
 -15  11  -8 2363.26 342.477   1
  11   4  -8 2531.10 387.208   2
  11   4  -8 2730.02 840.397   1
   4 -15  -8 2539.32 765.598   3
  -4 -11  -8 2733.17 434.210   1
  -4 -11  -8 3014.37 759.789   3
 -11  15  -8 3165.52 602.899   3
   4 -15  -8 3043.95 618.409   1
 -15  11  -8 2535.56 608.254   3
 -11  15  -8 3164.14 795.230   2
  15  -4  -8 2437.50 799.901   1
   4 -15  -5 43919.6 1628.76   1
 -11  15  -5 42624.1 1977.63   2
 -15  11  -5 45609.3 1126.90   1
   4 -15  -5 39759.1 1780.21   3
 -11  15  -5 42337.9 1686.66   4
  -4 -11  -5 46099.6 1375.93   1
 -11  15  -5 39174.1 1388.08   1
  15  -4  -5 35716.6 1806.06   1
  11   4  -5 41659.4 1223.73   2
  11   4  -5 42709.7 1359.99   4
  -4 -11  -5 41584.2 1778.40   3
 -15  11  -5 44016.0 1573.27   3
 -11  15  -5 42180.8 1296.86   3
  11   4  -5 42001.5 2061.02   1
 -11  15  -2 13210.8 969.653   2
   4 -15  -2 14072.4 912.046   2
  11   4  -2 11881.6 954.584   1
 -15  11  -2 13517.3 746.403   3
  11   4  -2 12259.7 845.370   4
  15  -4  -2 12337.3 944.726   1
  -4 -11  -2 11206.1 699.942   3
  11   4  -2 12980.5 755.761   2
 -11  15  -2 12816.4 820.984   1
   4 -15  -2 12899.4 834.389   1
  11   4  -2 11299.3 678.906   3
 -15  11  -2 12708.0 765.449   1
 -11  15  -2 10874.9 889.021   4
 -11  15  -2 12666.2 579.213   3
 -15  11   1 44512.7 1397.93   2
 -15  11   1 45213.9 1435.96   3
  -4 -11   1 43916.9 1575.48   2
  -4 -11   1 43094.4 1613.61   4
 -11  15   1 43863.0 1643.95   4
 -11  15   1 44251.2 1439.14   2
  11   4   1 42400.3 1700.85   4
  11   4   1 40154.6 1349.42   3
  -4 -11   1 44004.6 858.398   3
 -15  11   1 45826.4 1702.30   1
  15  -4   1 43018.4 1279.70   1
  11   4   1 41893.6 1564.55   2
 -11  15   4 24962.3 1262.62   4
  11   4   4 25138.0 1412.48   2
  -4 -11   4 24747.8 1202.42   4
 -15  11   4 23185.9 1121.38   4
  11   4   4 24701.4 1376.52   4
 -11  15   4 25003.5 937.732   2
  11   4   4 23968.0 698.121   1
 -11  15   7 17090.7 874.780   2
  -4 -11   7 14741.6 838.343   4
 -15  11   7 15805.5 816.697   4
 -11  15   7 17537.0 1038.72   4
 -15  12  -9 534.421 484.090   4
 -12  15  -9-315.924 376.342   4
 -12  15  -9 466.882 582.776   2
  15  -3  -9 807.355 659.366   1
 -12  15  -9 108.735 466.029   3
   3 -15  -9 1145.45 506.284   1
 -12  15  -9 854.665 473.661   1
   3 -15  -9 315.723 705.505   3
  12   3  -9 709.897 263.074   2
  12   3  -9 1299.41 658.965   1
  -3 -12  -9 1022.15 758.222   3
 -15  12  -9 1225.14 558.716   3
  -3 -12  -9 1177.17 370.343   1
   3 -15  -6 3650.10 564.712   1
 -12  15  -6 3986.25 515.173   1
 -12  15  -6 3567.26 617.539   4
 -12  15  -6 2674.12 697.642   2
  12   3  -6 3878.90 405.638   2
  -3 -12  -6 4099.15 736.405   3
   3 -15  -6 3349.49 659.889   3
 -12  15  -6 3525.25 517.589   3
 -15  12  -6 3701.54 559.025   3
 -15  12  -6 2683.31 357.130   1
  12   3  -6 4118.18 806.748   1
  15  -3  -6 2397.76 674.642   1
  -3 -12  -6 3158.87 459.629   1
 -15  12  -3 2350.34 393.195   3
 -15  12  -3 1904.80 339.403   1
 -12  15  -3 2661.34 524.883   4
   3 -15  -3 1590.20 397.262   1
 -12  15  -3 1717.03 504.562   2
 -12  15  -3 2442.67 312.481   3
 -12  15  -3 2078.55 396.480   1
  12   3  -3 2156.37 573.105   1
   3 -15  -3 1840.08 462.689   3
  12   3  -3 1877.59 334.362   2
  -3 -12  -3 1640.84 390.747   3
  15  -3  -3 1762.33 500.057   1
  12   3  -3 2640.87 465.370   4
  12   3  -3 2260.72 367.318   3
  12   3   0 1692.81 392.971   2
 -12  15   0 1555.60 332.003   3
 -15  12   0 1567.00 351.366   3
 -12  15   0 1934.33 459.353   4
  12   3   0 1865.28 436.525   1
 -15  12   0 1951.30 453.999   1
  12   3   0 1483.78 434.010   4
 -12  15   0 1197.07 389.851   2
   3 -15   0 1603.96 195.686   3
 -12  15   0 1299.27 378.595   1
  15  -3   0 767.486 329.715   1
  -3 -12   0 1921.79 223.997   3
  12   3   0 610.373 291.649   3
 -15  12   0 1380.15 426.321   2
  15  -3   3 6512.79 341.080   1
  -3 -12   3 7400.88 702.780   4
  12   3   3 7451.52 808.792   2
 -15  12   3 7331.03 428.353   2
 -15  12   3 6908.72 708.033   4
 -12  15   3 7327.80 733.995   4
 -12  15   3 7133.60 527.029   2
  12   3   3 6755.38 397.617   1
  12   3   3 5903.30 735.236   4
  -3 -12   6 6905.83 653.008   4
 -12  15   6 5446.69 617.214   4
 -15  12   6 5630.51 578.340   4
 -12  15   6 6844.07 525.554   2
 -12  15   9 815.810 329.322   4
 -13  15 -10-106.816 411.407   4
 -13  15 -10 1482.50 737.047   2
  13   2 -10 2014.17 843.815   1
   2 -15 -10 1372.60 895.901   3
 -15  13 -10 819.164 506.225   3
 -13  15 -10 774.091 507.198   3
  -2 -13 -10-554.327 672.273   3
  -2 -13 -10 1123.91 428.314   1
 -15  13 -10 968.682 526.996   4
   2 -15 -10 205.448 394.930   1
  15  -2 -10-819.693 744.664   1
 -13  15  -7 5537.17 865.539   2
   2 -15  -7 5816.44 694.867   1
 -15  13  -7 5284.62 710.329   3
 -15  13  -7 5761.26 767.213   4
 -13  15  -7 6455.56 792.353   4
  15  -2  -7 7448.70 1026.75   1
  13   2  -7 5044.78 892.935   1
   2 -15  -7 6719.16 985.280   3
  -2 -13  -7 5780.95 610.103   1
  -2 -13  -7 5359.37 884.143   3
  13   2  -7 4885.22 407.867   2
 -15  13  -7 5006.04 470.050   1
 -13  15  -7 5816.69 676.613   3
 -13  15  -4 7.19423 361.283   4
  13   2  -4-271.813 564.083   1
  15  -2  -4-9.81003 143.462   2
   2 -15  -4 56.0584 266.077   1
   2 -15  -4 364.866 376.160   3
 -13  15  -4 39.5336 274.996   1
  15  -2  -4-727.108 512.438   1
  -2 -13  -4 450.999 281.861   1
  -2 -13  -4 155.697 364.829   3
 -15  13  -4-90.3622 237.751   1
  13   2  -4 124.664 215.836   2
 -15  13  -4 132.624 302.512   3
 -13  15  -4 26.5618 226.902   3
 -15  13  -1 3860.40 427.528   3
 -13  15  -1 3629.15 403.210   3
  15  -2  -1 3997.55 465.509   2
  13   2  -1 3868.05 477.526   2
 -15  13  -1 4105.11 623.022   2
 -13  15  -1 4829.77 643.434   2
 -13  15  -1 2977.88 537.056   4
  15  -2  -1 3859.83 603.359   1
 -15  13  -1 4861.47 605.139   1
  13   2  -1 3655.96 606.126   4
 -13  15  -1 3881.68 541.611   1
  -2 -13  -1 4479.04 379.820   3
   2 -15  -1 4794.78 419.407   3
  13   2  -1 3502.73 457.314   3
   2 -15  -1 4284.07 527.128   1
  13   2  -1 3942.36 579.941   1
  13   2   2 5869.17 707.488   2
 -15  13   2 5628.60 643.967   4
 -15  13   2 5151.22 473.086   2
  13   2   2 6496.64 536.462   1
 -13  15   2 5359.73 645.954   4
  15  -2   2 6303.21 483.613   1
 -13  15   2 6804.19 567.417   2
  13   2   2 5532.69 700.451   4
  -2 -13   5 2081.03 471.224   4
 -15  13   5 1714.62 413.466   4
 -13  15   5 2091.01 309.307   2
 -13  15   5 2405.73 482.810   4
 -13  15   8 1525.78 386.344   4
 -15  13   8 872.546 297.706   4
 -14  15 -11 9828.38 1423.09   2
  14   1 -11 7560.62 1296.98   1
   1 -15 -11 8350.85 929.896   1
   1 -15 -11 9696.48 1476.39   3
  -1 -14 -11 9545.92 1485.01   3
 -14  15 -11 12918.3 1231.60   3
 -15  14 -11 10702.3 1174.67   3
 -15  14 -11 10753.3 1485.73   2
  15  -1 -11 7859.89 1259.87   1
 -14  15  -8 8346.04 1125.73   2
 -15  14  -8 5270.40 742.891   4
 -15  14  -8 6710.44 686.154   1
 -14  15  -8 6893.28 814.460   4
   1 -15  -8 7215.24 746.099   1
 -15  14  -8 8739.41 900.353   3
  -1 -14  -8 7158.50 715.886   1
  15  -1  -8 6223.48 1007.54   1
   1 -15  -8 8010.43 1130.92   3
  -1 -14  -8 7027.73 1037.70   3
 -14  15  -8 5512.87 719.428   3
  14   1  -8 6754.88 416.974   2
  14   1  -8 5002.47 956.078   1
  -1 -14  -5 38684.8 1425.30   1
 -14  15  -5 37068.3 1932.26   2
 -14  15  -5 36620.4 1689.43   4
 -14  15  -5 36378.9 1308.81   3
  14   1  -5 40489.4 2006.33   1
  15  -1  -5 38683.0 1963.25   1
 -15  14  -5 34057.3 1654.05   4
 -15  14  -5 38461.8 1276.09   1
   1 -15  -5 38059.8 1465.78   1
   1 -15  -5 36981.4 1715.35   3
  -1 -14  -5 37625.0 1716.70   3
  14   1  -5 37521.0 1066.78   2
 -15  14  -5 38548.4 1401.60   3
 -14  15  -5 37426.5 1324.16   1
  15  -1  -5 37733.6 938.859   2
  15  -1  -2 11551.7 698.911   2
 -14  15  -2 13901.7 889.741   1
  15  -1  -2 13925.8 1057.80   1
 -15  14  -2 13555.8 847.337   1
 -15  14  -2 15562.8 1112.92   2
 -14  15  -2 12182.6 1028.82   2
 -14  15  -2 13513.7 1016.98   4
  14   1  -2 11152.7 966.686   1
 -15  14  -2 13735.2 1004.80   4
  -1 -14  -2 13559.4 779.633   3
   1 -15  -2 13176.9 763.096   3
   1 -15  -2 12788.3 869.606   1
  14   1  -2 12245.2 736.750   2
 -15  14  -2 12960.9 717.308   3
 -14  15  -2 13552.0 694.455   3
  14   1   1 29842.2 1366.80   2
 -14  15   1 34095.4 1305.24   2
 -15  14   1 30920.7 1225.33   3
  14   1   1 35474.7 1307.17   1
 -14  15   1 31471.0 1189.31   3
 -15  14   1 31137.3 1426.30   4
 -15  14   1 35535.9 1352.51   2
  15  -1   1 29829.5 1177.33   1
 -14  15   1 30183.6 1428.44   4
  14   1   1 29804.6 1496.09   4
 -15  14   4 23099.1 1195.49   4
 -14  15   4 22408.6 1224.19   4
 -15  14   4 23987.8 742.542   2
 -14  15   4 23366.5 811.743   2
  -1 -14   7 15880.5 1001.53   4
 -14  15   7 17787.8 1033.32   4
   0 -15  -9 1075.02 699.387   3
 -15  15  -9 877.247 482.418   4
 -15  15  -9 476.544 580.575   2
  15   0  -9-652.715 654.265   1
 -15  15  -9-499.110 432.008   1
   0 -15  -9 11.8596 351.433   1
 -15  15  -9 341.677 428.552   3
   0 -15  -6 1399.42 393.456   1
 -15  15  -6 289.566 484.114   2
 -15  15  -6 970.755 329.181   1
  15   0  -6 1576.96 675.991   1
 -15  15  -6 2370.79 573.000   4
   0 -15  -6 1636.07 599.684   3
 -15  15  -6 2158.36 470.761   3
  15   0  -6 1752.92 256.601   2
 -15  15  -3 209.457 249.740   3
   0 -15  -3-160.086 272.387   1
  15   0  -3 179.792 237.231   2
 -15  15  -3-135.164 329.006   4
 -15  15  -3-719.117 507.179   2
  15   0  -3-182.749 491.870   1
   0 -15  -3-125.700 371.086   3
 -15  15  -3-123.703 261.032   1
  15   0   0 9405.98 752.845   2
 -15  15   0 9158.99 663.007   3
 -15  15   0 10061.1 818.985   2
 -15  15   0 9661.68 863.440   4
  15   0   0 9831.32 791.932   1
   0 -15   0 9929.54 383.976   3
 -15  15   3-9.52120 193.082   2
  15   0   3 219.085 193.073   1
 -15  15   3 108.921 319.422   4
 -15  15   6 3642.75 262.229   2
 -15  15   6 3738.37 550.097   4
 -16   0 -10 12594.4 1451.70   3
  16 -16 -10 8807.66 1155.44   1
   0  16 -10 13213.2 1302.65   2
   0  16 -10 12275.7 1565.87   1
   0  16 -10 14550.4 1103.54   3
   0  16  -7-330.828 418.133   2
   0  16  -7-281.449 365.025   4
 -16   0  -7 191.513 469.474   3
  16 -16  -7 18.1425 529.944   1
   0  16  -7 11.2252 298.922   3
  16 -16  -4 50640.2 2012.91   1
   0  16  -4 53237.6 2019.05   4
 -16   0  -4 53473.5 1879.89   3
   0  16  -4 50932.9 2022.07   2
 -16   0  -1-410.754 309.663   3
   0  16  -1-29.7039 357.227   4
  16 -16  -1-366.646 307.835   1
   0  16  -1-138.486 310.729   2
 -16   0   2 80303.5 2124.73   3
   0  16   2 81104.4 2514.14   4
 -16   0   2 76716.6 1830.16   2
   0  16   2 78028.8 2235.08   2
  16 -16   2 75316.2 1906.92   3
   0  16   5 18.6015 366.589   2
   0  16   5 131.377 391.787   4
 -16   0   5 280.739 237.732   2
 -16   0   5 107.752 302.250   4
   0  16   8 12438.8 1211.85   2
   0  16   8 12182.4 1149.27   4
  -1  16  -8 555.073 629.586   1
   1  15  -8-1209.69 672.573   1
  -1  16  -8-169.808 388.769   4
   1  15  -8 238.510 345.504   4
  16 -15  -8-1153.52 655.862   1
   1  15  -8-583.610 471.479   2
   1  15  -8 225.733 367.608   3
  -1  16  -8 599.294 398.076   3
  15 -16  -8-173.320 534.681   1
  -1  16  -8 903.868 500.022   2
 -15  -1  -8-127.921 551.295   3
 -16   1  -8 116.392 557.056   3
   1  15  -5 366.071 162.833   3
  -1  16  -5 142.851 126.253   3
  -1  16  -5-258.845 339.512   4
   1  15  -5 138.340 206.395   3
 -15  -1  -5 902.883 492.910   3
  -1  16  -5 191.440 374.575   2
   1  15  -5 31.5723 336.181   4
   1  15  -5 25.6988 331.711   2
  16 -15  -5-209.001 445.879   1
  -1  16  -5 86.7085 161.013   3
  15 -16  -5 333.550 429.615   1
 -16   1  -5 430.985 426.205   3
  -1  16  -2 210.038 324.835   2
  15 -16  -2-196.792 382.988   1
   1  15  -2-212.324 320.689   4
  -1  16  -2 577.634 462.569   4
   1  15  -2-251.286 330.237   2
  16 -15  -2 255.367 389.994   1
 -15  -1  -2-13.3172 316.380   3
 -16   1  -2 73.2750 304.845   3
 -15  -1   1 2355.02 432.576   3
  16 -15   1 2469.23 423.117   1
 -16   1   1 1887.15 402.722   3
  -1  16   1 2569.07 577.494   4
   1  15   1 1623.02 482.124   4
  15 -16   1 2234.38 389.627   1
  -1  16   1 2493.35 482.390   2
   1  15   1 2855.78 493.474   2
 -15  -1   1 3294.65 462.823   2
 -16   1   1 2570.71 408.922   2
  16 -15   1 2822.96 427.368   3
  15 -16   1 2314.08 388.604   3
   1  15   4 66.8953 376.760   4
 -15  -1   4-277.723 335.644   4
  -1  16   4 62.7891 359.745   4
 -15  -1   4 591.153 264.958   2
 -16   1   4 490.122 356.466   4
 -16   1   4 576.377 222.511   2
  -1  16   4 451.677 344.544   2
   1  15   4 698.331 394.988   2
 -15  -1   7 2415.88 364.987   4
  -1  16   7 3067.48 686.514   2
  -1  16   7 3056.17 661.977   4
   1  15   7 3776.28 702.248   4
   1  15   7 3333.35 712.164   2
 -16   1   7 2618.35 385.906   4
  -1  16  10 1537.90 575.957   4
   1  15  10 1729.73 591.163   4
  -2  16  -9 2714.50 575.681   4
  16 -14  -9 2998.32 781.659   1
  -2  16  -9 2835.52 670.494   2
  -2  16  -9 1744.37 752.848   1
   2  14  -9 1907.86 830.145   1
   2  14  -9 2827.90 673.841   2
   2  14  -9 3198.14 623.451   3
  -2  16  -9 2596.12 549.692   3
  14 -16  -9 2485.29 762.914   1
 -14  -2  -9 2292.26 795.725   3
 -16   2  -9 1839.34 706.028   3
  14 -16  -6 3296.72 384.404   2
   2  14  -6 2749.85 373.161   3
  -2  16  -6 3518.30 600.383   4
  14 -16  -6 3795.13 707.883   1
 -16   2  -6 1574.53 555.109   3
   2  14  -6 3547.80 569.092   4
   2  14  -6 3741.92 489.522   3
  -2  16  -6 3353.95 631.645   2
  16 -14  -6 3953.98 714.248   1
  -2  16  -6 3575.87 422.394   3
 -14  -2  -6 2069.92 606.264   3
   2  14  -6 3313.89 588.159   2
  14 -16  -3 1029.31 464.340   1
  14 -16  -3 1156.35 328.013   2
 -16   2  -3 1372.30 431.925   3
  -2  16  -3 625.823 382.406   4
   2  14  -3 1334.05 424.115   4
  -2  16  -3 1088.77 441.622   2
 -14  -2  -3 975.152 399.532   3
   2  14  -3 814.332 334.895   2
  16 -14  -3 2263.10 558.242   1
   2  14  -3 1431.32 144.695   3
  14 -16   0 8167.93 687.646   1
 -14  -2   0 7578.26 620.979   3
  -2  16   0 6347.51 738.776   4
 -14  -2   0 7208.41 656.980   2
   2  14   0 7233.92 773.351   4
  -2  16   0 8813.39 778.407   2
   2  14   0 7683.61 741.602   2
  16 -14   0 7845.67 664.967   1
 -16   2   0 7264.69 656.543   2
  16 -14   0 6468.31 556.172   3
  14 -16   0 6299.42 495.245   3
 -16   2   0 7624.48 669.587   3
 -14  -2   3 6348.06 565.882   2
  14 -16   3 5079.19 532.924   1
   2  14   3 5680.01 721.841   4
  16 -14   3 5515.19 492.735   1
 -14  -2   3 5995.60 645.271   3
 -16   2   3 4499.31 580.164   3
  -2  16   3 5946.78 657.904   2
 -14  -2   3 5222.10 620.042   4
  -2  16   3 5996.47 750.175   4
 -16   2   3 5803.48 642.314   4
 -16   2   3 5661.57 462.177   2
  14 -16   3 5013.13 533.252   3
   2  14   3 5851.20 684.348   2
  -2  16   6 2832.71 562.268   2
   2  14   6 2467.86 584.914   2
 -14  -2   6 2238.21 418.961   4
   2  14   6 3158.31 618.864   4
 -14  -2   6 3142.48 457.014   2
  -2  16   6 3175.91 583.235   4
 -16   2   6 2023.85 395.150   4
  -2  16   9 1292.48 525.407   4
   2  14   9 1059.36 457.692   4
  16 -13 -10 14263.2 1488.01   1
   3  13 -10 13696.5 1543.29   1
  13 -16 -10 15757.1 1454.24   1
  -3  16 -10 14777.8 1521.51   1
   3  13 -10 15055.9 1284.47   2
   3  13 -10 15490.2 1260.26   3
  -3  16 -10 16758.8 1171.58   3
  -3  16 -10 13565.3 1331.20   2
 -13  -3 -10 16828.1 1572.94   3
 -16   3 -10 16130.1 1486.87   3
 -16   3  -7 1770.44 605.120   3
  13 -16  -7 108.058 439.584   1
  16 -13  -7 255.800 477.450   1
   3  13  -7 780.938 510.228   1
  -3  16  -7 286.447 352.565   4
  13 -16  -7 277.668 239.928   2
  -3  16  -7 497.788 433.532   2
 -13  -3  -7 646.061 549.135   3
   3  13  -7 668.508 332.982   4
  -3  16  -7 488.793 316.521   3
   3  13  -7 1062.09 436.558   3
   3  13  -7 659.045 375.705   2
  16 -13  -4 66049.8 2318.24   1
 -16   3  -4 61323.9 1986.38   3
  -3  16  -4 64177.8 2178.79   2
   3  13  -4 65445.3 2071.52   4
   3  13  -4 64940.6 2069.71   2
  13 -16  -4 62068.6 2135.07   1
  -3  16  -4 63591.5 2096.91   4
  13 -16  -4 61719.2 1616.75   2
 -13  -3  -4 58842.7 1948.98   3
   3  13  -4 66858.1 1101.94   3
 -16   3  -1 369.281 323.952   3
 -16   3  -1 335.825 290.529   2
  13 -16  -1 369.095 207.457   3
  -3  16  -1 114.825 333.255   4
   3  13  -1-7.98944 358.334   4
  -3  16  -1 538.969 340.290   2
   3  13  -1 354.816 317.038   2
   3  13  -1 345.598 172.000   3
  13 -16  -1 543.042 407.805   1
  16 -13  -1 305.416 333.655   1
 -13  -3  -1-37.1754 265.445   3
 -13  -3   2 39505.3 1351.84   3
 -16   3   2 41557.3 1507.24   3
  16 -13   2 39444.9 1252.80   1
   3  13   2 41167.6 1750.20   4
 -13  -3   2 35963.8 1508.97   4
  -3  16   2 41662.8 1736.14   4
 -16   3   2 39651.7 1560.65   4
 -13  -3   2 37623.9 1308.01   2
  13 -16   2 42461.6 1405.12   1
  -3  16   2 39751.4 1494.29   2
   3  13   2 39785.1 1387.61   1
 -16   3   2 40260.9 1185.94   2
   3  13   2 43506.5 1646.72   2
  13 -16   2 41039.1 1231.69   3
  -3  16   5 2100.73 463.456   2
 -13  -3   5 2187.88 421.420   4
  -3  16   5 2425.44 518.399   4
   3  13   5 1781.60 512.899   2
 -13  -3   5 1441.51 360.289   2
 -16   3   5 1752.88 175.696   2
   3  13   5 3241.00 591.981   4
 -16   3   5 1283.76 381.650   4
  13 -16   5 1162.89 451.552   3
  -3  16   8 36936.9 1766.08   4
  -3  16   8 37183.9 1873.91   2
   3  13   8 39721.6 2074.30   2
   3  13   8 37393.1 1853.65   4
 -12  -4 -11 2684.15 889.833   3
  -4  16 -11 694.276 515.766   3
  -4  16 -11 321.116 613.584   1
   4  12 -11 963.225 507.483   2
  -4  16 -11 1028.44 608.292   2
   4  12 -11 915.339 687.578   3
  16 -12 -11 505.908 622.955   1
 -16   4 -11 1206.97 619.675   3
  12 -16 -11 690.677 588.670   1
   4  12 -11-297.082 761.232   1
   4  12  -8 3240.15 638.056   2
  -4  16  -8 3438.11 590.922   4
  16 -12  -8 2882.03 767.380   1
  -4  16  -8 2590.13 656.876   2
 -16   4  -8 1995.46 651.809   3
   4  12  -8 3178.03 440.319   4
  12 -16  -8 1772.22 652.174   1
  -4  16  -8 2173.16 471.491   3
 -12  -4  -8 2912.60 783.132   3
   4  12  -8 2810.96 791.388   1
   4  12  -8 2378.57 578.985   3
  12 -16  -5 1831.75 531.433   1
   4  12  -5 1566.09 268.099   3
  -4  16  -5 951.450 397.127   4
 -12  -4  -5 1672.60 526.447   3
  16 -12  -5 1493.82 608.477   1
  12 -16  -5 732.738 271.120   2
  -4  16  -5 1653.16 514.181   2
   4  12  -5 1849.42 505.856   2
   4  12  -5 1415.21 412.093   4
  -4  16  -5 1846.93 265.857   3
 -16   4  -5 1319.52 475.493   3
  12 -16  -2 6094.68 534.382   3
  12 -16  -2 7105.94 664.612   2
  16 -12  -2 6279.40 701.218   1
   4  12  -2 5914.45 657.400   2
  -4  16  -2 6586.46 706.906   4
   4  12  -2 6630.72 732.926   4
  -4  16  -2 6616.55 713.769   2
  12 -16  -2 6438.11 679.066   1
   4  12  -2 5731.46 338.217   3
 -16   4  -2 5693.14 597.633   3
 -12  -4  -2 6732.20 622.950   3
 -12  -4   1 2692.69 395.007   3
 -16   4   1 3171.27 465.511   3
   4  12   1 3486.92 467.510   1
   4  12   1 3361.47 579.953   4
 -16   4   1 3868.32 439.025   2
  -4  16   1 4445.90 643.199   4
 -16   4   1 2327.85 503.107   1
  -4  16   1 3532.31 520.720   2
 -12  -4   1 3866.85 481.969   2
  16 -12   1 3217.39 422.923   1
   4  12   1 3930.11 474.594   3
  16 -12   1 2564.69 428.803   3
   4  12   1 3274.08 519.056   2
  12 -16   1 2716.83 441.297   1
  12 -16   1 2968.48 352.385   3
  -4  16   4 6639.88 773.009   4
 -16   4   4 4705.92 302.120   2
 -12  -4   4 5423.63 585.177   4
   4  12   4 6573.55 781.244   4
   4  12   4 6537.54 649.600   1
 -12  -4   4 5706.53 537.546   2
 -16   4   4 5799.33 612.911   4
  12 -16   4 4825.72 540.291   3
  -4  16   4 7273.87 676.627   2
   4  12   4 5645.42 716.154   2
   4  12   7 5877.62 878.852   2
 -16   4   7 4784.57 430.116   4
 -12  -4   7 5394.04 472.319   4
 -16   4   7 3991.30 402.403   4
   4  12   7 5530.98 787.920   4
  -4  16   7 6049.62 760.559   4
  -4  16   7 6495.43 799.154   2
   4  12  10 1561.04 546.207   4
  -4  16  10 1415.03 492.701   4
  -5  16  -9 1986.67 664.588   1
  16 -11  -9 1362.03 690.408   1
  -5  16  -9 2047.24 493.665   4
  -5  16  -9 2035.41 679.674   2
   5  11  -9 2135.69 764.611   1
   5  11  -9 3409.45 733.305   3
  -5  16  -9 2365.97 512.644   3
 -11  -5  -9 3088.69 799.647   3
 -16   5  -9 352.473 517.176   3
  11 -16  -9 1851.04 621.802   1
   5  11  -9 2515.77 564.533   2
   5  11  -6 13087.0 747.606   3
  -5  16  -6 12544.3 1140.07   2
   5  11  -6 14988.1 1343.13   1
   5  11  -6 16062.7 1062.52   2
  11 -16  -6 12135.0 738.603   2
   5  11  -6 15087.6 931.556   4
  11 -16  -6 13661.0 1167.47   1
  -5  16  -6 15387.1 776.550   3
 -11  -5  -6 13446.3 1151.91   3
 -16   5  -6 14081.1 1093.84   3
  -5  16  -6 13675.0 1003.26   4
  16 -11  -6 13011.8 1195.31   1
  -5  16  -3 917.236 408.511   4
  16 -11  -3-609.832 425.677   1
  11 -16  -3 315.669 378.672   1
   5  11  -3 359.051 336.600   4
   5  11  -3 468.198 285.657   2
  11 -16  -3 680.670 323.156   2
 -11  -5  -3 435.348 369.054   3
 -16   5  -3 303.256 319.770   3
  -5  16  -3 679.687 354.870   2
   5  11  -3 465.274 188.223   3
  11 -16   0 21569.5 1057.11   1
   5  11   0 19690.0 1164.04   4
   5  11   0 21776.1 1111.40   2
  11 -16   0 21618.9 1168.52   2
 -16   5   0 18992.3 1036.45   1
  16 -11   0 20627.6 1007.65   1
  -5  16   0 21341.9 1239.28   4
  -5  16   0 22968.0 1171.33   2
 -11  -5   0 19901.3 1008.31   2
 -11  -5   0 20326.7 864.189   3
   5  11   0 20404.6 813.046   3
 -16   5   0 20878.6 1012.68   2
  11 -16   0 22054.4 754.496   3
 -16   5   0 21939.1 1020.13   3
 -11  -5   3 5192.94 537.719   3
 -16   5   3 5462.31 668.033   3
   5  11   3 3892.21 610.603   3
   5  11   3 5588.89 698.026   4
 -11  -5   3 4944.49 588.742   4
 -16   5   3 4285.48 570.685   4
  16 -11   3 4979.74 414.567   1
 -16   5   3 5351.68 361.628   2
  -5  16   3 5242.93 556.032   2
  11 -16   3 4529.08 439.504   3
   5  11   3 5308.50 663.508   2
   5  11   3 4868.20 505.768   1
 -11  -5   3 3956.34 492.643   2
  -5  16   3 5825.23 703.402   4
   5  11   6 2438.42 517.068   1
  -5  16   6 2852.21 515.309   2
   5  11   6 2282.93 664.859   2
 -11  -5   6 2802.06 495.183   2
   5  11   6 2789.92 559.887   4
 -11  -5   6 1766.72 354.501   4
  -5  16   6 2620.97 542.268   4
 -16   5   6 1853.55 374.145   4
   5  11   9 1883.27 559.872   4
  -5  16   9 2534.79 587.404   4
   6  10 -10 16170.8 1649.42   1
  -6  16 -10 16608.4 1511.17   2
   6  10 -10 15787.2 1206.05   2
  -6  16 -10 14172.2 1427.80   1
  10 -16 -10 15885.8 1384.04   1
   6  10 -10 15058.6 1370.60   3
  -6  16 -10 19433.7 1263.90   3
 -10  -6 -10 18331.0 1612.64   3
 -16   6 -10 14545.8 1390.10   3
  16 -10 -10 14449.5 1521.84   1
  10 -16  -7-40.3823 482.123   1
  16 -10  -7 682.370 570.991   1
   6  10  -7-241.355 368.999   2
  -6  16  -7 264.810 347.513   4
  -6  16  -7 633.438 485.092   2
  10 -16  -7-16.7731 271.619   2
   6  10  -7 20.9225 233.711   4
  -6  16  -7 415.465 305.872   3
 -10  -6  -7 542.695 500.130   3
 -16   6  -7 622.995 489.104   3
   6  10  -7 228.615 576.015   1
   6  10  -4 40421.6 1547.47   4
   6  10  -4 41498.2 1504.48   2
  10 -16  -4 40697.7 1377.81   2
  -6  16  -4 42633.1 1804.41   2
 -16   6  -4 41343.6 1561.34   3
  -6  16  -4 41505.9 1710.37   4
  10 -16  -4 44274.0 1736.36   1
 -10  -6  -4 41817.9 1636.89   3
  -6  16  -4 41608.2 786.755   3
  16 -10  -4 39477.8 1829.20   1
   6  10  -4 42819.6 1074.93   3
 -16   6  -1 12429.8 876.764   2
  16 -10  -1 15329.8 958.986   1
  10 -16  -1 15253.7 669.755   3
  10 -16  -1 14728.6 960.261   2
 -16   6  -1 14443.8 840.318   1
  -6  16  -1 16713.8 1085.66   4
  -6  16  -1 15151.2 994.133   2
   6  10  -1 15608.5 1057.27   4
   6  10  -1 14543.7 893.061   2
   6  10  -1 13938.9 623.908   3
 -10  -6  -1 14935.0 779.043   3
 -16   6  -1 15998.0 868.237   3
  10 -16  -1 15420.6 926.236   1
 -10  -6   2 64293.7 1554.96   3
 -16   6   2 61154.5 1808.70   3
  10 -16   2 59216.4 1673.04   1
   6  10   2 55496.1 1851.32   2
  -6  16   2 60212.6 2012.81   4
 -10  -6   2 56718.1 1831.85   4
   6  10   2 56575.1 2022.01   4
 -10  -6   2 56239.9 1653.81   2
  -6  16   2 59308.0 1727.74   2
 -16   6   2 56916.2 1827.22   4
   6  10   2 58692.9 1741.89   3
  16 -10   2 58587.9 1371.48   1
  10 -16   2 60682.8 1215.05   3
   6  10   2 59898.9 1531.50   1
 -16   6   2 60186.7 1330.85   2
 -10  -6   5 630.851 302.416   2
   6  10   5 1171.58 481.933   2
 -16   6   5 683.375 304.474   4
 -10  -6   5 388.657 292.592   4
  -6  16   5 936.735 410.593   4
   6  10   5 1184.40 358.915   1
  10 -16   5 299.270 320.510   3
  -6  16   5 202.435 302.385   2
   6  10   5 628.964 424.605   4
  -6  16   8 19199.3 1289.53   2
  -6  16   8 21112.7 1268.70   4
   6  10   8 20757.0 1398.59   4
   9 -16 -11 1645.77 739.739   1
  16  -9 -11-40.0643 682.636   1
   7   9 -11 223.970 723.286   1
  -7  16 -11 735.843 623.691   1
  -7  16 -11 1084.97 641.529   2
   7   9 -11 764.883 596.298   3
   9 -16 -11-315.861 973.051   3
  -9  -7 -11 1690.44 823.256   3
  -7  16 -11 450.742 498.402   3
 -16   7 -11 818.405 658.002   3
   9 -16  -8 1595.12 598.710   1
  -7  16  -8 1773.91 517.189   4
  16  -9  -8 3055.78 731.584   1
  -9  -7  -8 1851.79 712.132   3
   7   9  -8 2041.26 806.355   1
   7   9  -8 1741.91 300.063   4
   7   9  -8 2108.42 454.341   2
  -7  16  -8 2046.04 478.270   3
 -16   7  -8 1011.52 551.677   3
  -7  16  -8 2442.19 655.280   2
   7   9  -5 5276.37 483.285   3
   9 -16  -5 4707.92 532.777   2
   7   9  -5 5155.86 800.724   1
  -7  16  -5 5455.10 680.932   4
  -7  16  -5 6712.03 835.684   2
 -16   7  -5 6572.83 752.686   3
   7   9  -5 5060.52 571.472   4
   7   9  -5 5476.73 596.656   2
   9 -16  -5 4463.32 646.950   1
  -9  -7  -5 6197.35 761.223   3
  -7  16  -5 5581.03 436.914   3
  16  -9  -5 5278.74 863.301   1
   9 -16  -2 22284.1 1118.02   1
   9 -16  -2 21695.9 925.946   3
   9 -16  -2 21933.5 1080.82   2
  -7  16  -2 20572.5 1174.35   4
 -16   7  -2 23239.7 933.536   1
  -7  16  -2 23706.2 1256.74   2
   7   9  -2 25172.9 1261.33   4
  16  -9  -2 20352.8 1186.20   1
   7   9  -2 24670.9 1105.72   2
  -9  -7  -2 23214.8 1021.62   3
   7   9  -2 22402.5 770.896   3
 -16   7  -2 21739.2 1010.45   3
  -9  -7   1 13024.2 648.523   3
 -16   7   1 13091.9 730.376   2
 -16   7   1 15166.0 871.677   3
   9 -16   1 12921.0 820.631   1
  -7  16   1 10454.3 816.239   2
  -7  16   1 14025.4 1024.39   4
   9 -16   1 13159.7 519.081   3
 -16   7   1 13594.2 962.439   1
   7   9   1 13188.7 989.211   4
  -9  -7   1 14955.9 882.580   2
   7   9   1 14884.9 957.581   2
  -9  -7   1 12374.1 930.685   4
  16  -9   1 13524.8 743.168   1
   7   9   1 12307.4 742.866   3
  -9  -7   4 25845.4 1211.75   4
   7   9   4 27192.6 1459.26   4
  -7  16   4 27720.7 1387.09   4
   9 -16   4 26051.2 1009.27   3
   7   9   4 29510.6 1077.61   1
  -7  16   4 27436.6 1184.35   2
   7   9   4 28142.0 1472.37   2
 -16   7   7 494.630 242.707   4
  -7  16   7 1156.58 449.494   2
 -16   7   7 1023.90 264.466   4
  -7  16   7 92.6071 388.295   4
   7   9   7 988.032 460.910   4
  -9  -7   7 808.011 298.375   4
   7   9   7 949.823 381.935   1
  -8  16  -9 727.422 460.100   4
  -8  -8  -9 1151.33 651.076   3
  16  -8  -9-30.2537 582.074   1
   8 -16  -9 1362.08 619.583   1
  -8  16  -9 1065.91 612.192   2
   8   8  -9 1112.72 681.578   1
   8   8  -9 812.385 366.181   2
   8 -16  -9 692.146 758.172   3
  -8  16  -9 1141.58 457.529   3
 -16   8  -9 15.2173 534.860   3
  -8  16  -9 121.590 503.407   1
  -8  16  -6 7839.94 798.924   4
   8 -16  -6 7781.49 683.634   2
   8   8  -6 8727.91 719.703   2
   8   8  -6 10140.9 697.787   4
  -8  16  -6 8431.01 981.351   2
   8 -16  -6 7986.57 844.711   1
  -8  -8  -6 8738.99 929.870   3
  -8  16  -6 9679.19 663.538   3
  16  -8  -6 7839.16 1007.86   1
 -16   8  -6 8754.41 889.443   3
   8   8  -6 9281.06 1041.11   1
   8   8  -3 1290.35 386.757   4
   8   8  -3 945.762 248.960   3
  -8  16  -3 941.810 159.066   3
  16  -8  -3 364.783 473.991   1
   8 -16  -3 556.574 311.369   2
   8 -16  -3 968.367 393.738   1
  -8  16  -3 430.008 366.671   2
 -16   8  -3 923.308 252.655   1
   8   8  -3 1230.53 328.694   2
  -8  16  -3 1137.45 413.778   4
  -8  -8  -3 848.892 332.739   3
 -16   8  -3 970.768 392.959   3
  -8  -8   0 213.599 202.605   3
  16  -8   0 678.110 350.176   1
   8 -16   0 414.132 167.095   3
 -16   8   0 121.525 276.601   3
  -8  16   0 552.428 425.743   4
   8 -16   0 823.437 400.398   2
  -8  16   0 326.897 322.524   2
 -16   8   0 141.570 310.336   1
   8   8   0 368.906 373.077   4
  -8  -8   0 396.125 281.004   2
   8 -16   0 406.218 325.018   1
   8   8   0 287.481 280.785   3
   8   8   0 475.031 311.780   2
   8   8   3 1791.92 490.275   2
 -16   8   3 507.210 360.338   3
   8   8   3 1055.15 443.681   4
  -8  16   3 430.775 336.971   4
  -8  -8   3 911.206 324.197   4
  -8  -8   3 920.555 330.200   2
   8   8   3 690.409 264.493   1
   8 -16   3 846.922 221.088   3
  -8  16   3 683.414 276.834   2
  16  -8   3 960.984 212.567   1
 -16   8   3 795.126 159.244   2
  -8  -8   6 7847.93 651.534   4
   8   8   6 9108.73 1002.24   2
 -16   8   6 7484.90 596.225   4
  -8  16   6 9707.24 858.992   4
   8   8   6 8929.26 911.958   4
 -16   8   6 8263.64 651.345   4
   8   8   6 9203.38 662.827   1
  -8  16   6 10536.6 813.899   2
  -8  16   9 684.731 379.589   4
  -9  16 -10 2630.24 725.204   1
   7 -16 -10 3927.52 742.595   1
  16  -7 -10 2180.76 870.477   1
 -16   9 -10 2465.74 765.834   3
  -9  16 -10 4371.99 722.105   3
  -9  16 -10 3557.40 849.550   2
   9   7 -10 2830.36 534.017   2
   7 -16 -10 5460.37 1202.74   3
   9   7 -10 3540.21 926.997   1
  -7  -9 -10 3479.91 921.535   3
  -9  16  -7 1958.55 688.865   2
  16  -7  -7 565.399 513.164   1
   7 -16  -7 1790.75 535.096   1
 -16   9  -7 866.404 460.785   3
   9   7  -7 1585.35 658.061   1
   9   7  -7 1026.63 295.090   4
   9   7  -7 1812.87 397.969   2
  -7  -9  -7 574.918 496.395   3
  -9  16  -7 1448.66 408.971   3
  -9  16  -7 1524.35 481.328   4
   9   7  -4 24020.9 1499.17   1
  -9  16  -4 27143.6 1376.96   4
  -9  16  -4 25119.3 1477.45   2
   9   7  -4 28948.6 1250.07   4
 -16   9  -4 27013.0 825.170   1
   9   7  -4 21683.9 1013.32   2
  -7  -9  -4 27107.9 1342.70   3
   7 -16  -4 26607.4 1202.11   2
  -9  16  -4 26526.9 800.852   3
 -16   9  -4 25595.2 1193.77   3
  16  -7  -4 24610.5 1437.62   1
   7 -16  -4 30157.3 1367.91   1
   9   7  -4 24803.4 930.562   3
   7 -16  -1 14251.1 627.766   3
   9   7  -1 15427.7 1012.21   4
   7 -16  -1 13472.6 905.390   2
  -9  16  -1 14113.1 954.977   2
   9   7  -1 13283.3 843.900   2
   7 -16  -1 14911.0 937.608   1
  16  -7  -1 13196.1 897.509   1
 -16   9  -1 13997.1 866.714   1
   9   7  -1 13812.9 692.796   3
  -9  16  -1 14623.8 1040.93   4
  -7  -9  -1 14717.0 719.841   3
 -16   9  -1 12827.1 778.060   3
   9   7   2 20140.0 1166.70   2
  -7  -9   2 22642.6 782.232   3
  16  -7   2 20429.5 773.379   1
 -16   9   2 22142.0 1112.21   3
  -7  -9   2 19706.8 1059.52   2
  -9  16   2 20890.8 986.989   2
  -7  -9   2 22469.4 1191.27   4
   7 -16   2 19056.2 487.901   3
  -9  16   2 23884.6 1293.79   4
   9   7   2 18257.9 1005.29   3
   9   7   2 21772.0 863.306   1
   9   7   2 20558.4 1269.78   4
 -16   9   2 21547.3 807.740   2
   9   7   5 4458.82 691.549   2
   9   7   5 5998.90 481.493   1
 -16   9   5 5305.20 559.903   4
   9   7   5 5518.67 724.381   4
  -9  16   5 5256.10 628.225   4
  -9  16   5 6697.24 609.846   2
  -7  -9   5 5124.15 583.354   4
  -9  16   8 1633.87 436.265   4
 -16   9   8 1403.19 220.338   4
   9   7   8 1838.94 598.535   4
   6 -16 -11 733.454 983.282   3
  16  -6 -11 1324.36 815.215   1
   6 -16 -11 1317.28 602.415   1
 -10  16 -11 1024.28 734.217   2
  10   6 -11 368.142 712.390   1
  -6 -10 -11 1193.53 864.386   3
 -10  16 -11 1511.91 599.608   3
 -16  10 -11 2060.73 783.326   3
 -10  16  -8 19717.6 1613.65   2
  10   6  -8 20457.6 1626.76   1
  -6 -10  -8 20487.6 915.777   1
 -16  10  -8 20609.4 1392.31   3
  10   6  -8 22155.9 1082.38   2
 -10  16  -8 17936.1 1203.09   4
   6 -16  -8 19677.0 1684.39   3
 -10  16  -8 20138.9 1157.74   3
  -6 -10  -8 20888.0 1574.41   3
  16  -6  -8 18741.8 1533.30   1
   6 -16  -8 19220.7 1329.22   1
 -10  16  -5 574.273 384.186   4
 -10  16  -5 1566.64 542.983   2
  10   6  -5 1038.08 566.825   1
 -16  10  -5 1361.10 238.392   1
  10   6  -5 752.642 299.554   4
  10   6  -5 1152.46 309.592   2
   6 -16  -5 794.033 391.396   1
  -6 -10  -5 1578.64 553.760   3
 -10  16  -5 665.098 256.229   3
 -16  10  -5 1241.10 396.918   3
  16  -6  -5 580.228 475.709   1
 -10  16  -2 62197.8 1134.15   3
 -10  16  -2 61425.9 2041.44   2
 -10  16  -2 55397.1 1936.88   4
   6 -16  -2 56124.9 1781.16   2
   6 -16  -2 59839.1 1796.58   1
  10   6  -2 59117.7 1884.86   4
  16  -6  -2 56583.4 1947.66   1
 -16  10  -2 60500.5 1598.56   1
  10   6  -2 56763.1 1620.74   2
  -6 -10  -2 58293.2 1533.21   3
  10   6  -2 57245.6 1381.39   3
 -16  10  -2 58535.8 1570.89   3
   6 -16   1 14236.2 352.777   3
 -16  10   1 16066.1 925.592   3
  16  -6   1 16076.2 811.030   1
  10   6   1 12843.4 1004.69   4
 -10  16   1 14519.4 1005.95   4
 -10  16   1 13809.3 848.153   2
 -16  10   1 14143.9 1006.31   1
  10   6   1 15471.9 991.225   2
  10   6   1 13777.7 835.833   3
  -6 -10   1 13957.5 588.078   3
  10   6   4 41751.0 1829.74   2
 -16  10   4 36667.8 1424.96   4
  -6 -10   4 37230.5 1465.66   4
  10   6   4 44731.3 1871.36   4
 -10  16   4 39312.0 1597.18   4
 -10  16   4 40958.9 1302.03   2
  10   6   4 42537.4 1094.07   1
  -6 -10   7-42.9283 259.024   4
 -10  16   7 89.1092 304.407   2
 -16  10   7-236.502 225.621   4
 -10  16   7 74.9874 334.243   4
  10   6   7-287.988 393.879   4
  10   6   7 54.9719 177.816   1
  -5 -11  -9 2248.13 425.518   1
  16  -5  -9 1359.22 746.432   1
 -11  16  -9 2046.75 611.731   1
 -11  16  -9 1620.30 518.155   3
   5 -16  -9 821.803 466.229   1
 -11  16  -9 1752.61 692.482   2
  11   5  -9 676.516 592.117   1
  11   5  -9 1387.22 347.652   2
   5 -16  -9 2867.62 840.217   3
  -5 -11  -9 2902.98 869.185   3
 -11  16  -9 2244.56 541.950   4
 -16  11  -9 1670.67 658.505   3
  -5 -11  -6 1808.81 365.349   1
   5 -16  -6 1052.38 536.187   3
 -16  11  -6 1490.99 243.167   1
 -11  16  -6 1453.37 593.338   2
 -11  16  -6 1467.15 456.743   4
  11   5  -6 906.498 559.596   1
  11   5  -6 1932.60 366.733   2
  11   5  -6 1364.78 314.726   4
  -5 -11  -6 963.938 543.771   3
   5 -16  -6 851.010 382.843   1
 -11  16  -6 1879.14 382.763   3
 -16  11  -6 2208.08 543.518   3
  16  -5  -6 1205.96 597.839   1
 -11  16  -3 5794.46 760.441   2
  11   5  -3 4159.83 526.801   4
   5 -16  -3 4815.62 592.202   1
  16  -5  -3 3709.04 629.841   1
 -11  16  -3 4838.52 636.467   4
  11   5  -3 4945.39 511.586   2
  11   5  -3 3184.24 615.651   1
  -5 -11  -3 4907.32 582.342   3
 -16  11  -3 5841.90 517.051   1
 -16  11  -3 4706.48 535.241   3
 -11  16  -3 4340.68 379.643   3
  11   5  -3 4630.64 474.740   3
 -16  11   0 22565.7 1003.83   3
   5 -16   0 21832.7 1092.81   1
   5 -16   0 22647.2 542.759   3
 -11  16   0 22127.1 1242.11   4
  11   5   0 24587.7 1301.17   4
  11   5   0 19828.8 920.164   3
 -11  16   0 23088.8 1159.61   2
  16  -5   0 22525.9 1078.76   1
 -16  11   0 22989.5 1176.70   1
  11   5   0 21910.9 1132.45   2
  -5 -11   0 23042.8 728.160   3
  11   5   3 148.313 357.186   2
  -5 -11   3 414.453 318.786   4
 -11  16   3 394.923 369.250   4
 -16  11   3 312.319 338.633   4
 -16  11   3 331.328 171.175   2
 -11  16   3 294.728 215.454   2
  11   5   3 304.807 186.379   1
  11   5   3 291.757 364.825   4
  16  -5   3 47.4028 129.896   1
 -16  11   6 12952.5 833.625   4
  -5 -11   6 12272.8 839.345   4
 -11  16   6 13267.2 966.462   4
  11   5   6 14529.5 1179.90   4
  11   5   6 10849.2 487.406   1
 -11  16   6 14734.4 853.122   2
 -11  16   9 1276.69 385.595   4
  16  -4 -10 3325.90 915.837   1
  -4 -12 -10 1944.51 793.393   3
 -16  12 -10 2261.31 617.885   4
 -12  16 -10 2471.35 834.820   2
 -12  16 -10 2768.58 630.124   4
   4 -16 -10 533.395 775.823   3
  12   4 -10 2761.47 883.560   1
 -12  16 -10 3896.50 745.626   3
 -16  12 -10 3236.33 713.588   3
 -12  16 -10 2389.62 705.107   1
   4 -16 -10 2550.79 652.418   1
   4 -16  -7 6433.49 758.845   1
 -16  12  -7 6483.74 797.029   3
 -16  12  -7 5722.41 419.160   1
  -4 -12  -7 7634.17 643.808   1
 -16  12  -7 5319.29 467.871   1
 -12  16  -7 5262.49 925.235   2
 -12  16  -7 7893.69 853.552   4
  12   4  -7 7998.97 1101.87   1
  -4 -12  -7 5373.38 853.884   3
 -12  16  -7 7529.78 711.241   3
  16  -4  -7 6305.63 1004.04   1
   4 -16  -7 7782.11 1035.57   3
  12   4  -7 6477.30 542.672   2
 -16  12  -4 6164.35 520.925   1
 -12  16  -4 4722.57 676.146   4
   4 -16  -4 6493.70 669.689   1
  12   4  -4 5730.68 845.161   1
  12   4  -4 6192.21 612.449   4
 -12  16  -4 5824.94 810.654   2
   4 -16  -4 5561.39 685.910   3
  16  -4  -4 5644.34 807.628   1
  12   4  -4 5756.08 507.802   2
  -4 -12  -4 6145.28 664.990   3
 -16  12  -4 5681.35 599.135   3
 -12  16  -4 6383.31 494.532   3
 -12  16  -1 2687.02 337.613   3
 -12  16  -1 3928.76 582.888   2
 -12  16  -1 2316.32 504.609   4
  12   4  -1 3116.05 555.883   1
  12   4  -1 2572.20 523.583   4
  16  -4  -1 2580.53 512.186   1
   4 -16  -1 3274.54 502.794   1
   4 -16  -1 3122.11 370.833   3
  -4 -12  -1 2862.23 344.532   3
  12   4  -1 2568.70 441.611   2
 -16  12  -1 2982.05 510.086   1
  12   4  -1 2348.76 378.715   3
 -16  12  -1 3055.63 419.588   3
 -16  12   2 5919.76 617.207   3
 -12  16   2 5651.96 669.918   4
 -12  16   2 6699.10 592.083   2
 -16  12   2 5109.31 477.703   2
  12   4   2 4956.75 679.256   4
  16  -4   2 6490.21 479.405   1
  12   4   2 5714.33 686.033   2
 -12  16   5 1953.04 440.846   4
 -16  12   5 1692.61 383.736   4
  -4 -12   5 1933.60 435.288   4
  12   4   5 1762.93 514.559   4
 -12  16   5 945.469 281.121   2
  12   4   5 1445.74 191.950   1
 -12  16   8 2107.83 446.213   4
 -16  12   8 1914.13 332.697   4
  16  -3 -11 702.136 716.721   1
   3 -16 -11 945.461 896.185   3
  -3 -13 -11-201.504 795.136   3
  13   3 -11 214.262 695.524   1
 -13  16 -11 1064.31 614.856   3
 -16  13 -11 1539.12 687.173   3
 -13  16 -11 292.027 698.883   2
   3 -16 -11-398.253 460.177   1
 -16  13  -8 26774.6 1089.99   1
   3 -16  -8 36657.5 1642.28   1
 -13  16  -8 33542.6 1670.33   4
  13   3  -8 33712.6 2150.28   1
 -13  16  -8 34260.7 2098.38   2
  16  -3  -8 32392.9 2038.76   1
   3 -16  -8 35029.9 2138.65   3
  13   3  -8 37235.3 1144.20   2
  -3 -13  -8 31478.6 1912.24   3
 -16  13  -8 30697.5 1739.42   4
 -16  13  -8 36262.0 1728.26   3
 -13  16  -8 33761.2 1551.58   3
  -3 -13  -8 33088.8 1354.46   1
 -13  16  -5 2061.82 503.040   4
 -13  16  -5 3330.49 689.730   2
   3 -16  -5 3159.74 531.705   1
  -3 -13  -5 2442.14 429.285   1
  13   3  -5 1662.43 559.882   1
   3 -16  -5 1387.44 534.484   3
  13   3  -5 2890.87 384.581   2
 -16  13  -5 1594.96 327.819   1
  -3 -13  -5 2220.38 568.587   3
  16  -3  -5 2316.34 626.503   1
 -16  13  -5 1571.97 405.893   3
 -13  16  -5 2219.47 368.407   3
 -13  16  -2 41699.1 1135.82   3
 -16  13  -2 42863.7 1464.69   1
  13   3  -2 45048.1 1852.28   1
 -13  16  -2 41948.1 1707.52   4
  13   3  -2 41848.2 1377.35   2
 -13  16  -2 41802.9 1765.10   2
  16  -3  -2 42628.3 1764.92   1
   3 -16  -2 42253.0 1533.03   1
  13   3  -2 39279.6 1548.44   4
 -13  16  -2 41608.1 1510.41   1
   3 -16  -2 43019.8 1358.47   3
  -3 -13  -2 42419.7 1322.53   3
  13   3  -2 39820.1 1266.64   3
 -16  13  -2 42445.5 1308.45   3
  13   3   1 361.369 348.347   4
  -3 -13   1 452.101 138.078   3
  13   3   1 539.267 398.246   2
 -16  13   1-31.8199 289.676   3
 -16  13   1-344.062 370.219   4
 -16  13   1 59.6612 262.234   2
  13   3   1 170.389 283.904   1
 -13  16   1-54.3267 324.863   4
  16  -3   1 704.019 298.711   1
 -13  16   1 477.561 265.004   2
 -16  13   4 63179.3 1937.67   4
  13   3   4 64692.0 1235.19   1
 -13  16   4 61448.4 1986.35   4
 -16  13   4 54395.2 952.456   2
  13   3   4 64135.2 2269.66   4
 -13  16   4 60195.1 1430.99   2
  13   3   4 54087.5 982.883   1
  -3 -13   7 803.340 360.781   4
 -13  16   7 689.939 371.275   4
 -16  13   7 927.702 331.584   4
 -14  16  -9 1799.71 561.023   4
  16  -2  -9 691.302 644.668   1
  -2 -14  -9 1421.57 434.932   1
 -14  16  -9 2357.18 593.963   3
 -16  14  -9 823.975 533.832   4
 -14  16  -9 1350.91 512.424   1
   2 -16  -9 1851.17 520.575   1
   2 -16  -9 2521.74 890.580   3
  -2 -14  -9 1696.61 740.406   3
  14   2  -9 1641.64 774.758   1
 -16  14  -9 964.145 500.057   3
 -14  16  -9 578.927 627.463   2
 -14  16  -6 2388.55 654.538   2
 -16  14  -6 2407.12 407.080   1
 -14  16  -6 3170.62 609.226   4
   2 -16  -6 2762.33 556.523   1
   2 -16  -6 4371.87 790.740   3
  14   2  -6 1979.78 699.193   1
  14   2  -6 3127.12 371.029   2
  -2 -14  -6 2210.45 622.722   3
  -2 -14  -6 2621.38 442.619   1
  16  -2  -6 3003.13 765.481   1
 -16  14  -6 2960.75 529.198   3
 -14  16  -6 2312.90 455.650   3
  16  -2  -3 5399.30 462.142   2
  14   2  -3 4194.17 711.689   1
   2 -16  -3 5165.77 601.686   1
 -16  14  -3 6620.58 612.287   1
 -14  16  -3 5079.57 720.190   4
 -14  16  -3 5852.27 796.982   2
 -14  16  -3 5954.93 655.687   1
   2 -16  -3 6026.25 655.517   3
  -2 -14  -3 5706.93 641.205   3
  16  -2  -3 3948.27 686.697   1
  14   2  -3 5588.73 537.108   2
 -14  16  -3 5579.34 474.081   3
 -16  14  -3 5045.06 524.409   3
 -16  14   0 7841.94 658.628   3
 -14  16   0 7475.89 600.785   3
 -16  14   0 8308.24 824.240   4
 -16  14   0 7541.55 723.553   2
 -14  16   0 7446.02 787.688   4
 -16  14   0 6457.18 705.980   1
  16  -2   0 7121.99 687.059   1
  14   2   0 6402.00 733.226   4
 -14  16   0 7645.81 734.397   2
   2 -16   0 6808.04 317.895   3
  -2 -14   0 6946.81 371.364   3
  14   2   0 6804.89 706.137   1
  14   2   0 6155.10 661.980   2
 -14  16   3 1237.19 421.959   4
  14   2   3 1252.79 293.642   1
  16  -2   3 1118.81 210.649   1
  14   2   3 2319.54 534.557   2
 -16  14   3 2032.72 307.060   2
  14   2   3 1273.06 466.290   4
 -14  16   3 715.467 268.000   2
 -16  14   3 1499.80 428.234   4
 -16  14   6 3940.36 560.041   4
 -14  16   6 2626.02 523.235   4
 -14  16   6 3417.82 381.430   2
 -14  16   9 2718.73 465.235   4
  -1 -15 -10 772.492 416.232   1
 -15  16 -10 1522.91 565.168   3
 -16  15 -10 1784.51 786.905   2
 -15  16 -10 891.210 742.311   2
 -15  16 -10 840.254 550.224   4
 -16  15 -10 1917.69 661.800   3
  -1 -15 -10 1359.74 830.320   3
   1 -16 -10 416.067 777.432   3
  15   1 -10 1380.91 900.368   1
 -16  15 -10 216.059 484.555   4
  16  -1 -10 2554.10 924.380   1
   1 -16 -10 1704.60 551.014   1
 -16  15  -7 3249.95 617.394   4
 -15  16  -7 3167.61 633.751   4
 -15  16  -7 2688.00 772.525   2
  -1 -15  -7 3000.21 747.963   3
   1 -16  -7 3134.79 760.808   3
  -1 -15  -7 4421.17 602.333   1
   1 -16  -7 3314.64 588.505   1
  15   1  -7 2532.61 305.611   2
  16  -1  -7 3166.00 789.506   1
 -15  16  -7 3697.27 591.340   3
 -16  15  -7 2343.49 510.926   3
  15   1  -7 4499.61 874.259   1
  15   1  -4 1045.26 293.545   2
  16  -1  -4 491.246 223.373   2
 -15  16  -4 327.141 415.316   2
 -16  15  -4 621.244 426.838   4
 -15  16  -4 635.467 346.110   1
 -15  16  -4 823.650 416.704   4
  15   1  -4-85.1656 442.641   1
  16  -1  -4 146.302 477.787   1
   1 -16  -4 649.133 402.117   3
  -1 -15  -4 197.501 374.926   3
  -1 -15  -4 576.758 343.592   1
   1 -16  -4 368.536 311.651   1
 -16  15  -4 729.488 332.542   1
 -16  15  -4 1018.36 332.014   3
 -15  16  -4 54.9514 242.925   3
 -16  15  -1 2333.40 368.346   3
 -15  16  -1 2997.09 414.998   3
 -16  15  -1 2065.91 505.860   4
  16  -1  -1 3018.27 467.321   2
 -16  15  -1 2661.74 557.120   2
  15   1  -1 1352.58 375.598   2
 -15  16  -1 3200.07 604.672   2
   1 -16  -1 2867.01 337.267   3
 -16  15  -1 2005.97 472.993   1
  16  -1  -1 3002.87 614.337   1
 -15  16  -1 2095.70 538.937   4
  15   1  -1 2858.38 537.007   1
  -1 -15  -1 2575.41 332.475   3
  15   1   2 304.322 332.860   2
 -15  16   2-261.880 331.592   4
 -16  15   2-150.409 219.911   2
 -15  16   2-359.909 243.189   2
  15   1   2 306.547 290.333   1
 -16  15   2-135.956 320.694   4
  16  -1   2 269.486 265.766   1
 -16  15   5 7.55233 325.531   4
 -15  16   5 36.5400 306.012   4
 -15  16   5 227.223 178.628   2
 -16  15   5 169.736 124.217   2
 -16  15   8-235.448 308.435   4
 -15  16   8-119.487 334.399   4
 -16  16  -8 12148.6 1373.40   2
 -16  16  -8 13790.1 1193.25   4
   0 -16  -8 12824.5 980.888   1
   0 -16  -8 13217.1 1356.00   3
 -16  16  -8 15293.1 1138.13   3
  16   0  -8 13154.0 1489.37   1
  16   0  -5-97.4810 205.979   2
 -16  16  -5 296.943 509.519   2
 -16  16  -5 236.747 335.279   1
 -16  16  -5 246.604 384.905   4
  16   0  -5 1315.94 599.592   1
   0 -16  -5 593.058 490.965   3
   0 -16  -5 208.893 300.740   1
 -16  16  -5 647.571 350.138   3
 -16  16  -2 80322.0 2486.28   4
 -16  16  -2 90416.7 2682.75   2
 -16  16  -2 79242.8 2140.10   1
  16   0  -2 87514.8 2030.16   2
   0 -16  -2 86543.9 1876.10   3
  16   0  -2 87261.5 2619.07   1
 -16  16  -2 86857.4 1831.06   3
 -16  16   1-211.316 305.331   3
  16   0   1 193.531 319.748   2
 -16  16   1-204.712 355.791   4
 -16  16   1-194.795 269.285   2
  16   0   1 239.437 334.411   1
 -16  16   4 50473.3 1871.02   4
 -16  16   4 51115.4 1224.38   2
 -16  16   7 215.806 300.691   4
   0  17  -8 2601.10 549.862   4
   0  17  -8 2830.59 790.769   1
   0  17  -8 3237.58 719.238   2
   0  17  -8 2956.10 504.443   3
 -17   0  -8 3473.05 833.627   3
  17 -17  -8 1945.99 645.710   1
   0  17  -5 21.6297 93.9738   3
   0  17  -5-63.6442 374.004   4
   0  17  -5 491.447 477.529   2
   0  17  -5-102.892 122.428   3
  17 -17  -5 678.444 509.238   1
 -17   0  -5 406.652 447.772   3
   0  17  -2 6584.95 758.386   2
  17 -17  -2 6890.71 801.041   1
 -17   0  -2 6394.57 665.425   3
   0  17  -2 5998.97 799.632   4
 -17   0   1 329.745 322.695   3
  17 -17   1-251.380 308.949   1
   0  17   1 907.896 449.883   4
   0  17   1 285.609 381.576   2
 -17   0   1-292.229 279.604   2
   0  17   4 127.533 441.619   4
 -17   0   4-140.620 245.870   2
   0  17   4 100.374 330.740   2
   0  17   7-484.791 449.634   2
   0  17   7 23.3858 437.831   4
   0  17  10 761.270 539.566   4
 -17   1  -9 350.759 614.699   3
  -1  17  -9 1964.63 662.252   2
  -1  17  -9 620.335 387.450   3
  -1  17  -9 1063.07 697.728   1
   1  16  -9 1526.89 718.216   1
  -1  17  -9 317.362 344.477   4
   1  16  -9 1131.39 533.777   2
  17 -16  -9 719.075 571.877   1
   1  16  -9 800.263 429.170   3
  16 -17  -9 2005.73 659.151   1
 -16  -1  -9 1242.43 636.733   3
   1  16  -6 298.706 195.474   3
  -1  17  -6 573.625 211.146   3
   1  16  -6 467.145 289.294   3
  -1  17  -6 511.038 461.650   2
 -16  -1  -6-356.013 483.673   3
   1  16  -6-13.9916 430.790   2
  -1  17  -6 298.341 370.368   4
  17 -16  -6-1005.19 548.673   1
  -1  17  -6 516.461 233.540   3
  16 -17  -6-67.2740 437.664   1
 -17   1  -6 6.55599 505.902   3
   1  16  -6 276.297 384.970   4
 -17   1  -3 3600.96 573.925   3
  17 -16  -3 5135.63 723.289   1
   1  16  -3 4880.21 737.854   4
  -1  17  -3 4324.64 648.281   2
   1  16  -3 5244.22 684.809   2
  -1  17  -3 4181.52 683.654   4
 -16  -1  -3 2991.79 549.252   3
  16 -17  -3 6167.74 784.326   1
  -1  17   0 4739.46 709.026   4
   1  16   0 4711.80 681.970   4
  -1  17   0 4195.88 616.475   2
   1  16   0 4302.31 604.050   2
  17 -16   0 6068.82 645.120   1
  16 -17   0 3966.17 445.187   3
  16 -17   0 5144.37 575.252   1
 -16  -1   0 5318.52 560.401   3
 -17   1   0 5035.08 580.767   3
 -16  -1   3 7559.89 747.970   3
 -17   1   3 7756.51 770.742   3
  17 -16   3 7394.17 597.115   1
 -16  -1   3 6793.02 589.016   2
 -17   1   3 7680.26 584.385   2
  -1  17   3 7989.54 899.461   4
  16 -17   3 7292.11 646.992   1
   1  16   3 7693.93 853.091   4
  -1  17   3 7395.14 761.608   2
   1  16   3 6623.00 742.692   2
  16 -17   3 6505.11 654.817   3
  -1  17   6 1867.33 559.937   2
   1  16   6 1596.17 566.024   2
 -16  -1   6 671.612 276.258   2
 -16  -1   6 910.534 364.824   4
 -17   1   6 1247.14 379.043   4
   1  16   6 2312.40 597.642   4
  -1  17   6 1861.72 544.208   4
  -1  17   9 915.434 538.997   4
   1  16   9 452.892 533.281   4
  17 -15 -10 1481.59 751.628   1
  -2  17 -10 3375.06 949.711   1
  -2  17 -10 2012.74 685.267   2
  15 -17 -10 2893.44 833.120   1
   2  15 -10 2957.19 722.295   2
   2  15 -10 2537.24 871.193   1
   2  15 -10 3456.31 711.511   3
  -2  17 -10 2503.98 594.875   3
 -15  -2 -10 3515.93 917.029   3
 -17   2 -10 2133.70 808.109   3
  17 -15  -7 17664.8 1420.74   1
  -2  17  -7 17489.4 1324.23   2
 -17   2  -7 17217.6 1335.95   3
  -2  17  -7 20599.5 1287.99   4
   2  15  -7 15792.4 1074.90   4
   2  15  -7 19617.3 1351.33   2
  15 -17  -7 16301.9 1317.69   1
   2  15  -7 14391.2 878.694   3
  -2  17  -7 18076.1 882.205   3
 -15  -2  -7 15969.9 1312.75   3
  -2  17  -4 3921.17 680.429   2
  17 -15  -4 3663.27 682.971   1
  15 -17  -4 4510.76 514.209   2
   2  15  -4 3644.03 247.677   3
  15 -17  -4 3222.98 631.111   1
 -15  -2  -4 3806.21 604.773   3
   2  15  -4 4429.11 659.931   2
  -2  17  -4 3964.28 663.708   4
   2  15  -4 3660.84 618.560   4
 -17   2  -4 3344.32 591.491   3
  17 -15  -1 20611.4 1184.80   1
  -2  17  -1 21554.8 1336.69   4
   2  15  -1 20861.2 1288.54   4
  -2  17  -1 22067.1 1228.39   2
 -15  -2  -1 19476.0 986.655   3
  15 -17  -1 23929.1 1228.79   1
   2  15  -1 25308.5 1330.89   2
 -17   2  -1 23237.6 1099.93   3
  15 -17  -1 21387.4 923.045   3
 -15  -2   2 15793.3 929.474   3
 -17   2   2 18636.8 1063.36   3
  -2  17   2 17019.0 1238.91   4
  17 -15   2 17351.8 915.487   1
   2  15   2 16930.6 1206.46   4
  15 -17   2 19782.4 1019.32   1
 -15  -2   2 16508.5 917.045   2
  -2  17   2 18217.1 1096.54   2
 -17   2   2 16241.7 834.707   2
   2  15   2 16106.2 1057.33   2
  15 -17   2 17621.6 904.790   3
 -17   2   5 18334.4 705.713   2
 -15  -2   5 19563.1 962.454   2
   2  15   5 20940.9 1405.63   4
  -2  17   5 21948.7 1402.47   4
 -17   2   5 18334.6 1081.83   4
  -2  17   5 18976.6 1213.76   2
 -15  -2   5 16330.7 1012.49   4
   2  15   5 22634.5 1390.19   2
  -2  17   8 8820.67 1028.18   2
   2  15   8 7742.95 1067.27   2
  -2  17   8 6400.46 847.857   4
   2  15   8 6897.60 890.601   4
   3  14  -8 2026.14 441.383   4
   3  14  -8 1852.58 773.506   1
  -3  17  -8 1577.20 479.824   4
  -3  17  -8 1760.71 667.025   2
  14 -17  -8 1725.06 570.300   1
  17 -14  -8 2725.55 780.229   1
  -3  17  -8 2031.72 456.137   3
   3  14  -8 1617.10 496.331   3
 -14  -3  -8 1632.19 682.285   3
 -17   3  -8 1525.76 630.384   3
   3  14  -8 1511.34 517.855   2
   3  14  -5-48.5526 172.706   3
  -3  17  -5 11.7381 120.020   3
  14 -17  -5 199.037 258.899   2
 -17   3  -5 531.297 460.744   3
   3  14  -5-9.38966 346.224   4
  -3  17  -5 210.584 427.394   2
   3  14  -5-81.8050 364.461   2
  -3  17  -5 189.314 422.958   4
  17 -14  -5 77.8446 435.115   1
  -3  17  -5-24.3480 129.915   3
 -14  -3  -5-34.9121 426.051   3
  14 -17  -5-719.728 473.127   1
  14 -17  -2 3068.94 504.763   2
  -3  17  -2 4054.28 663.640   4
   3  14  -2 3087.90 567.109   4
  14 -17  -2 2304.45 494.706   1
  -3  17  -2 2003.84 517.507   2
 -17   3  -2 2741.73 490.360   3
   3  14  -2 2104.62 484.846   2
   3  14  -2 2451.51 221.099   3
  17 -14  -2 2300.71 513.256   1
 -14  -3  -2 2742.36 457.379   3
 -17   3   1 7852.47 685.567   3
  -3  17   1 9768.22 922.497   4
   3  14   1 6404.73 758.619   4
   3  14   1 6760.82 572.983   3
  14 -17   1 7779.29 694.740   1
  -3  17   1 7623.30 728.131   2
 -14  -3   1 7881.96 678.060   2
   3  14   1 6617.22 680.124   2
 -14  -3   1 7298.32 625.651   3
 -17   3   1 7692.79 621.201   2
  17 -14   1 9092.33 694.835   1
  14 -17   1 6849.78 524.837   3
   3  14   4 1455.74 495.318   2
   3  14   4 1321.71 454.426   4
  -3  17   4 1795.01 519.833   4
 -17   3   4 1132.51 225.461   2
 -14  -3   4 1874.62 472.775   4
 -14  -3   4 1348.34 328.900   2
 -17   3   4 873.530 372.656   4
  14 -17   4 1199.83 402.316   3
  -3  17   4 1925.39 470.185   2
  -3  17   7 1665.63 533.853   4
  -3  17   7 1087.71 544.004   2
   3  14   7 894.434 574.384   2
 -17   3   7 23.7411 244.078   4
 -14  -3   7 1121.84 329.223   4
   3  14   7 308.294 456.426   4
  -3  17  10 1110.04 537.509   4
   3  14  10 1116.83 570.826   4
  -4  17  -9 2034.23 502.168   3
 -13  -4  -9 3008.87 801.178   3
  -4  17  -9 689.943 506.452   2
  17 -13  -9 3328.62 860.049   1
   4  13  -9 3364.77 874.145   1
   4  13  -9 3015.01 657.006   2
  -4  17  -9 1037.35 648.172   1
   4  13  -9 4020.24 697.423   3
  -4  17  -9 1176.00 472.595   4
 -17   4  -9 2326.30 701.221   3
  13 -17  -9 1423.15 593.594   1
  17 -13  -6 5954.42 861.715   1
   4  13  -6 3973.53 416.907   3
  13 -17  -6 4233.11 490.785   2
  -4  17  -6 5514.04 807.695   2
  -4  17  -6 6613.96 743.973   4
  13 -17  -6 6437.58 917.437   1
   4  13  -6 5359.52 644.532   4
   4  13  -6 4451.79 682.265   2
  -4  17  -6 5432.57 463.991   3
 -13  -4  -6 4579.53 758.645   3
 -17   4  -6 5141.71 761.483   3
  17 -13  -3 3032.39 623.331   1
  -4  17  -3 4884.89 706.977   2
  -4  17  -3 1335.45 438.714   4
  13 -17  -3 3838.65 498.613   2
   4  13  -3 3642.07 571.570   4
   4  13  -3 2837.00 547.952   2
   4  13  -3 3364.86 266.011   3
  13 -17  -3 2878.83 608.935   1
 -13  -4  -3 1939.17 448.984   3
 -17   4  -3 2228.94 494.264   3
  13 -17   0 3621.64 510.132   1
 -17   4   0 3316.30 498.299   1
  -4  17   0 4115.26 640.570   4
   4  13   0 3669.61 531.918   2
   4  13   0 3559.54 607.339   4
  17 -13   0 4423.01 540.126   1
  -4  17   0 4009.20 581.994   2
   4  13   0 4008.79 407.990   3
 -17   4   0 3413.80 487.786   2
  13 -17   0 3769.04 389.243   3
 -13  -4   0 4486.61 498.788   3
 -17   4   0 3244.51 453.102   3
 -13  -4   3 9272.69 707.023   3
 -17   4   3 9737.66 845.087   3
  -4  17   3 7276.53 845.355   4
 -13  -4   3 8001.69 757.723   4
 -13  -4   3 9534.97 723.115   2
   4  13   3 11336.2 989.921   4
 -17   4   3 9134.49 528.663   2
 -17   4   3 8094.57 774.398   4
  -4  17   3 9262.69 766.433   2
  13 -17   3 8742.70 644.606   3
  17 -13   3 9082.36 607.633   1
   4  13   3 8534.87 824.855   2
   4  13   6 1476.46 543.793   4
  -4  17   6 1904.77 511.286   2
 -13  -4   6 1085.48 351.721   4
   4  13   6 2439.34 633.827   2
 -13  -4   6 1552.59 389.102   2
  -4  17   6 1708.50 515.220   4
 -17   4   6 500.620 291.248   4
   4  13   9 172.865 485.032   4
  -4  17   9 466.529 432.342   4
  12 -17 -10 1876.79 794.133   1
  -5  17 -10 1127.09 606.512   1
  -5  17 -10 2159.94 574.639   3
  -5  17 -10 1949.06 697.422   2
   5  12 -10 981.644 459.388   2
  17 -12 -10 1946.50 786.969   1
   5  12 -10 2767.33 977.264   1
   5  12 -10 2122.62 680.210   3
 -12  -5 -10 2359.65 801.884   3
 -17   5 -10 2645.43 815.748   3
  12 -17  -7 10031.9 1107.64   1
   5  12  -7 11817.2 1307.15   1
  -5  17  -7 9287.31 895.240   4
  12 -17  -7 7291.90 626.248   2
  -5  17  -7 9395.68 1037.55   2
   5  12  -7 10224.0 774.987   4
  -5  17  -7 9097.13 684.155   3
 -12  -5  -7 11400.7 1167.43   3
 -17   5  -7 10441.5 1081.58   3
   5  12  -7 11588.9 985.274   2
  17 -12  -7 11477.1 1208.88   1
  17 -12  -4 6417.27 820.671   1
  12 -17  -4 7108.60 626.864   2
  -5  17  -4 7869.78 839.050   4
  -5  17  -4 6686.36 858.221   2
   5  12  -4 6824.99 724.244   4
   5  12  -4 7535.06 735.745   2
  12 -17  -4 8016.65 861.521   1
 -12  -5  -4 7908.17 801.817   3
 -17   5  -4 7851.77 743.461   3
  -5  17  -4 5900.37 228.652   3
   5  12  -4 7501.29 445.476   3
  12 -17  -1 25261.0 897.104   3
 -12  -5  -1 27458.8 1080.10   3
   5  12  -1 26154.1 1251.79   2
  12 -17  -1 26708.0 1225.87   1
  17 -12  -1 24079.8 1209.56   1
  12 -17  -1 27270.0 1296.69   2
 -17   5  -1 23910.8 1108.92   1
  -5  17  -1 26780.6 1341.28   2
  -5  17  -1 26658.0 1396.16   4
   5  12  -1 23393.8 1297.53   4
   5  12  -1 26759.4 828.447   3
 -17   5  -1 22047.9 1043.41   3
 -17   5  -1 23994.8 1221.50   2
 -12  -5   2 5111.14 531.544   3
 -17   5   2 4154.15 587.626   3
  -5  17   2 5592.77 741.115   4
   5  12   2 4715.35 651.278   4
   5  12   2 4762.85 519.466   1
 -12  -5   2 3725.21 479.383   2
  -5  17   2 3761.51 540.724   2
   5  12   2 4734.04 573.665   3
  12 -17   2 4892.18 565.962   1
 -17   5   2 4621.68 428.434   2
   5  12   2 3679.23 600.265   2
  12 -17   2 4326.67 431.443   3
  17 -12   2 4396.61 448.604   1
   5  12   5 33734.4 1714.07   4
   5  12   5 32920.3 1362.08   1
  12 -17   5 30590.5 1327.67   3
  -5  17   5 36358.2 1703.97   4
 -12  -5   5 29626.1 1297.16   2
 -17   5   5 27823.1 1277.43   4
  -5  17   5 34367.0 1485.45   2
   5  12   5 37698.3 1783.76   2
 -12  -5   5 29105.4 1277.89   4
  -5  17   8 6867.01 855.792   2
  -5  17   8 9438.63 929.837   4
   5  12   8 8806.20 998.914   4
  11 -17 -11 1389.59 710.195   1
  17 -11 -11 1604.78 765.288   1
  -6  17 -11 959.827 657.662   1
   6  11 -11 1604.87 916.195   1
  11 -17 -11 608.163 882.353   3
   6  11 -11 1470.90 735.746   3
  -6  17 -11 2206.62 638.011   3
 -11  -6 -11 1325.82 815.074   3
 -17   6 -11 1068.06 768.054   3
  -6  17 -11 1174.31 684.441   2
  11 -17  -8 403.470 513.957   1
  -6  17  -8 703.279 396.920   4
  -6  17  -8 1096.98 565.761   2
   6  11  -8 1160.88 780.628   1
   6  11  -8-55.2885 255.905   4
   6  11  -8 385.138 367.979   2
  -6  17  -8 452.642 381.179   3
 -11  -6  -8 48.7626 544.240   3
 -17   6  -8 831.911 556.265   3
  17 -11  -8-510.669 623.669   1
   6  11  -5 7913.58 533.212   3
  -6  17  -5 9276.45 944.726   2
  11 -17  -5 6580.61 630.444   2
  -6  17  -5 7516.13 807.476   4
   6  11  -5 10007.4 814.824   4
   6  11  -5 7759.73 753.803   2
  11 -17  -5 6961.23 808.300   1
 -11  -6  -5 8477.09 870.235   3
  -6  17  -5 8441.89 457.592   3
 -17   6  -5 9163.97 868.925   3
  17 -11  -5 7823.29 923.867   1
  11 -17  -2 1791.09 347.006   3
   6  11  -2 2134.13 486.898   4
 -17   6  -2 2315.26 391.106   1
  -6  17  -2 2105.63 488.910   4
  -6  17  -2 1601.01 504.571   2
   6  11  -2 2332.10 468.950   2
  11 -17  -2 2053.21 484.904   1
  17 -11  -2 2566.42 550.787   1
  11 -17  -2 1339.30 360.696   2
   6  11  -2 2307.33 296.519   3
 -17   6  -2 1832.73 439.053   3
 -11  -6  -2 1434.49 372.280   3
 -11  -6   1 33225.3 1126.60   3
 -17   6   1 35274.3 1370.50   3
   6  11   1 33761.1 1237.30   1
  11 -17   1 34586.7 1335.25   1
  -6  17   1 35365.4 1609.97   4
   6  11   1 35933.0 1627.80   4
 -11  -6   1 33139.7 1319.64   2
   6  11   1 33424.7 1229.10   3
 -17   6   1 33653.1 1533.30   1
  -6  17   1 35266.6 1432.71   2
   6  11   1 36261.8 1511.84   2
  17 -11   1 33679.7 1206.62   1
  11 -17   1 33166.6 932.674   3
 -17   6   1 32808.4 1176.01   2
  -6  17   4 3635.91 602.790   4
   6  11   4 3972.93 679.636   4
 -11  -6   4 3199.14 507.451   4
 -11  -6   4 2704.67 454.266   2
 -17   6   4 2664.46 457.393   4
  11 -17   4 3453.68 470.329   3
  -6  17   4 2861.17 493.558   2
   6  11   4 2537.57 434.156   1
 -17   6   4 2095.69 168.715   2
   6  11   4 3718.36 638.915   2
   6  11   7 5274.58 781.012   2
 -11  -6   7 4845.66 488.800   4
  -6  17   7 5760.57 739.273   4
 -17   6   7 3842.81 440.176   4
   6  11   7 6167.52 836.823   4
 -17   6   7 3328.06 386.394   4
   6  11   7 4581.73 641.119   1
  -6  17   7 5566.53 733.213   2
  -6  17  10 682.452 442.279   4
  17 -10  -9 1143.14 665.689   1
  10 -17  -9 724.280 534.997   1
  -7  17  -9 299.585 406.661   3
  -7  17  -9 547.240 551.872   1
  -7  17  -9 458.573 491.806   2
  -7  17  -9 196.198 411.634   4
   7  10  -9-1267.08 735.090   1
   7  10  -9 410.531 384.043   2
 -17   7  -9-215.761 533.562   3
 -10  -7  -9 401.317 588.616   3
 -17   7  -6 1977.91 555.627   3
  10 -17  -6 2050.80 432.860   2
  17 -10  -6 2626.74 676.092   1
   7  10  -6 2971.41 801.361   1
  -7  17  -6 2476.44 668.725   2
   7  10  -6 2131.36 433.934   2
  10 -17  -6 2479.44 658.005   1
  -7  17  -6 2797.19 413.610   3
 -10  -7  -6 2336.52 626.366   3
   7  10  -6 3274.29 481.048   4
  -7  17  -6 2308.29 566.434   4
  -7  17  -3 3319.50 189.890   3
  10 -17  -3 3723.85 594.054   1
   7  10  -3 3221.26 573.208   4
  10 -17  -3 4275.97 514.346   3
 -17   7  -3 4040.55 399.069   1
  -7  17  -3 4164.83 599.611   4
   7  10  -3 3947.66 538.601   2
 -10  -7  -3 3122.41 508.133   3
 -17   7  -3 3485.28 540.510   3
  17 -10  -3 3969.62 648.738   1
   7  10  -3 3559.84 357.923   3
  10 -17  -3 3385.79 485.838   2
  -7  17  -3 4239.92 645.969   2
 -17   7   0 3257.17 466.698   3
 -17   7   0 2547.96 427.693   2
  -7  17   0 3018.43 556.174   4
  17 -10   0 3105.41 464.552   1
 -17   7   0 2744.98 521.497   1
  -7  17   0 3507.98 544.944   2
   7  10   0 3435.55 559.185   4
   7  10   0 2400.91 379.740   3
  10 -17   0 2611.62 476.726   1
   7  10   0 3302.02 508.422   2
 -10  -7   0 2356.81 363.131   3
  10 -17   0 2273.12 273.292   3
 -10  -7   3 4422.52 479.297   3
 -17   7   3 3915.12 593.772   3
  17 -10   3 5077.15 405.777   1
  -7  17   3 3948.50 631.157   4
 -10  -7   3 4292.36 573.998   4
 -10  -7   3 2612.42 456.778   2
   7  10   3 4688.52 663.496   4
  -7  17   3 4718.08 540.223   2
  10 -17   3 4480.94 409.367   3
 -17   7   3 4536.85 330.259   2
   7  10   3 4507.53 659.515   2
   7  10   3 3892.03 445.782   1
  -7  17   6 1890.27 437.559   2
 -17   7   6 1874.20 378.790   4
   7  10   6 1280.25 540.979   2
  -7  17   6 1133.83 428.118   4
 -10  -7   6 779.809 360.876   2
   7  10   6 2060.24 456.208   1
 -10  -7   6 1148.43 353.087   4
   7  10   6 794.568 441.256   4
 -17   7   6 1089.42 349.623   4
  -7  17   9 3459.20 619.230   4
   7  10   9 3149.61 712.856   4
   8   9 -10 1723.09 497.909   2
   9 -17 -10 1579.64 609.576   1
  17  -9 -10 1663.76 738.484   1
  -8  17 -10 2798.96 835.250   2
  -9  -8 -10 2551.46 835.432   3
   8   9 -10 716.726 808.752   1
   9 -17 -10 1873.25 971.358   3
  -8  17 -10 1936.50 703.710   1
  -8  17 -10 2001.65 551.740   3
 -17   8 -10 2325.90 711.974   3
   8   9  -7 11850.6 1299.93   1
  -8  17  -7 10993.6 1159.09   2
  -8  17  -7 12383.8 1013.86   4
   8   9  -7 11568.5 887.273   2
   8   9  -7 10842.5 723.264   4
   9 -17  -7 13835.1 1149.80   1
  -9  -8  -7 11649.0 1207.30   3
  -8  17  -7 11869.2 796.709   3
 -17   8  -7 13633.9 1115.42   3
  17  -9  -7 13605.8 1347.01   1
  17  -9  -4 3154.23 658.788   1
  -8  17  -4 1985.77 528.371   2
  -8  17  -4 2622.30 549.261   4
 -17   8  -4 2615.08 254.964   1
   8   9  -4 2673.85 512.598   4
   9 -17  -4 3060.97 545.583   1
   8   9  -4 2339.60 409.680   2
  -9  -8  -4 3075.01 595.359   3
 -17   8  -4 2945.24 522.991   3
  -8  17  -4 2420.48 252.261   3
   9 -17  -4 2319.02 436.635   2
   8   9  -4 3246.59 382.235   3
   9 -17  -1 34753.9 993.755   3
 -17   8  -1 29069.8 1342.22   2
   9 -17  -1 33175.5 1432.37   2
  -8  17  -1 33915.5 1554.35   4
  -8  17  -1 35050.6 1495.94   2
   8   9  -1 32815.3 1529.74   4
   9 -17  -1 32577.5 1341.61   1
 -17   8  -1 34477.3 1321.00   1
 -17   8  -1 36951.7 1307.58   3
   8   9  -1 32362.4 1339.46   2
   8   9  -1 33000.6 1027.39   3
  -9  -8  -1 34341.3 1115.92   3
  17  -9  -1 33532.0 1425.86   1
  -9  -8   2 12059.8 660.669   3
 -17   8   2 12482.8 886.850   3
   8   9   2 12087.4 703.395   1
  -8  17   2 10863.5 930.159   4
  -9  -8   2 11511.8 837.409   2
  17  -9   2 12672.4 672.022   1
  -8  17   2 12528.4 822.976   2
   8   9   2 11130.2 828.720   3
   8   9   2 11596.0 987.505   4
   9 -17   2 12797.7 503.804   3
   8   9   2 12420.6 943.134   2
 -17   8   2 12653.4 651.828   2
   8   9   5 30861.0 1661.67   2
   8   9   5 31580.1 1166.74   1
  -8  17   5 31948.4 1573.36   4
   8   9   5 28322.1 1591.99   4
 -17   8   5 27945.4 1243.18   4
  -8  17   5 31418.4 1318.40   2
  -9  -8   5 26382.0 1227.57   4
  -8  17   8 1093.71 449.792   2
  -8  17   8 2442.48 529.810   4
   8   9   8 2195.20 616.991   4
 -17   8   8 949.923 199.536   4
  17  -8 -11 6952.85 1222.87   1
  -9  17 -11 6232.71 1030.73   1
  -9  17 -11 7217.06 1191.64   2
   8 -17 -11 5692.53 906.150   1
   8 -17 -11 8128.28 1533.55   3
   9   8 -11 5476.32 1246.35   1
  -8  -9 -11 8030.39 1232.96   3
  -9  17 -11 6911.42 886.811   3
 -17   9 -11 7410.34 1037.07   3
  -9  17  -8 3392.35 786.423   2
  17  -8  -8 3263.64 810.082   1
  -8  -9  -8 1098.06 633.701   3
  -9  17  -8 2588.61 554.683   4
   8 -17  -8 2805.93 614.263   1
   9   8  -8 2057.28 438.269   2
  -9  17  -8 2192.06 471.904   3
 -17   9  -8 3127.10 665.660   3
   9   8  -8 1199.23 779.631   1
   9   8  -5 29459.9 1092.92   3
  -9  17  -5 33097.8 1779.38   2
  -9  17  -5 34161.6 1600.59   4
   9   8  -5 34045.0 1853.09   1
   9   8  -5 33389.4 1352.69   4
   9   8  -5 32154.2 1308.01   2
  -8  -9  -5 35018.6 1662.12   3
  17  -8  -5 33828.0 1782.91   1
  -9  17  -5 34927.1 1009.97   3
 -17   9  -5 35905.7 1520.60   3
   8 -17  -5 34340.7 1582.77   1
  -9  17  -2 12612.6 467.669   3
   8 -17  -2 12090.4 705.298   3
  -9  17  -2 10209.2 887.291   4
   8 -17  -2 12226.7 869.364   2
   9   8  -2 13335.3 975.395   4
 -17   9  -2 12336.9 771.326   1
   9   8  -2 13371.7 858.779   2
  -9  17  -2 13453.3 1020.92   2
  17  -8  -2 14108.3 1033.74   1
  -8  -9  -2 11958.9 752.993   3
   9   8  -2 13058.7 662.589   3
 -17   9  -2 11185.9 766.734   3
   8 -17  -2 10919.1 863.460   1
  -8  -9   1 33717.3 987.542   3
   8 -17   1 33300.0 1348.30   1
 -17   9   1 32575.5 1305.81   3
  17  -8   1 33133.7 1199.53   1
 -17   9   1 30976.9 1155.01   2
  -9  17   1 33932.0 1355.44   2
  -9  17   1 34545.5 1595.27   4
   9   8   1 31977.4 1558.60   4
   9   8   1 31952.7 1215.27   3
   9   8   1 31585.3 1418.79   2
   8 -17   1 34355.2 717.988   3
 -17   9   1 30991.2 1486.71   1
  -9  17   4 3076.82 588.233   4
  -8  -9   4 3547.49 519.112   4
   9   8   4 3924.31 700.623   4
  -9  17   4 3253.11 444.311   2
   9   8   4 3811.14 413.467   1
   9   8   4 4005.20 658.906   2
  -9  17   7 10155.3 895.489   4
 -17   9   7 9630.97 651.633   4
  -8  -9   7 9642.20 711.670   4
 -17   9   7 9177.16 659.997   4
   9   8   7 12408.4 1109.77   4
   9   8   7 9917.98 696.755   1
  -9  17   7 12233.7 934.551   2
  17  -7  -9 4122.45 964.770   1
 -10  17  -9 3004.75 590.901   4
 -10  17  -9 3804.79 795.661   1
 -10  17  -9 4173.92 647.344   3
   7 -17  -9 3685.58 688.176   1
  10   7  -9 3282.79 893.927   1
  10   7  -9 3840.82 556.473   2
 -10  17  -9 4097.46 942.065   2
   7 -17  -9 5016.17 1141.11   3
 -17  10  -9 4688.95 809.863   3
  -7 -10  -9 5038.99 966.724   3
  17  -7  -6 499.633 515.953   1
 -10  17  -6 1994.42 383.167   3
 -10  17  -6 1394.26 585.355   2
 -10  17  -6 1828.24 487.363   4
  10   7  -6 2831.03 747.275   1
  10   7  -6 1016.33 318.944   4
   7 -17  -6 1463.58 551.040   1
  10   7  -6 1076.85 329.755   2
  -7 -10  -6 1227.02 542.753   3
 -17  10  -6 1570.87 505.755   3
  10   7  -3 5006.89 703.385   1
 -10  17  -3 3840.06 597.313   4
   7 -17  -3 4783.47 598.789   1
 -10  17  -3 3295.20 628.249   2
  -7 -10  -3 4785.33 582.630   3
  10   7  -3 4420.71 583.745   4
 -17  10  -3 4817.42 475.200   1
  10   7  -3 5507.30 564.480   2
  17  -7  -3 5097.18 730.368   1
 -17  10  -3 4347.02 544.619   3
  10   7  -3 3682.38 439.973   3
 -10  17  -3 4551.54 346.607   3
   7 -17   0 2342.28 230.960   3
 -17  10   0 1762.81 375.854   3
  17  -7   0 1878.09 409.689   1
 -10  17   0 2082.76 491.393   4
 -10  17   0 1434.06 414.888   2
   7 -17   0 1959.06 433.249   1
  10   7   0 2290.72 520.039   4
  10   7   0 2038.27 376.036   3
 -17  10   0 2008.66 479.455   1
  10   7   0 1488.55 394.458   2
  -7 -10   0 1575.22 276.187   3
  10   7   3 2958.47 537.053   2
 -17  10   3 3089.64 309.684   2
  -7 -10   3 3526.50 556.153   4
  10   7   3 3430.85 606.712   4
 -10  17   3 4578.87 628.056   4
 -10  17   3 3563.52 455.536   2
  10   7   3 2909.84 362.924   1
  17  -7   3 3808.55 322.883   1
 -17  10   3 3300.41 285.158   2
 -10  17   6 2451.54 435.444   2
 -10  17   6 3730.62 636.115   4
  10   7   6 2519.48 622.401   2
 -17  10   6 1504.04 370.539   4
  10   7   6 2909.73 651.869   4
  10   7   6 2447.31 353.743   1
  -7 -10   6 1433.70 390.661   4
 -10  17   9 987.479 408.431   4
  17  -6 -10 584.704 690.225   1
 -11  17 -10-603.527 658.968   2
 -11  17 -10 231.201 414.913   4
 -11  17 -10 269.460 530.992   1
   6 -17 -10 1497.75 575.718   1
   6 -17 -10 41.5969 737.885   3
  11   6 -10 976.664 769.799   1
  -6 -11 -10 383.067 661.963   3
 -11  17 -10 504.331 463.632   3
 -17  11 -10 1041.32 636.385   3
  17  -6  -7 2722.07 729.757   1
  11   6  -7 5078.43 946.797   1
 -11  17  -7 5921.29 794.728   4
 -11  17  -7 4709.97 839.643   2
 -17  11  -7 4660.98 707.519   3
  11   6  -7 4943.44 541.829   2
   6 -17  -7 5807.64 1014.51   3
   6 -17  -7 3194.59 587.688   1
  -6 -11  -7 4374.49 810.010   3
 -11  17  -7 5269.44 608.674   3
   6 -17  -4 3857.77 595.885   1
 -11  17  -4 3698.95 598.286   4
  11   6  -4 2085.04 620.783   1
  11   6  -4 3982.66 518.943   4
  17  -6  -4 4152.32 690.121   1
  11   6  -4 3170.85 436.224   2
  -6 -11  -4 3842.64 618.631   3
 -17  11  -4 3418.43 409.414   1
 -11  17  -4 3287.65 649.131   2
 -17  11  -4 5052.07 618.297   3
 -11  17  -4 3748.28 363.464   3
  11   6  -4 3364.66 425.565   3
 -11  17  -1 35202.0 976.511   3
   6 -17  -1 36722.2 981.289   3
   6 -17  -1 37278.4 1443.72   1
 -11  17  -1 37858.9 1642.03   4
  11   6  -1 37820.4 1618.97   4
 -11  17  -1 36311.6 1539.36   2
 -17  11  -1 37114.8 1423.13   1
  17  -6  -1 35387.1 1469.03   1
  11   6  -1 36536.7 1426.08   2
  -6 -11  -1 36750.1 1094.51   3
  11   6  -1 34755.7 1179.04   3
 -17  11  -1 38721.3 1309.34   3
 -17  11   2 1643.33 313.432   2
  -6 -11   2 1790.56 248.981   3
  11   6   2 1860.10 473.652   2
 -17  11   2 1288.05 432.560   3
 -11  17   2 1375.63 446.577   4
  17  -6   2 1547.87 274.297   1
  11   6   2 1640.31 465.922   4
 -11  17   2 1263.53 312.009   2
  11   6   5 6958.50 879.909   2
 -17  11   5 7110.35 675.224   4
  11   6   5 8057.75 515.110   1
  -6 -11   5 7794.75 737.437   4
 -11  17   5 8533.68 819.892   4
  11   6   5 8369.42 896.993   4
 -11  17   5 8857.92 660.573   2
 -17  11   8 230.938 216.006   4
 -11  17   8 699.432 368.090   4
  17  -5 -11 5577.15 1155.13   1
 -12  17 -11 3372.79 965.331   2
  -5 -12 -11 6500.30 1209.31   3
   5 -17 -11 7254.80 1338.91   3
 -12  17 -11 5770.62 879.091   3
  12   5 -11 6721.71 1200.04   1
 -17  12 -11 4840.66 938.385   3
   5 -17 -11 4116.99 820.344   1
 -12  17  -8 9148.80 1181.16   2
 -12  17  -8 9228.84 959.418   4
  12   5  -8 9119.16 1240.97   1
  -5 -12  -8 9267.21 703.570   1
 -12  17  -8 9521.77 842.421   3
  12   5  -8 8018.82 645.560   2
   5 -17  -8 9541.96 1225.55   3
  17  -5  -8 8644.74 1152.08   1
  -5 -12  -8 9381.13 1159.31   3
 -17  12  -8 9534.05 964.331   3
   5 -17  -8 9672.69 957.393   1
   5 -17  -5 36259.9 1552.49   1
 -12  17  -5 32816.7 1582.46   4
 -12  17  -5 31803.7 1786.26   2
  12   5  -5 30516.0 1790.79   1
  17  -5  -5 32930.7 1878.16   1
  12   5  -5 31119.4 1286.60   4
   5 -17  -5 31721.8 1639.74   3
  12   5  -5 35028.6 1225.05   2
  -5 -12  -5 34841.2 1666.39   3
 -17  12  -5 34946.9 1433.24   3
 -12  17  -5 34634.5 1150.63   3
 -17  12  -5 34106.8 1054.11   1
 -12  17  -2 5872.13 427.016   3
  17  -5  -2 5661.99 744.585   1
  12   5  -2 6069.83 748.535   1
 -12  17  -2 5000.71 673.200   4
 -12  17  -2 4263.77 643.588   2
  12   5  -2 5818.02 643.224   4
  -5 -12  -2 5547.13 541.627   3
  12   5  -2 5968.67 568.135   2
 -17  12  -2 4840.38 544.471   1
  12   5  -2 5015.34 517.539   3
   5 -17  -2 5663.58 636.755   1
 -17  12  -2 5697.40 571.824   3
  -5 -12   1 26985.0 749.627   3
 -17  12   1 28036.8 1222.06   3
 -17  12   1 24644.1 1118.29   2
 -12  17   1 27048.2 1218.70   2
 -12  17   1 23697.8 1313.18   4
  12   5   1 26407.5 1419.54   4
  12   5   1 23161.6 1108.05   3
  17  -5   1 26504.4 1083.16   1
  12   5   1 24567.9 1286.66   2
  12   5   4 5025.95 728.861   2
 -17  12   4 6406.06 686.391   4
  12   5   4 7881.40 876.665   4
 -12  17   4 9232.14 866.020   4
 -12  17   4 7583.25 590.557   2
  12   5   4 6792.80 437.997   1
 -17  12   4 5455.12 246.012   2
 -12  17   7 10298.6 737.983   2
  -5 -12   7 8349.60 745.375   4
 -17  12   7 9358.34 690.234   4
  17  -4  -9-46.1934 589.131   1
 -17  13  -9-1180.93 578.810   4
 -13  17  -9-655.893 619.233   2
 -17  13  -9 276.514 468.960   3
 -13  17  -9 342.005 436.993   4
 -13  17  -9 744.811 495.955   1
   4 -17  -9 298.449 701.718   3
  13   4  -9 649.439 709.686   1
  -4 -13  -9 148.938 641.003   3
  -4 -13  -9 317.436 316.351   1
 -13  17  -9 443.986 428.023   3
   4 -17  -9 720.988 454.006   1
 -13  17  -6 1130.28 355.552   3
 -17  13  -6 1815.70 347.776   1
   4 -17  -6 543.674 364.809   1
 -13  17  -6 1803.04 510.887   4
 -13  17  -6 2825.64 686.808   2
   4 -17  -6 715.842 535.346   3
  13   4  -6 2180.29 739.715   1
  -4 -13  -6 1720.09 363.213   1
  -4 -13  -6 2347.94 623.035   3
  13   4  -6 1055.85 295.644   2
  17  -4  -6 2599.67 729.718   1
 -17  13  -6 1634.09 485.060   3
  13   4  -3 8541.26 941.842   1
 -13  17  -3 9826.75 966.528   2
 -13  17  -3 8813.39 856.691   4
  13   4  -3 9093.79 769.580   4
  -4 -13  -3 8288.68 710.450   3
   4 -17  -3 10384.2 816.955   3
  17  -4  -3 8302.81 924.598   1
  13   4  -3 9338.16 677.262   2
   4 -17  -3 8301.64 744.230   1
 -17  13  -3 8034.71 662.183   3
 -13  17  -3 9396.98 561.588   3
 -17  13  -3 9365.98 699.886   1
 -17  13   0 3995.74 489.536   3
   4 -17   0 3741.24 232.169   3
 -13  17   0 3651.28 438.863   3
  13   4   0 3494.48 545.573   1
 -13  17   0 4249.21 592.750   2
  13   4   0 4910.17 688.561   4
  17  -4   0 3940.21 530.158   1
 -13  17   0 4479.75 650.078   4
   4 -17   0 4336.27 281.088   3
 -17  13   0 4278.07 634.608   1
  13   4   0 3449.83 495.645   3
  -4 -13   0 4794.17 355.580   3
  13   4   0 4443.44 572.159   2
  13   4   3 3434.64 610.821   2
  17  -4   3 3056.74 285.263   1
 -17  13   3 2914.68 553.083   4
 -13  17   3 3816.76 635.506   4
 -17  13   3 3500.36 342.050   2
 -13  17   3 3010.71 420.432   2
  13   4   3 3446.63 658.769   4
  13   4   3 3029.31 306.944   1
 -17  13   6 4960.78 593.585   4
 -13  17   6 4377.07 618.689   4
  -4 -13   6 4305.12 617.429   4
 -13  17   6 5137.53 521.230   2
 -13  17   9 1390.45 416.968   4
  17  -3 -10 465.240 672.080   1
   3 -17 -10 1055.36 534.995   1
 -14  17 -10 953.447 685.615   2
 -14  17 -10 1966.89 628.681   3
 -14  17 -10 1165.83 542.889   4
   3 -17 -10 333.374 757.022   3
 -17  14 -10 473.922 481.434   4
  -3 -14 -10 1279.99 827.282   3
  14   3 -10 539.994 833.236   1
 -17  14 -10 792.568 551.339   3
  -3 -14  -7 898.207 361.244   1
 -14  17  -7 755.730 422.738   4
 -14  17  -7 902.099 501.727   2
   3 -17  -7 1722.44 506.774   1
  14   3  -7 998.025 634.298   1
   3 -17  -7 1459.36 692.908   3
  -3 -14  -7 804.246 535.672   3
  14   3  -7 1085.19 280.466   2
  17  -3  -7 853.070 613.266   1
 -14  17  -7 881.026 405.019   3
 -17  14  -7 937.831 473.805   3
 -14  17  -4 1551.16 485.359   4
  14   3  -4 2294.88 637.770   1
 -14  17  -4 2541.97 601.416   2
   3 -17  -4 1488.70 463.670   3
 -17  14  -4 1379.11 380.311   3
   3 -17  -4 1688.64 428.342   1
  -3 -14  -4 2788.55 564.891   3
 -17  14  -4 1065.26 321.468   1
  17  -3  -4 1887.15 599.609   1
  14   3  -4 2624.27 395.831   2
 -14  17  -4 1741.46 330.292   3
 -17  14  -1 8266.95 648.126   3
 -14  17  -1 8093.59 579.583   3
 -14  17  -1 7763.74 813.280   4
 -14  17  -1 8207.33 807.961   2
  17  -3  -1 9232.21 841.914   1
  14   3  -1 7140.90 776.206   4
   3 -17  -1 9094.88 554.102   3
  -3 -14  -1 9658.90 556.635   3
   3 -17  -1 8017.89 735.213   1
  14   3  -1 8110.56 700.213   2
 -17  14  -1 7778.48 749.388   1
  14   3  -1 7792.83 806.355   1
  14   3   2 3577.68 611.733   2
 -17  14   2 3077.98 537.404   3
 -17  14   2 4483.99 626.146   4
 -17  14   2 3143.10 434.000   2
 -14  17   2 2673.54 510.357   4
 -14  17   2 3476.50 471.959   2
  14   3   2 3059.33 596.533   4
  17  -3   2 3443.08 416.136   1
  14   3   2 2603.10 405.471   1
 -17  14   5-4.30063 318.532   4
 -14  17   5 202.877 314.878   4
 -14  17   5 308.226 219.723   2
 -17  14   8 1926.03 389.071   4
 -14  17   8 2114.69 477.750   4
 -17  15  -8 6593.21 904.034   4
 -17  15  -8 6642.64 686.551   1
 -15  17  -8 7663.05 1122.71   2
 -15  17  -8 7348.55 931.408   4
   2 -17  -8 9016.31 877.140   1
  17  -2  -8 8985.52 1218.17   1
   2 -17  -8 8131.49 1163.49   3
  -2 -15  -8 8036.77 1111.77   3
  15   2  -8 7190.54 487.981   2
 -15  17  -8 9149.86 873.596   3
 -17  15  -8 8590.76 924.055   3
  15   2  -8 6482.62 1132.64   1
  -2 -15  -8 7996.95 750.989   1
 -15  17  -5 15810.0 1228.15   4
 -17  15  -5 18144.1 925.625   1
  15   2  -5 21390.5 1550.15   1
  17  -2  -5 18488.6 1441.84   1
 -15  17  -5 16745.4 1388.25   2
  -2 -15  -5 20942.2 1125.87   1
   2 -17  -5 18135.2 1249.89   3
  -2 -15  -5 17671.2 1242.16   3
   2 -17  -5 21729.2 1194.50   1
  15   2  -5 17841.7 839.108   2
 -15  17  -5 18962.2 939.382   3
 -17  15  -5 19013.1 1049.62   3
 -15  17  -2 19283.3 857.408   3
 -17  15  -2 17466.9 1041.64   1
  17  -2  -2 17300.1 905.033   2
 -17  15  -2 17757.0 1257.38   2
 -15  17  -2 16913.7 1186.76   4
 -15  17  -2 17733.3 1252.43   2
  17  -2  -2 19493.9 1283.69   1
  15   2  -2 17979.8 1245.45   1
  15   2  -2 18896.8 1170.62   4
   2 -17  -2 18963.0 920.969   3
  -2 -15  -2 18499.4 896.037   3
  15   2  -2 17934.0 965.640   2
   2 -17  -2 19042.2 1094.37   1
 -17  15  -2 17986.0 890.314   3
  15   2   1 20866.6 1222.61   2
  -2 -15   1 20858.9 472.716   3
 -17  15   1 20926.4 1087.05   3
 -17  15   1 21078.1 1269.79   4
 -15  17   1 19785.6 1239.40   4
  15   2   1 20677.0 1080.70   1
 -15  17   1 22011.4 1115.79   2
  17  -2   1 22095.2 1052.11   1
  15   2   1 20318.8 1268.47   4
 -17  15   1 21661.6 1123.69   2
  15   2   4 2889.76 244.385   1
 -17  15   4 4005.91 590.828   4
 -15  17   4 3828.50 607.121   4
  15   2   4 3358.96 309.976   1
 -15  17   4 4351.66 428.470   2
 -17  15   4 3637.48 318.655   2
 -17  15   7 16451.3 1014.68   4
 -15  17   7 16984.6 1094.25   4
 -17  16  -9 1640.23 836.070   2
 -17  16  -9 190.628 483.765   4
 -16  17  -9 193.526 457.705   4
 -16  17  -9 582.458 596.156   2
   1 -17  -9 786.143 702.510   3
  -1 -16  -9 455.606 399.398   1
 -16  17  -9 569.441 445.163   1
  -1 -16  -9 333.807 672.089   3
  16   1  -9 707.992 681.081   1
  17  -1  -9 321.888 643.108   1
 -16  17  -9 904.515 466.662   3
 -17  16  -9-20.6625 450.092   3
   1 -17  -9 757.956 437.260   1
  17  -1  -6 1641.53 219.256   2
  16   1  -6 1645.06 290.776   2
 -17  16  -6 1452.36 399.763   1
 -17  16  -6 1625.93 559.391   4
   1 -17  -6 2019.90 507.719   1
 -16  17  -6 1733.88 693.414   2
  16   1  -6 2283.67 713.521   1
   1 -17  -6 950.832 532.790   3
  -1 -16  -6 1526.38 597.713   3
  17  -1  -6 1674.00 678.073   1
 -16  17  -6 1426.28 506.084   4
 -17  16  -6 1384.23 445.017   3
 -16  17  -6 1904.18 443.174   3
  -1 -16  -6 1900.46 434.159   1
  17  -1  -3 6160.20 552.014   2
 -17  16  -3 6442.11 817.768   4
 -17  16  -3 7434.75 896.959   2
 -16  17  -3 5490.95 751.954   4
 -16  17  -3 6587.49 867.448   2
 -17  16  -3 7220.19 700.934   1
  16   1  -3 5884.69 852.628   1
  17  -1  -3 6613.32 845.982   1
   1 -17  -3 6666.86 679.466   3
  -1 -16  -3 7003.66 694.186   3
   1 -17  -3 6173.17 703.960   1
  16   1  -3 7098.81 615.310   2
 -17  16  -3 6712.49 579.690   3
 -16  17  -3 6230.84 537.804   3
  16   1   0 4651.52 615.052   2
 -17  16   0 4927.81 555.652   3
 -16  17   0 3584.70 482.813   3
  -1 -16   0 5274.86 315.882   3
  17  -1   0 4932.37 614.190   2
 -17  16   0 5525.80 740.359   4
 -17  16   0 5117.70 679.476   2
 -16  17   0 5656.40 689.678   2
   1 -17   0 4669.69 268.924   3
  16   1   0 5920.41 687.073   1
  17  -1   0 4708.10 622.076   1
 -16  17   0 6055.10 774.808   4
 -17  16   3 4136.47 628.234   4
 -16  17   3 4197.03 627.085   4
  16   1   3 4417.61 415.622   1
 -17  16   3 4880.24 485.904   2
 -16  17   3 4138.48 465.189   2
  17  -1   3 4283.15 394.212   1
 -16  17   6 395.763 181.912   2
 -16  17   6 310.704 353.765   4
 -17  17 -10 1197.98 543.244   3
  17   0 -10 1743.22 837.881   1
   0 -17 -10 1414.60 539.157   1
 -17  17 -10-271.175 526.724   4
 -17  17 -10-577.263 770.724   2
   0 -17 -10 908.219 838.614   3
  17   0  -7-66.0583 121.836   2
 -17  17  -7 442.183 433.749   4
 -17  17  -7-584.368 606.399   2
   0 -17  -7 500.164 577.593   3
  17   0  -7-617.417 639.929   1
   0 -17  -7 174.843 331.060   1
 -17  17  -7-445.035 429.004   3
 -17  17  -4 112.739 261.283   3
  17   0  -4 425.806 238.452   2
 -17  17  -4 533.229 469.193   2
  17   0  -4 646.714 530.068   1
   0 -17  -4 243.736 395.475   3
 -17  17  -4 1114.33 504.253   4
   0 -17  -4 107.848 312.139   1
  17   0  -1-445.555 404.945   1
 -17  17  -1 165.791 293.145   3
  17   0  -1 74.3648 294.331   2
 -17  17  -1 659.708 418.749   2
 -17  17  -1 129.138 394.679   4
   0 -17  -1 172.177 233.386   3
 -17  17   2 7352.60 805.746   4
 -17  17   2 6923.56 635.640   2
  17   0   2 6994.20 606.462   1
 -17  17   5-320.280 309.148   4
 -17  17   5 165.553 178.187   2
 -17  17   8 1618.59 400.725   4
 -18   0  -9 687.806 641.889   3
   0  18  -9 52.8163 631.221   1
   0  18  -9-178.129 479.514   2
  18 -18  -9 1029.12 544.353   1
   0  18  -6 2861.49 643.457   4
   0  18  -6 2979.01 680.109   2
   0  18  -6 2171.51 275.167   3
  18 -18  -6 2555.47 635.623   1
 -18   0  -6 3721.15 708.049   3
  18 -18  -3-47.2867 408.913   1
   0  18  -3 455.011 440.891   2
   0  18  -3 36.4252 404.589   4
 -18   0  -3 941.973 425.875   3
   0  18   0 4938.63 667.651   2
   0  18   0 3910.40 670.473   4
  18 -18   0 4615.00 610.370   1
 -18   0   0 3484.94 539.243   3
 -18   0   3-114.399 358.262   3
   0  18   3-262.717 473.822   4
 -18   0   3-66.8338 276.338   2
   0  18   3 27.4067 353.432   2
  18 -18   3 247.006 313.410   1
 -18   0   6 6055.02 503.333   2
   0  18   6 7972.68 1008.68   4
   0  18   6 8283.26 936.914   2
   0  18   9 257.678 624.071   2
   0  18   9 219.755 517.733   4
  -1  18 -10 1986.99 696.388   2
  -1  18 -10 980.740 729.912   1
   1  17 -10 1981.48 946.767   1
   1  17 -10 2457.28 716.792   2
  18 -17 -10 2475.83 836.734   1
  17 -18 -10 3003.09 835.454   1
 -17  -1 -10 3276.46 952.032   3
 -18   1 -10 3509.71 891.076   3
  17 -18  -7 27619.6 1741.37   1
  18 -17  -7 27320.7 1769.09   1
  -1  18  -7 26536.8 1540.15   4
   1  17  -7 29417.2 1539.55   4
   1  17  -7 30616.7 1757.88   2
   1  17  -7 26420.4 1059.46   3
  -1  18  -7 26353.9 982.116   3
 -17  -1  -7 28365.3 1768.72   3
 -18   1  -7 28730.5 1751.06   3
  -1  18  -7 27771.7 1704.14   2
  18 -17  -4 9304.39 984.804   1
  -1  18  -4 8628.65 955.564   4
   1  17  -4 9110.52 934.877   4
  17 -18  -4 6933.85 884.109   1
  -1  18  -4 8638.14 913.534   2
   1  17  -4 7562.16 851.867   2
 -17  -1  -4 9538.90 931.240   3
 -18   1  -4 7089.29 790.904   3
  -1  18  -1 11812.5 1057.48   4
   1  17  -1 11586.6 971.324   2
   1  17  -1 10713.6 1011.87   4
  -1  18  -1 10497.5 912.631   2
  18 -17  -1 12332.4 947.464   1
  17 -18  -1 10376.3 875.168   1
 -17  -1  -1 10366.6 777.572   3
 -18   1  -1 12706.2 861.656   3
 -17  -1   2 14487.8 967.734   3
 -18   1   2 13809.8 975.019   3
 -17  -1   2 12529.5 856.723   2
  18 -17   2 13087.6 844.076   1
  -1  18   2 11209.6 1029.40   4
 -18   1   2 10985.5 759.370   2
  -1  18   2 11837.0 948.995   2
   1  17   2 13660.9 1043.34   2
   1  17   2 10660.2 1054.85   4
  17 -18   2 12424.1 847.331   1
  -1  18   5 16971.9 1215.83   2
 -18   1   5 14493.6 726.864   2
 -17  -1   5 12973.8 797.362   2
  -1  18   5 17352.7 1328.27   4
   1  17   5 18795.0 1393.33   4
   1  17   5 17536.1 1284.39   2
  -1  18   8 1722.51 679.751   2
   1  17   8 2544.58 748.865   2
  -1  18   8 1137.63 548.514   4
   1  17   8 1597.39 562.911   4
   2  16  -8 4144.57 961.629   1
   2  16  -8 5355.82 824.497   2
   2  16  -8 4274.07 636.829   4
  -2  18  -8 3898.38 760.407   2
  18 -16  -8 2930.59 741.270   1
   2  16  -8 3776.54 581.713   3
  -2  18  -8 4207.33 553.121   3
 -16  -2  -8 3913.63 839.078   3
  16 -18  -8 3814.14 803.887   1
 -18   2  -8 3919.67 812.894   3
  -2  18  -8 4441.12 713.843   4
  -2  18  -5 2955.58 617.185   4
   2  16  -5 2356.54 301.321   3
  -2  18  -5 2371.16 617.279   2
   2  16  -5 2903.55 596.407   2
  18 -16  -5 1920.35 615.947   1
  -2  18  -5 1963.79 137.642   3
 -16  -2  -5 2542.13 579.846   3
 -18   2  -5 2320.46 555.710   3
   2  16  -5 2427.68 246.743   3
  -2  18  -5 1437.86 116.935   3
  16 -18  -5 2655.42 645.212   1
   2  16  -5 2714.24 569.622   4
   2  16  -2 10148.0 971.795   4
  18 -16  -2 8340.87 828.707   1
  -2  18  -2 10064.5 924.183   2
   2  16  -2 7417.07 775.277   2
  -2  18  -2 10699.4 1014.63   4
  16 -18  -2 8853.37 857.668   1
 -16  -2  -2 7764.67 712.752   3
 -18   2  -2 7481.01 703.074   3
 -16  -2   1 3385.65 506.535   3
 -18   2   1 2835.18 491.840   3
  -2  18   1 3632.78 668.930   4
  16 -18   1 2932.70 480.343   1
   2  16   1 2525.44 575.699   4
  -2  18   1 3373.38 556.730   2
   2  16   1 3379.84 564.230   2
 -18   2   1 2623.02 446.419   2
  16 -18   1 2852.75 424.972   3
  18 -16   1 3432.44 475.456   1
  -2  18   4 1883.18 543.016   4
   2  16   4 1949.93 555.344   4
 -16  -2   4 1711.98 373.279   2
  -2  18   4 1906.58 498.134   2
 -18   2   4 1749.79 305.056   2
   2  16   4 1490.83 453.976   2
  -2  18   7 502.704 480.896   2
   2  16   7 1228.63 543.984   2
   2  16   7 223.570 439.917   4
  -2  18   7 957.759 496.628   4
  -2  18  10 768.968 554.998   4
   2  16  10 799.715 519.064   4
   3  15  -9 723.388 519.384   3
   3  15  -9 95.9655 668.828   1
  -3  18  -9 698.871 642.694   1
  -3  18  -9 1093.00 535.714   4
  -3  18  -9 1028.47 562.443   2
   3  15  -9 1556.37 580.437   2
  18 -15  -9 1170.13 702.447   1
  -3  18  -9 1760.28 488.955   3
 -15  -3  -9 2121.30 753.511   3
 -18   3  -9 502.912 606.247   3
  15 -18  -9 1407.73 647.054   1
   3  15  -6 209.741 211.965   3
  -3  18  -6 233.382 181.792   3
  -3  18  -6 220.914 385.946   2
  15 -18  -6 333.115 286.861   2
  -3  18  -6 770.289 494.655   4
   3  15  -6 676.561 401.251   4
  18 -15  -6-924.636 563.583   1
   3  15  -6 202.850 355.420   2
   3  15  -6 511.485 319.329   3
  -3  18  -6 428.051 238.337   3
 -15  -3  -6 310.928 467.453   3
 -18   3  -6 173.362 483.128   3
  15 -18  -6-736.391 563.583   1
  15 -18  -3 5527.00 595.513   2
  18 -15  -3 7318.26 838.486   1
  -3  18  -3 7106.11 853.471   4
   3  15  -3 5666.62 742.043   4
  -3  18  -3 7497.40 829.882   2
   3  15  -3 7016.76 751.277   2
  15 -18  -3 7592.64 829.328   1
   3  15  -3 6240.27 292.041   3
 -15  -3  -3 6382.27 712.182   3
 -18   3  -3 5865.19 683.927   3
   3  15   0 6829.42 494.915   3
  15 -18   0 7306.38 712.819   1
  -3  18   0 6881.84 812.938   4
   3  15   0 6442.79 768.509   4
  -3  18   0 6083.60 695.662   2
  18 -15   0 7701.77 733.052   1
   3  15   0 7618.32 785.437   2
 -18   3   0 6440.62 661.028   2
  15 -18   0 6441.73 528.246   3
 -15  -3   0 7804.82 657.479   3
 -18   3   0 6950.29 666.595   3
  15 -18   3 3513.68 515.357   1
 -15  -3   3 2704.05 527.081   3
 -18   3   3 4758.58 667.572   3
  -3  18   3 4606.27 633.131   2
  -3  18   3 3520.94 659.211   4
   3  15   3 5899.74 771.351   4
 -18   3   3 2898.84 371.428   2
  15 -18   3 3142.63 481.812   3
   3  15   3 4893.58 639.486   2
  18 -15   3 3403.13 440.171   1
 -15  -3   3 3995.12 504.817   2
 -15  -3   6 7305.99 665.008   2
  -3  18   6 8073.65 913.632   4
 -18   3   6 6088.51 669.942   4
   3  15   6 9171.03 1009.59   4
 -15  -3   6 6500.97 680.214   4
  -3  18   6 10468.8 978.330   2
   3  15   6 7673.14 919.990   2
  -3  18   9 2949.71 726.533   2
  -3  18   9 1895.64 562.751   4
   3  15   9 3721.86 789.622   4
  -4  18 -10 4346.39 905.540   1
  -4  18 -10 3517.36 822.213   2
   4  14 -10 3522.58 1029.70   1
  18 -14 -10 3113.65 855.552   1
   4  14 -10 3797.69 765.367   2
   4  14 -10 3593.56 748.352   3
 -14  -4 -10 2036.75 783.625   3
 -18   4 -10 3491.39 877.726   3
  14 -18 -10 4630.03 874.350   1
  18 -14  -7 9368.54 1119.15   1
   4  14  -7 9728.03 971.744   2
   4  14  -7 8920.41 1174.13   1
   4  14  -7 9095.95 816.125   4
  14 -18  -7 9882.86 1064.27   1
  -4  18  -7 9315.68 937.210   4
  -4  18  -7 9625.26 1045.38   2
  -4  18  -7 10631.3 692.012   3
 -14  -4  -7 7710.71 988.934   3
 -18   4  -7 9394.74 1025.34   3
  18 -14  -4 25966.4 1544.67   1
  -4  18  -4 25465.6 1444.62   4
  -4  18  -4 27174.6 1527.85   2
   4  14  -4 28596.5 1481.00   4
   4  14  -4 24006.7 1315.19   2
  14 -18  -4 24465.1 1143.88   2
  14 -18  -4 24836.4 1443.02   1
 -14  -4  -4 27100.9 1379.87   3
 -18   4  -4 24886.6 1309.71   3
   4  14  -4 26322.2 723.536   3
  14 -18  -1 24656.7 952.772   3
  14 -18  -1 26875.4 1279.91   1
  18 -14  -1 24604.9 1270.10   1
  -4  18  -1 28353.3 1524.10   4
   4  14  -1 25640.0 1423.69   4
  -4  18  -1 28459.0 1418.79   2
   4  14  -1 25020.8 1285.81   2
   4  14  -1 27051.0 815.113   3
 -14  -4  -1 25399.2 1092.61   3
 -18   4  -1 27451.4 1214.70   3
 -14  -4   2 11667.9 807.051   2
 -14  -4   2 11764.6 812.832   3
 -18   4   2 12935.2 919.110   3
  18 -14   2 11483.7 735.743   1
  14 -18   2 11917.7 831.705   1
   4  14   2 11186.8 991.536   4
  -4  18   2 10796.8 1001.03   4
  -4  18   2 11633.1 914.953   2
 -18   4   2 11207.4 687.955   2
   4  14   2 11928.2 947.191   2
  14 -18   2 11984.4 710.404   3
 -14  -4   5 16533.2 1038.06   4
  -4  18   5 21532.4 1384.82   4
 -18   4   5 16803.7 1033.02   4
   4  14   5 20869.6 1421.85   4
  14 -18   5 15981.5 1071.92   3
 -14  -4   5 18663.8 1017.85   2
  -4  18   5 19713.7 1213.65   2
   4  14   5 22744.6 1412.74   2
  -4  18   8 7884.44 959.452   2
   4  14   8 5545.93 902.786   2
  -4  18   8 7047.48 882.524   4
   4  14   8 7198.12 964.031   4
  18 -13  -8 8090.16 1139.10   1
  -5  18  -8 8445.08 1074.41   2
   5  13  -8 11231.4 1043.15   2
  13 -18  -8 11202.1 1134.44   1
   5  13  -8 7548.81 682.644   4
  -5  18  -8 10511.0 783.560   3
 -13  -5  -8 8044.89 1083.17   3
 -18   5  -8 9329.64 1083.87   3
  -5  18  -8 10736.6 978.341   4
   5  13  -8 8210.37 1259.09   1
   5  13  -5 523.502 231.112   3
  13 -18  -5 788.815 479.861   1
  -5  18  -5 106.697 391.104   4
  18 -13  -5 1194.55 632.682   1
  13 -18  -5 173.493 259.943   2
   5  13  -5 769.449 396.334   4
  -5  18  -5 455.348 475.039   2
   5  13  -5 603.222 393.758   2
 -13  -5  -5 842.439 526.438   3
  -5  18  -5 168.801 125.950   3
 -18   5  -5-471.866 427.020   3
  13 -18  -2 4243.92 488.193   3
  13 -18  -2 4739.17 610.407   2
  -5  18  -2 4189.16 631.970   4
  -5  18  -2 3934.28 605.544   2
   5  13  -2 5037.86 658.880   2
  18 -13  -2 3877.47 593.195   1
   5  13  -2 5037.46 695.822   4
   5  13  -2 3788.15 316.771   3
 -13  -5  -2 4711.37 552.431   3
  13 -18  -2 4539.14 667.421   1
 -18   5  -2 3076.43 495.625   3
 -13  -5   1 23102.7 1017.26   3
 -18   5   1 25086.1 1187.66   3
  -5  18   1 22526.9 1356.39   4
  18 -13   1 23178.9 1058.06   1
   5  13   1 20357.5 1297.32   4
 -18   5   1 21871.1 1017.41   2
  -5  18   1 22823.8 1198.15   2
   5  13   1 21806.4 1000.57   3
   5  13   1 20654.9 1210.52   2
  13 -18   1 21421.4 1096.16   1
  13 -18   1 22015.8 857.437   3
  -5  18   4 8314.09 928.303   4
 -18   5   4 6794.16 383.364   2
  13 -18   4 6581.65 616.360   3
   5  13   4 8443.88 926.569   4
 -18   5   4 6271.88 676.229   4
  -5  18   4 7223.13 732.913   2
   5  13   4 7145.65 810.344   2
  18 -13   4 8760.19 557.334   1
 -13  -5   4 6856.98 647.811   2
   5  13   7 7485.10 964.064   2
 -18   5   7 7055.85 608.614   4
  -5  18   7 8533.71 904.652   4
   5  13   7 7723.94 976.007   4
  -5  18   7 9495.71 953.875   2
  -5  18  10 803.240 497.080   4
   5  13  10 527.201 463.149   4
  12 -18  -9 4052.55 823.804   1
  18 -12  -9 4775.04 910.485   1
  -6  18  -9 4377.87 857.244   1
  -6  18  -9 4369.39 730.452   4
   6  12  -9 5132.26 748.622   2
   6  12  -9 3782.68 956.972   1
  -6  18  -9 4876.67 929.005   2
   6  12  -9 5019.70 782.209   3
  -6  18  -9 5303.13 665.049   3
 -18   6  -9 6064.36 984.765   3
 -12  -6  -9 4071.10 930.260   3
   6  12  -6 1064.74 429.007   2
   6  12  -6 331.698 252.581   3
  18 -12  -6 916.148 545.094   1
  12 -18  -6 367.739 460.675   1
   6  12  -6 1199.42 676.944   1
  -6  18  -6 447.381 399.621   4
   6  12  -6 1107.76 439.613   4
  12 -18  -6 621.361 365.622   2
 -12  -6  -6 533.803 538.687   3
  -6  18  -6 344.410 233.538   3
 -18   6  -6 802.933 516.440   3
  -6  18  -6 8.17799 419.378   2
  12 -18  -3 10394.9 883.474   1
  -6  18  -3 11454.7 980.411   4
  -6  18  -3 11163.9 974.703   2
  18 -12  -3 10063.2 942.932   1
   6  12  -3 10546.1 898.298   4
   6  12  -3 10934.9 870.028   2
 -12  -6  -3 10564.5 841.422   3
  12 -18  -3 11538.5 849.784   2
   6  12  -3 10924.4 528.250   3
 -18   6  -3 10454.1 843.655   3
  12 -18   0 280.412 328.973   1
 -12  -6   0-67.9313 243.923   3
  12 -18   0 355.427 207.181   3
 -18   6   0 213.269 282.013   3
 -18   6   0-101.188 310.823   1
 -18   6   0-164.585 287.483   2
   6  12   0 480.281 446.773   4
  -6  18   0-214.500 315.925   2
   6  12   0 270.266 262.842   3
  18 -12   0-69.4392 326.704   1
   6  12   0 116.448 307.788   2
  -6  18   0-561.243 432.233   4
  -6  18   3 18700.0 1241.13   4
   6  12   3 15944.5 903.527   1
 -12  -6   3 19713.6 975.673   3
 -18   6   3 20163.3 1193.85   3
   6  12   3 18323.0 1281.91   4
  18 -12   3 18552.6 804.974   1
 -12  -6   3 18908.3 1048.44   2
  -6  18   3 17520.8 1008.61   2
 -18   6   3 18122.1 688.386   2
  12 -18   3 17926.2 806.960   3
   6  12   3 19599.5 1229.73   2
  -6  18   6 1025.09 408.029   2
   6  12   6 503.863 464.169   2
 -12  -6   6 562.504 407.589   2
 -12  -6   6 642.469 335.387   4
  -6  18   6 496.628 406.384   4
   6  12   6 918.754 435.191   1
   6  12   6 386.626 447.801   4
 -18   6   6 584.835 357.470   4
  -6  18   9 1499.86 536.125   4
   6  12   9 521.042 489.366   4
  11 -18 -10 3031.07 828.366   1
  -7  18 -10 4830.63 882.221   1
  -7  18 -10 3144.72 819.531   2
   7  11 -10 4156.36 698.445   2
 -18   7 -10 4515.66 895.254   3
   7  11 -10 3473.22 922.533   1
  11 -18 -10 6225.18 1325.53   3
   7  11 -10 4067.44 832.393   3
  18 -11 -10 3515.52 926.085   1
 -11  -7 -10 3880.73 942.254   3
  -7  18 -10 3585.69 670.121   3
   7  11  -7 6099.54 634.982   4
   7  11  -7 7202.79 1084.55   1
  -7  18  -7 4702.84 862.309   2
  -7  18  -7 5532.25 734.658   4
   7  11  -7 6446.40 743.525   2
  11 -18  -7 6995.72 908.978   1
 -11  -7  -7 6959.42 925.342   3
  -7  18  -7 5797.42 550.629   3
 -18   7  -7 7498.34 901.486   3
  18 -11  -7 7562.87 1058.68   1
   7  11  -4 18494.1 1084.12   2
  -7  18  -4 16872.7 1181.91   4
  11 -18  -4 18752.4 1046.91   2
   7  11  -4 20704.6 1206.62   4
  -7  18  -4 18168.1 1275.68   2
 -11  -7  -4 19589.8 1183.33   3
  11 -18  -4 20175.2 1243.08   1
 -18   7  -4 18428.4 1098.70   3
  18 -11  -4 20960.5 1407.16   1
  -7  18  -4 19021.6 482.957   3
   7  11  -4 17889.1 750.904   3
  11 -18  -1 30916.3 973.105   3
  18 -11  -1 32467.9 1434.49   1
 -18   7  -1 31517.5 1310.92   1
 -18   7  -1 32772.4 1309.26   3
  -7  18  -1 32441.7 1483.82   2
  11 -18  -1 33769.9 1428.05   1
   7  11  -1 31135.8 1571.14   4
  -7  18  -1 32230.0 1571.99   4
   7  11  -1 32475.2 1394.92   2
   7  11  -1 29887.7 985.675   3
 -11  -7  -1 31341.9 1131.67   3
 -11  -7   2 18820.4 907.452   3
 -18   7   2 21137.6 1144.93   3
   7  11   2 20543.2 1220.18   2
  -7  18   2 18891.4 1240.25   4
   7  11   2 20754.5 1311.00   4
  -7  18   2 18507.4 1061.09   2
   7  11   2 19033.4 1073.24   3
  18 -11   2 19092.7 870.841   1
  11 -18   2 19171.4 717.304   3
  11 -18   2 19580.3 1048.14   1
 -18   7   2 19265.8 833.155   2
   7  11   2 19167.6 945.720   1
 -11  -7   5 26316.3 1272.49   4
 -11  -7   5 27987.0 1370.16   2
   7  11   5 32486.0 1302.14   1
  -7  18   5 33297.9 1667.58   4
  11 -18   5 28933.8 1235.63   3
   7  11   5 31786.7 1711.69   4
 -18   7   5 25784.0 1241.16   4
  -7  18   5 28757.0 1336.48   2
   7  11   5 30890.6 1694.63   2
  -7  18   8 5168.24 777.017   2
 -18   7   8 2773.30 311.714   4
  -7  18   8 4414.47 703.207   4
   7  11   8 5082.30 827.449   4
  18 -10  -8 2572.96 842.968   1
  -8  18  -8 5231.49 913.360   2
  10 -18  -8 4046.82 748.300   1
  -8  18  -8 3756.34 654.349   4
   8  10  -8 5177.05 1003.47   1
   8  10  -8 4899.12 661.582   2
   8  10  -8 3206.26 415.815   4
  -8  18  -8 4417.90 602.005   3
 -10  -8  -8 3596.22 844.045   3
 -18   8  -8 3473.84 785.133   3
   8  10  -5 12656.6 699.659   3
  10 -18  -5 13701.8 1073.12   1
   8  10  -5 14102.4 1248.35   1
  -8  18  -5 13016.9 1048.28   4
  -8  18  -5 12569.6 1178.31   2
  10 -18  -5 11717.1 848.933   2
 -18   8  -5 14679.5 1035.31   3
   8  10  -5 13360.2 939.008   4
   8  10  -5 13970.5 935.831   2
  -8  18  -5 14078.4 584.385   3
 -10  -8  -5 12859.4 1092.31   3
  18 -10  -5 13919.7 1220.32   1
  10 -18  -2 6926.11 572.411   3
 -18   8  -2 6245.33 563.495   1
  10 -18  -2 7767.05 738.528   1
  -8  18  -2 5666.32 738.160   4
   8  10  -2 7642.42 782.034   4
  -8  18  -2 6694.22 766.309   2
   8  10  -2 8101.77 715.729   2
 -10  -8  -2 6835.84 617.930   3
   8  10  -2 7623.37 510.439   3
  18 -10  -2 7353.81 777.574   1
 -18   8  -2 7789.05 679.588   3
 -10  -8   1 22127.1 903.784   3
 -18   8   1 23940.4 1188.83   3
  10 -18   1 24014.0 1171.92   1
  -8  18   1 24016.7 1364.05   4
   8  10   1 20704.1 995.244   1
   8  10   1 23606.4 1372.14   4
  -8  18   1 21191.9 1147.52   2
   8  10   1 22077.4 1054.96   3
  18 -10   1 21159.7 970.535   1
   8  10   1 24093.8 1295.57   2
  10 -18   1 23424.0 721.253   3
 -18   8   1 18985.2 950.503   2
  -8  18   4 11651.4 1018.85   4
 -10  -8   4 9715.25 828.665   4
  18 -10   4 12251.6 514.195   1
   8  10   4 13130.1 1118.45   4
 -18   8   4 11662.7 902.157   4
  10 -18   4 12214.4 693.531   3
  -8  18   4 13144.8 863.836   2
   8  10   4 12258.0 773.875   1
   8  10   4 13327.0 1101.73   2
 -18   8   7 4132.51 513.430   4
   8  10   7 5071.45 878.740   2
 -10  -8   7 4716.50 525.018   4
  -8  18   7 6531.83 805.968   4
   8  10   7 6097.10 832.325   4
 -18   8   7 5119.54 522.070   4
   8  10   7 5078.61 631.862   1
  -8  18   7 6203.60 756.758   2
  -9  18  -9 2850.47 590.588   4
  -9  18  -9 3494.38 755.594   1
   9 -18  -9 2681.63 673.826   1
  18  -9  -9 2030.92 748.489   1
   9   9  -9 3604.59 598.550   2
   9   9  -9 2955.53 923.170   1
   9 -18  -9 2005.36 842.665   3
  -9  -9  -9 3748.88 914.132   3
  -9  18  -9 1908.34 473.258   3
 -18   9  -9 2884.37 706.845   3
  -9  18  -9 3729.99 849.985   2
  -9  18  -6-55.9328 383.068   4
  18  -9  -6 653.226 546.593   1
   9 -18  -6 1043.61 514.693   1
  -9  18  -6 766.903 302.029   3
  -9  18  -6 430.414 546.132   2
   9   9  -6 1284.37 714.735   1
   9   9  -6 566.461 299.690   4
   9   9  -6 823.164 340.977   2
  -9  -9  -6 388.988 480.969   3
 -18   9  -6 184.530 431.404   3
  -9  18  -3 7473.01 357.141   3
   9 -18  -3 6374.13 689.197   1
 -18   9  -3 7450.31 561.675   1
  -9  18  -3 7778.44 834.354   4
  -9  18  -3 6640.27 798.425   2
   9   9  -3 6847.36 725.919   4
   9   9  -3 7099.77 661.308   2
  -9  -9  -3 6433.97 680.073   3
  18  -9  -3 8303.75 906.259   1
 -18   9  -3 7932.37 721.796   3
   9   9  -3 6947.77 522.448   3
  -9  -9   0-80.6698 204.042   3
   9 -18   0 12.1230 147.597   3
 -18   9   0-76.5965 282.268   3
 -18   9   0-223.368 259.349   2
  -9  18   0 142.930 335.110   4
  18  -9   0 89.5310 284.820   1
  -9  18   0 118.295 289.704   2
 -18   9   0-63.4819 331.953   1
   9   9   0 54.8015 264.015   3
   9   9   0 49.7966 328.861   2
   9 -18   0 38.4273 312.103   1
   9   9   0 180.671 362.223   4
   9   9   3 7154.60 573.068   1
 -18   9   3 7400.48 798.185   3
  -9  18   3 7417.92 825.049   4
   9   9   3 7838.20 888.565   4
  -9  18   3 6780.11 622.391   2
   9 -18   3 7432.08 443.100   3
 -18   9   3 6860.06 409.320   2
  18  -9   3 7861.28 478.374   1
   9   9   3 8112.55 843.917   2
  -9  18   6 608.923 349.338   2
 -18   9   6 191.614 310.686   4
  -9  18   6 929.279 466.404   4
   9   9   6 1697.93 561.357   2
  -9  -9   6 689.820 356.805   4
   9   9   6 1061.78 353.531   1
 -18   9   6 684.839 348.509   4
   9   9   6 1291.14 556.820   4
  -9  18   9 3323.48 616.927   4
  18  -8 -10 515.394 617.729   1
 -10  18 -10 1972.36 719.926   1
   8 -18 -10 2353.69 653.198   1
  10   8 -10 2260.51 847.249   1
   8 -18 -10 1703.30 979.021   3
  -8 -10 -10 2597.31 966.448   3
 -10  18 -10 2730.77 608.556   3
 -18  10 -10 1040.93 614.220   3
 -10  18 -10 1533.54 778.421   2
  10   8  -7 4760.45 939.132   1
 -10  18  -7 6246.75 803.576   4
 -10  18  -7 5544.46 955.940   2
  10   8  -7 5667.29 623.884   2
  10   8  -7 6639.86 608.341   4
  18  -8  -7 6322.09 995.335   1
  -8 -10  -7 4227.47 805.800   3
 -10  18  -7 6457.00 615.893   3
   8 -18  -7 5004.87 802.368   1
 -18  10  -7 5528.09 794.544   3
   8 -18  -4 10648.6 899.191   1
  10   8  -4 11713.5 1120.77   1
 -10  18  -4 13977.3 1091.22   4
 -10  18  -4 11803.6 1069.34   2
 -18  10  -4 12144.1 631.882   1
 -10  18  -4 12410.9 537.540   3
  10   8  -4 13479.4 933.328   4
  10   8  -4 12142.8 808.360   2
  18  -8  -4 10650.1 1044.69   1
  -8 -10  -4 12047.5 939.750   3
 -18  10  -4 12564.8 897.446   3
  10   8  -4 11449.3 676.012   3
   8 -18  -1 23869.8 811.699   3
 -10  18  -1 24296.8 1357.15   4
 -10  18  -1 24769.6 1310.86   2
  10   8  -1 24911.1 1359.66   4
 -18  10  -1 23984.3 1197.66   1
  10   8  -1 26054.1 1232.44   2
  10   8  -1 23692.1 958.806   3
  18  -8  -1 24746.3 1279.73   1
   8 -18  -1 22082.6 1153.14   1
  -8 -10  -1 22516.1 913.507   3
 -18  10  -1 25242.3 1117.68   3
 -18  10   2 4485.00 435.682   2
  -8 -10   2 5660.31 443.417   3
 -18  10   2 6707.89 712.407   3
  18  -8   2 5723.72 467.994   1
 -10  18   2 6260.14 751.407   4
 -10  18   2 5267.68 574.314   2
  10   8   2 6189.67 804.714   4
   8 -18   2 4321.47 249.473   3
  10   8   2 5751.84 527.276   1
  10   8   2 5492.43 703.872   2
  -8 -10   5 10712.0 869.570   4
  10   8   5 12263.2 1151.65   2
  10   8   5 13245.0 737.033   1
 -10  18   5 15116.9 1120.51   4
 -18  10   5 12151.0 885.861   4
  10   8   5 15225.0 1216.84   4
 -10  18   5 13757.9 865.296   2
 -10  18   8 4949.26 662.424   2
 -10  18   8 3347.57 617.914   4
  10   8   8 3722.91 769.766   4
 -18  10   8 3358.92 393.466   4
  18  -7  -8 2844.25 865.551   1
 -11  18  -8 1641.90 625.692   2
  11   7  -8 3553.94 518.829   2
  11   7  -8 4034.11 947.954   1
   7 -18  -8 3182.60 822.283   3
  -7 -11  -8 4809.40 923.055   3
 -11  18  -8 3074.32 641.663   4
 -11  18  -8 5191.88 642.448   3
 -18  11  -8 3400.42 745.047   3
   7 -18  -8 4378.62 759.918   1
  11   7  -5 31312.4 1332.88   4
   7 -18  -5 31233.6 1503.60   1
  11   7  -5 28021.8 1777.61   1
 -11  18  -5 31644.9 1799.86   2
 -11  18  -5 27410.5 1487.56   4
 -18  11  -5 31748.7 1434.66   3
 -18  11  -5 28183.9 885.014   1
  11   7  -5 30486.5 1234.95   2
  18  -7  -5 30136.2 1762.49   1
  -7 -11  -5 31449.8 1579.57   3
 -11  18  -5 32520.6 1023.83   3
 -11  18  -2 19989.5 709.108   3
 -11  18  -2 17116.7 1156.75   4
 -11  18  -2 18983.3 1226.25   2
  11   7  -2 18681.6 1014.69   2
  11   7  -2 17544.0 1165.13   4
 -18  11  -2 18818.6 1001.56   1
   7 -18  -2 17778.8 1052.69   1
  18  -7  -2 18202.4 1198.39   1
  -7 -11  -2 18167.0 912.870   3
  11   7  -2 18910.8 860.698   3
 -18  11  -2 17468.4 951.710   3
  -7 -11   1 31239.7 927.127   3
 -18  11   1 31398.3 1359.27   3
 -11  18   1 30677.9 1504.50   4
  11   7   1 31286.1 1580.91   4
 -11  18   1 30649.4 1378.17   2
  11   7   1 27137.9 1190.25   3
   7 -18   1 28674.0 532.882   3
  11   7   1 31133.3 1452.72   2
  18  -7   1 30279.4 1180.83   1
  11   7   4 19157.0 1320.03   2
 -18  11   4 19159.7 1146.43   4
  11   7   4 18992.9 1328.99   4
 -11  18   4 20352.6 988.872   2
 -11  18   4 17028.8 1166.32   4
  11   7   4 17809.1 774.319   1
 -18  11   7 5197.97 547.638   4
 -11  18   7 5922.25 761.494   4
  11   7   7 7221.10 927.743   4
  11   7   7 4991.33 427.655   1
 -11  18   7 6269.53 663.522   2
  18  -6  -9 777.229 628.279   1
 -12  18  -9 1309.30 700.086   2
  12   6  -9 1035.97 760.489   1
 -12  18  -9 459.912 448.750   1
   6 -18  -9 806.807 702.555   3
  12   6  -9 386.761 311.403   2
   6 -18  -9 578.551 504.750   1
  -6 -12  -9 777.371 307.708   1
  -6 -12  -9 1404.52 699.443   3
 -12  18  -9 1235.07 485.076   3
 -18  12  -9 1910.29 686.456   3
 -12  18  -9-271.158 409.974   4
 -12  18  -6 605.135 436.610   4
   6 -18  -6 416.584 326.531   1
 -18  12  -6 160.309 177.016   1
 -12  18  -6 1001.10 561.695   2
  12   6  -6 716.223 668.867   1
   6 -18  -6-170.942 538.981   3
  12   6  -6 146.088 241.187   2
  -6 -12  -6 303.528 518.370   3
  12   6  -6 3.36051 257.195   4
 -12  18  -6 346.637 289.859   3
 -18  12  -6 1035.58 470.197   3
  18  -6  -6 636.563 560.946   1
 -12  18  -3 18479.8 1290.04   2
  12   6  -3 18929.5 1321.56   1
 -12  18  -3 16890.7 1179.43   4
  18  -6  -3 16636.9 1218.40   1
  12   6  -3 17801.8 1093.62   4
   6 -18  -3 19966.9 1137.67   1
  12   6  -3 18236.0 993.339   2
  -6 -12  -3 16420.5 990.126   3
 -18  12  -3 17469.9 926.375   1
 -18  12  -3 16504.1 943.472   3
  12   6  -3 15260.1 808.771   3
 -12  18  -3 18379.0 702.451   3
  12   6   0-155.639 300.601   2
 -12  18   0-35.6761 330.133   2
  18  -6   0-177.977 353.575   1
   6 -18   0 157.887 118.435   3
 -18  12   0 101.809 279.960   3
   6 -18   0-315.860 302.824   1
  12   6   0 238.887 377.042   4
 -12  18   0-209.011 337.802   4
  12   6   0 197.836 283.616   3
 -18  12   0-105.166 341.311   1
  -6 -12   0 126.460 188.659   3
  12   6   3 12096.3 1056.70   2
  12   6   3 9408.15 561.975   1
 -18  12   3 9668.72 544.885   2
 -12  18   3 11188.8 983.101   4
  18  -6   3 9860.36 487.827   1
 -12  18   3 10218.7 730.460   2
  12   6   3 9128.24 965.736   4
 -12  18   6 931.022 343.163   2
  -6 -12   6 500.817 348.431   4
  12   6   6 956.968 230.147   1
 -18  12   6 1579.44 406.054   4
 -12  18   6 893.583 413.084   4
  12   6   6 769.599 479.024   4
 -12  18   9 4668.88 620.971   4
 -13  18 -10 1648.85 588.689   4
  18  -5 -10 2114.11 816.766   1
 -18  13 -10 604.124 589.421   4
 -13  18 -10 2507.06 866.451   2
 -13  18 -10 650.747 571.331   1
   5 -18 -10 1207.32 852.692   3
  13   5 -10 367.114 704.051   1
  -5 -13 -10 2243.54 866.067   3
 -13  18 -10 1210.44 552.483   3
 -18  13 -10 530.274 559.524   3
   5 -18 -10 1008.29 561.095   1
   5 -18  -7 7233.44 824.399   1
 -13  18  -7 8070.28 1130.89   2
 -13  18  -7 8172.03 906.174   4
  13   5  -7 10244.1 1243.19   1
   5 -18  -7 9012.86 1149.99   3
  18  -5  -7 8858.49 1148.82   1
  13   5  -7 6573.70 589.404   2
  -5 -13  -7 8351.58 1020.34   3
 -13  18  -7 7485.93 699.976   3
 -18  13  -7 7730.77 871.451   3
  -5 -13  -7 9112.79 718.381   1
  13   5  -4 7191.32 722.439   4
  13   5  -4 5570.54 867.355   1
 -13  18  -4 4946.81 829.326   2
  -5 -13  -4 7883.04 782.247   3
 -13  18  -4 7498.57 835.267   4
   5 -18  -4 7977.93 795.918   1
  18  -5  -4 8809.38 991.976   1
   5 -18  -4 7890.56 803.719   3
  13   5  -4 6699.43 599.454   2
 -18  13  -4 8252.88 634.985   1
 -13  18  -4 7317.52 514.128   3
 -18  13  -4 6837.14 680.760   3
 -18  13  -1 23320.1 1073.97   3
 -13  18  -1 22531.5 886.534   3
  13   5  -1 24341.8 1332.74   1
 -13  18  -1 22590.6 1350.66   4
 -13  18  -1 20796.1 1249.22   2
  13   5  -1 24974.0 1351.12   4
   5 -18  -1 26023.4 916.501   3
  18  -5  -1 22817.7 1256.65   1
   5 -18  -1 23790.2 1199.68   1
 -18  13  -1 20327.7 1147.26   1
  -5 -13  -1 22408.5 852.662   3
  13   5  -1 20588.6 1001.43   3
  13   5  -1 22355.5 1167.55   2
  -5 -13   2 4026.59 313.449   3
 -18  13   2 4359.81 609.227   3
 -13  18   2 4019.33 507.387   2
 -18  13   2 4330.02 481.765   2
 -13  18   2 4572.40 670.661   4
  13   5   2 4889.65 736.088   4
  18  -5   2 4050.87 439.779   1
  13   5   2 4082.96 665.958   2
 -18  13   5 228.193 293.709   4
  13   5   5 770.869 477.043   4
  13   5   5 358.505 200.224   1
 -13  18   5 552.558 284.162   2
 -13  18   5 539.127 390.599   4
 -13  18   8 8081.76 795.894   4
 -18  13   8 7571.94 627.031   4
 -14  18  -8 3265.33 830.261   2
   4 -18  -8 5118.62 763.314   1
 -14  18  -8 3627.92 673.665   4
  -4 -14  -8 6976.86 681.994   1
  14   4  -8 6017.85 1033.87   1
   4 -18  -8 5877.42 1051.81   3
  14   4  -8 5233.09 500.739   2
  -4 -14  -8 4466.62 897.608   3
 -14  18  -8 7312.95 767.667   3
 -18  14  -8 5480.54 792.332   3
  18  -4  -8 3881.67 945.234   1
 -18  14  -5 20233.0 945.433   1
 -14  18  -5 20592.3 1506.02   2
 -14  18  -5 15665.1 1210.80   4
   4 -18  -5 23267.4 1271.73   1
  14   4  -5 17969.7 1465.83   1
   4 -18  -5 19046.7 1317.69   3
  -4 -14  -5 20060.0 1313.10   3
  14   4  -5 19240.1 938.242   2
 -18  14  -5 19395.6 1091.48   3
 -14  18  -5 21464.5 950.732   3
  18  -4  -5 19848.4 1495.89   1
 -14  18  -2 11874.4 654.771   3
 -14  18  -2 13617.5 1089.88   4
 -14  18  -2 12289.2 1036.20   2
   4 -18  -2 12636.4 910.113   1
  18  -4  -2 11708.6 1008.49   1
  14   4  -2 12371.2 955.656   4
   4 -18  -2 12383.3 776.442   3
  -4 -14  -2 11119.1 726.945   3
  14   4  -2 12177.0 1090.36   1
  14   4  -2 11933.6 821.504   2
 -18  14  -2 11098.0 865.222   1
 -18  14  -2 10999.1 748.550   3
  -4 -14   1 25980.6 678.114   3
 -14  18   1 24683.7 1197.35   2
 -18  14   1 25819.7 1219.10   3
  14   4   1 26127.0 1244.21   1
 -18  14   1 26197.3 1208.85   2
  14   4   1 25099.2 1450.66   4
 -14  18   1 22899.1 1354.51   4
  18  -4   1 24636.1 1085.69   1
  14   4   1 28988.5 1422.77   2
  14   4   4 23944.8 1532.71   2
  14   4   4 22099.0 723.739   1
 -18  14   4 21488.3 1257.52   4
  14   4   4 23345.2 907.593   1
 -18  14   4 20685.5 618.188   2
  14   4   4 25346.8 1542.68   4
 -14  18   4 24530.5 1014.23   2
 -14  18   4 23541.9 1352.99   4
 -14  18   7 10706.1 696.551   2
 -18  14   7 9835.49 784.127   4
 -14  18   7 11345.0 958.081   4
  -3 -15  -9 1985.25 502.166   1
   3 -18  -9 2563.62 954.459   3
 -18  15  -9 2006.83 669.020   4
 -15  18  -9 1427.12 568.772   4
   3 -18  -9 2325.32 568.824   1
 -15  18  -9 846.278 720.211   2
  15   3  -9 2769.60 886.835   1
  -3 -15  -9 1095.97 676.751   3
 -15  18  -9 3130.89 627.907   3
 -18  15  -9 2675.37 653.399   3
 -15  18  -9 1503.29 539.559   1
  18  -3  -9 2169.59 797.551   1
 -15  18  -6 9294.13 1118.98   2
 -15  18  -6 7686.80 909.549   4
 -18  15  -6 8127.79 636.770   1
  15   3  -6 7514.25 1058.71   1
   3 -18  -6 8910.59 870.439   1
  18  -3  -6 8883.53 1089.05   1
   3 -18  -6 9301.78 1049.14   3
  -3 -15  -6 9338.14 1032.17   3
  -3 -15  -6 8303.37 751.047   1
  15   3  -6 10580.5 681.321   2
 -18  15  -6 9060.57 830.569   3
 -15  18  -6 8742.24 709.984   3
 -18  15  -3 2206.29 404.896   3
 -18  15  -3 3154.60 503.420   1
 -15  18  -3 2893.00 646.126   4
 -15  18  -3 3795.11 729.263   2
   3 -18  -3 3573.61 565.360   1
  18  -3  -3 3854.10 741.427   1
  15   3  -3 3907.02 585.005   4
   3 -18  -3 2692.29 523.195   3
  -3 -15  -3 3324.70 502.223   3
  15   3  -3 3311.82 457.622   2
  15   3  -3 5228.13 807.951   1
 -15  18  -3 3549.81 418.574   3
  18  -3   0 8466.16 781.954   1
 -18  15   0 6959.97 665.743   3
   3 -18   0 6763.02 310.888   3
 -15  18   0 6857.61 595.709   3
 -18  15   0 8432.07 870.798   4
 -18  15   0 7197.91 754.136   2
 -15  18   0 7623.80 864.561   4
 -15  18   0 7732.50 769.513   2
  15   3   0 6937.57 761.757   1
   3 -18   0 7642.12 327.446   3
  15   3   0 6572.73 810.603   4
  -3 -15   0 7836.07 414.704   3
  15   3   0 6284.18 707.601   2
  15   3   3 5487.08 794.909   2
  15   3   3 8250.78 617.557   1
 -18  15   3 7065.56 785.129   4
 -15  18   3 6606.23 596.822   2
 -15  18   3 7187.60 823.821   4
 -18  15   3 7024.77 517.634   2
  15   3   3 7704.34 890.343   4
  18  -3   3 5773.54 411.955   1
 -15  18   6 562.990 272.915   2
 -18  15   6 161.075 302.338   4
 -15  18   6 291.242 354.243   4
 -15  18   9 582.624 348.793   4
 -18  16 -10 409.829 793.027   2
 -18  16 -10 407.432 546.218   4
 -16  18 -10 2140.89 825.613   2
 -16  18 -10 348.529 507.451   4
   2 -18 -10 1540.21 927.059   3
  -2 -16 -10 692.235 707.495   3
   2 -18 -10 1555.46 556.684   1
  16   2 -10-784.851 801.445   1
 -16  18 -10 2361.41 648.043   3
 -18  16 -10 587.416 562.206   3
  18  -2 -10 2299.50 875.091   1
 -16  18  -7 470.548 649.418   2
  -2 -16  -7 114.619 316.951   1
   2 -18  -7 816.216 400.068   1
 -18  16  -7 150.654 495.843   4
 -16  18  -7 541.365 452.165   4
  16   2  -7 1152.88 654.912   1
   2 -18  -7 787.273 556.247   3
  -2 -16  -7-38.6306 643.628   3
  18  -2  -7 702.475 626.717   1
 -18  16  -7 589.117 410.101   3
 -16  18  -7 172.920 374.000   3
  16   2  -7 763.138 263.113   2
 -18  16  -4 2126.42 411.205   3
 -16  18  -4 1498.69 335.732   3
  16   2  -4 1441.12 325.057   2
 -16  18  -4 2455.69 538.164   4
 -16  18  -4 1875.33 649.711   2
  16   2  -4 1867.37 633.372   1
 -18  16  -4 1041.23 494.002   4
 -18  16  -4 2021.69 431.348   1
   2 -18  -4 2184.45 557.490   3
  18  -2  -4 2131.53 670.887   1
  -2 -16  -4 2161.99 579.543   3
   2 -18  -4 2779.75 586.204   1
 -18  16  -1 2885.56 436.393   3
 -16  18  -1 3873.45 473.109   3
 -18  16  -1 2827.71 618.863   4
  16   2  -1 4081.46 693.552   1
 -16  18  -1 3013.16 600.875   4
 -18  16  -1 3119.99 585.937   2
  16   2  -1 2464.72 562.664   4
   2 -18  -1 3151.28 347.551   3
  18  -2  -1 2327.11 562.090   1
  -2 -16  -1 3338.27 374.898   3
 -16  18  -1 3853.79 655.465   2
  16   2  -1 2865.69 483.353   2
  16   2   2 8547.59 890.951   2
 -18  16   2 8249.11 673.421   2
 -18  16   2 11109.5 1000.74   4
 -16  18   2 8762.39 881.213   4
 -16  18   2 8761.93 709.404   2
  18  -2   2 10058.6 668.727   1
  16   2   2 9118.73 706.833   1
  16   2   2 8937.34 949.165   4
 -18  16   5 2289.51 535.665   4
 -16  18   5 2612.03 592.096   4
 -16  18   5 3269.16 389.509   2
 -18  16   5 2160.13 239.236   2
 -18  16   8 2470.47 483.857   4
 -16  18   8 3840.15 597.048   4
   1 -18  -8 1803.87 750.796   3
  -1 -17  -8 2774.27 577.117   1
  18  -1  -8 792.933 700.308   1
 -18  17  -8 1962.39 650.970   4
 -18  17  -8 1712.31 755.652   2
 -17  18  -8 2055.61 619.925   4
   1 -18  -8 1863.25 515.988   1
  -1 -17  -8 1127.66 651.441   3
  17   1  -8 1259.54 755.933   1
 -17  18  -8 2500.69 796.399   2
 -17  18  -8 2059.68 541.045   3
 -18  17  -8 2295.50 599.283   3
  18  -1  -5 15978.3 731.039   2
  17   1  -5 13883.2 1368.28   1
 -18  17  -5 14390.5 1355.46   2
 -18  17  -5 14854.6 1228.32   4
 -17  18  -5 14705.7 1363.72   2
 -17  18  -5 16937.4 1280.20   4
 -18  17  -5 15287.6 952.675   1
  18  -1  -5 16473.7 1434.67   1
   1 -18  -5 19717.3 1185.81   1
   1 -18  -5 15542.0 1212.23   3
  -1 -17  -5 16658.4 1208.08   3
  -1 -17  -5 15849.4 1040.18   1
 -18  17  -5 17461.9 991.082   3
  17   1  -5 16560.9 826.340   2
 -17  18  -5 15881.2 906.525   3
 -18  17  -2 14149.8 824.725   3
 -17  18  -2 13687.5 781.009   3
  18  -1  -2 13079.9 850.054   2
 -18  17  -2 12037.0 1058.54   4
 -18  17  -2 12116.3 1085.66   2
 -17  18  -2 12717.4 1080.75   4
  17   1  -2 12643.3 1110.15   1
  18  -1  -2 13644.2 1139.80   1
   1 -18  -2 13233.4 795.513   3
  -1 -17  -2 15386.5 831.523   3
 -17  18  -2 13214.3 1122.46   2
  17   1  -2 13594.5 892.143   2
  17   1   1 9880.34 918.108   2
 -18  17   1 9538.45 781.162   3
  18  -1   1 9613.76 781.428   1
 -18  17   1 9820.10 951.646   4
 -17  18   1 10382.5 979.443   4
 -18  17   1 9727.71 856.063   2
 -17  18   1 9427.36 807.389   2
  17   1   1 9793.00 788.813   1
 -18  17   4 7498.87 832.648   4
 -17  18   4 8802.61 884.268   4
 -18  17   4 8580.38 539.971   2
  17   1   4 5830.11 375.618   1
 -17  18   4 8852.26 600.893   2
 -18  17   7 30397.4 1461.61   4
 -17  18   7 27530.4 1445.82   4
 -18  18  -9 915.134 803.333   2
 -18  18  -9-133.038 462.455   4
   0 -18  -9-380.494 443.022   1
   0 -18  -9 23.1470 659.286   3
  18   0  -9 256.680 654.300   1
 -18  18  -9-525.646 473.341   3
 -18  18  -6 8187.71 1156.13   2
 -18  18  -6 8701.62 1013.98   4
   0 -18  -6 9263.30 852.623   1
  18   0  -6 6969.37 1035.71   1
   0 -18  -6 7890.34 988.962   3
 -18  18  -6 7293.09 729.663   3
  18   0  -6 7117.26 496.578   2
 -18  18  -3 294.258 262.902   3
  18   0  -3 71.9790 267.974   2
 -18  18  -3 580.716 398.810   4
 -18  18  -3-132.398 441.781   2
  18   0  -3-804.939 547.571   1
   0 -18  -3-42.7509 328.000   3
 -18  18   0 4650.50 703.083   2
  18   0   0 4549.63 632.100   2
 -18  18   0 4532.81 580.535   3
  18   0   0 4294.87 616.484   1
 -18  18   0 4660.00 716.607   4
   0 -18   0 4011.65 258.117   3
 -18  18   3 446.689 421.219   4
 -18  18   3 217.742 258.699   2
  18   0   3 103.113 263.428   1
 -18  18   6 4175.57 653.531   4
 -18  18   6 2598.84 274.711   2
   0  19 -10 5900.16 1252.72   1
   0  19 -10 5556.77 992.992   2
 -19   0 -10 6792.68 1133.85   3
  19 -19 -10 4506.84 1016.21   1
   0  19  -7-111.184 521.681   2
   0  19  -7 405.540 391.235   4
  19 -19  -7 374.732 567.097   1
 -19   0  -7-103.302 557.794   3
   0  19  -4 15446.1 1259.64   4
  19 -19  -4 13996.7 1186.33   1
   0  19  -4 13153.9 1127.05   2
 -19   0  -4 12713.0 1034.91   3
 -19   0  -1-64.9154 315.549   3
   0  19  -1 59.9403 435.047   4
  19 -19  -1-392.188 414.546   1
   0  19  -1-70.1426 423.063   2
 -19   0   2 22585.3 1272.55   3
   0  19   2 21348.6 1468.46   4
  19 -19   2 21495.0 1138.60   1
   0  19   2 23731.3 1392.71   2
   0  19   5-651.031 452.272   2
 -19   0   5-33.1256 264.592   2
   0  19   5-318.016 446.655   4
   0  19   8 16221.8 1469.55   2
   0  19   8 16487.9 1411.21   4
   1  18  -8 770.148 706.995   1
  -1  19  -8-557.813 512.670   2
   1  18  -8-193.251 368.451   4
  -1  19  -8 1420.33 1250.01   4
   1  18  -8 177.847 449.679   2
  19 -18  -8 1060.39 639.020   1
  18 -19  -8 139.877 530.874   1
 -18  -1  -8-800.762 631.521   3
 -19   1  -8-200.341 556.756   3
  -1  19  -5 3071.48 680.904   4
   1  18  -5 2850.19 661.837   4
  -1  19  -5 2683.96 645.824   2
   1  18  -5 3300.53 654.186   2
   1  18  -5 2247.93 165.474   3
  19 -18  -5 1906.30 637.249   1
   1  18  -5 1697.24 132.603   3
 -18  -1  -5 3272.32 674.554   3
 -19   1  -5 1098.04 514.225   3
  18 -19  -5 3074.65 723.861   1
 -19   1  -2 294.125 361.694   3
  19 -18  -2 603.620 467.122   1
  18 -19  -2-636.485 425.641   1
  -1  19  -2 123.923 419.269   4
   1  18  -2-156.926 377.070   4
  -1  19  -2 401.944 341.249   2
   1  18  -2-9.87070 350.901   2
 -18  -1  -2 1022.84 425.786   3
  19 -18   1 1322.31 402.831   1
 -18  -1   1 915.209 376.284   3
 -19   1   1 1377.27 436.892   3
  -1  19   1 2260.94 574.194   4
   1  18   1 2065.90 614.233   4
  18 -19   1 1529.57 423.520   1
  -1  19   1 1575.94 492.997   2
   1  18   1 1258.53 422.930   2
 -18  -1   4-105.126 287.237   2
  -1  19   4-144.114 485.615   4
 -19   1   4 329.284 291.112   2
   1  18   4-78.3952 473.305   4
  -1  19   4 315.626 370.284   2
   1  18   4 464.421 396.419   2
  -1  19   7 533.404 477.954   2
   1  18   7-207.261 478.747   2
   1  18   7-432.677 447.876   4
  -1  19   7-607.816 476.230   4
  -1  19  10 57.6057 497.913   4
   1  18  10 1618.21 684.842   4
  -2  19  -9 1122.09 768.672   1
   2  17  -9 1156.20 795.973   1
  -2  19  -9 516.049 405.983   4
  -2  19  -9 223.543 497.482   2
   2  17  -9 322.344 439.103   2
  19 -17  -9 1135.73 780.532   1
 -17  -2  -9 372.627 646.359   3
 -19   2  -9 1720.44 768.728   3
  17 -19  -9-215.408 530.957   1
   2  17  -6 579.642 486.545   4
  -2  19  -6 1322.98 492.970   2
   2  17  -6-127.457 378.207   2
  19 -17  -6-130.616 522.439   1
   2  17  -6 726.844 283.361   3
  -2  19  -6 942.088 497.018   4
  -2  19  -6 125.822 137.357   3
 -17  -2  -6 104.283 487.228   3
 -19   2  -6 740.489 505.762   3
  17 -19  -6 1572.38 633.419   1
  19 -17  -3 12041.3 1044.26   1
  -2  19  -3 10993.7 1042.81   2
  -2  19  -3 11352.6 1059.03   4
   2  17  -3 11996.1 1076.27   4
   2  17  -3 11225.1 990.625   2
  17 -19  -3 13529.1 1075.27   1
 -17  -2  -3 12031.3 935.897   3
 -19   2  -3 10282.4 899.230   3
 -17  -2   0 23.1462 302.069   3
 -19   2   0 329.701 338.553   3
  17 -19   0 806.942 391.676   1
   2  17   0-17.6463 445.337   4
  -2  19   0 478.000 472.912   4
  19 -17   0 544.472 400.949   1
  -2  19   0 384.592 349.333   2
   2  17   0 152.295 342.052   2
  19 -17   3 8081.13 680.965   1
 -17  -2   3 7603.26 773.550   3
 -19   2   3 7050.87 805.879   3
  -2  19   3 6965.45 860.005   4
   2  17   3 8242.14 930.224   4
 -17  -2   3 5761.14 611.172   2
 -19   2   3 7168.41 591.768   2
  -2  19   3 7351.60 817.735   2
   2  17   3 8176.13 847.313   2
  17 -19   3 8234.78 718.733   1
  -2  19   6 3330.55 631.683   2
   2  17   6 3374.71 665.488   2
 -17  -2   6 3181.55 474.143   2
  -2  19   6 4029.21 748.959   4
   2  17   6 3425.37 730.762   4
  -2  19   9 3328.98 814.698   2
   2  17   9 3147.13 836.713   2
  -2  19   9 2142.79 611.903   4
   2  17   9 1391.64 622.612   4
  16 -19 -10 13655.3 1432.09   1
  19 -16 -10 10067.2 1304.58   1
   3  16 -10 12276.4 1606.79   1
  -3  19 -10 12606.0 1340.72   2
  -3  19 -10 14198.1 1541.90   1
   3  16 -10 14750.7 1352.67   2
 -16  -3 -10 11862.2 1388.99   3
 -19   3 -10 14498.7 1467.77   3
  -3  19  -7 700.073 435.868   4
  -3  19  -7 17.6304 417.373   2
   3  16  -7 1209.37 496.193   2
   3  16  -7-350.598 336.577   3
  -3  19  -7 548.133 279.783   3
  19 -16  -7-31.5096 564.175   1
   3  16  -7 532.254 345.428   4
 -16  -3  -7 159.214 530.356   3
 -19   3  -7-196.021 543.734   3
  16 -19  -7 1289.37 652.207   1
   3  16  -4 23790.0 1410.77   4
  -3  19  -4 23554.9 1468.15   2
  16 -19  -4 20254.7 1074.50   2
  19 -16  -4 21873.5 1442.44   1
   3  16  -4 25088.2 1431.72   2
  16 -19  -4 24372.0 1489.41   1
   3  16  -4 19621.8 531.145   3
 -16  -3  -4 19868.1 1254.71   3
 -19   3  -4 20443.3 1273.92   3
  -3  19  -4 22819.6 1432.97   4
 -16  -3  -1 1240.40 380.111   3
 -19   3  -1 1878.78 449.711   3
  19 -16  -1 1166.34 402.797   1
  -3  19  -1 1606.54 547.130   4
   3  16  -1 2012.21 558.356   4
   3  16  -1 1524.93 236.699   3
  -3  19  -1 1972.76 502.601   2
   3  16  -1 2103.66 502.917   2
  16 -19  -1 1471.96 447.641   1
 -16  -3   2 40659.6 1537.91   3
 -19   3   2 47544.5 1786.56   3
  16 -19   2 48256.4 1657.50   1
  -3  19   2 46610.5 2062.52   4
   3  16   2 47173.8 2050.12   4
  19 -16   2 47819.0 1541.11   1
  -3  19   2 42978.6 1728.84   2
 -19   3   2 45488.5 1460.03   2
   3  16   2 48552.5 1900.35   2
  16 -19   2 44734.7 1445.32   3
  -3  19   5 754.156 516.229   4
   3  16   5 26.6441 392.021   2
 -19   3   5 421.307 179.460   2
 -16  -3   5 231.769 298.283   2
   3  16   5 94.8260 495.453   4
  -3  19   5 119.058 337.417   2
  -3  19   8 22603.5 1628.04   2
   3  16   8 21043.6 1625.10   2
  -3  19   8 22186.0 1562.90   4
   3  16   8 23515.2 1643.73   4
  15 -19  -8 1716.74 660.947   1
  -4  19  -8 1592.37 653.886   2
   4  15  -8 2332.13 823.542   1
  -4  19  -8 1558.84 535.759   4
   4  15  -8 921.700 432.160   4
  19 -15  -8 1259.17 608.844   1
   4  15  -8 1219.89 491.967   2
   4  15  -8 1382.99 463.716   3
  -4  19  -8 1113.05 367.662   3
 -15  -4  -8 2404.98 820.953   3
 -19   4  -8 2039.41 682.669   3
  19 -15  -5 4250.84 781.562   1
  15 -19  -5 1306.88 599.303   1
  15 -19  -5 2574.95 451.293   2
  -4  19  -5 3159.67 621.564   4
   4  15  -5 3668.55 642.592   4
   4  15  -5 3780.72 667.571   2
  -4  19  -5 2631.36 613.328   2
 -15  -4  -5 3095.55 741.765   3
 -19   4  -5 1921.24 551.712   3
   4  15  -5 2410.48 289.003   3
 -19   4  -2 1950.27 420.556   3
  15 -19  -2 2180.34 472.145   2
  -4  19  -2 2286.19 526.591   2
  -4  19  -2 1578.68 491.672   4
   4  15  -2 2912.58 565.364   4
  15 -19  -2 2770.17 554.078   1
   4  15  -2 2211.73 243.905   3
   4  15  -2 1966.94 466.838   2
  19 -15  -2 2389.42 532.963   1
 -15  -4  -2 1956.69 433.093   3
 -15  -4   1 808.472 331.090   3
 -19   4   1 1118.49 376.132   3
  -4  19   1 1215.69 515.142   4
  15 -19   1 929.024 319.526   1
   4  15   1 961.093 489.964   4
  19 -15   1 714.067 331.634   1
   4  15   1 1612.66 398.578   3
  -4  19   1 855.277 381.306   2
   4  15   1 952.090 424.173   2
 -19   4   1 947.152 359.051   2
  15 -19   1 1014.28 314.890   3
   4  15   4 52.6438 367.720   2
  -4  19   4-49.1939 448.773   4
   4  15   4 469.069 492.882   4
 -19   4   4 228.380 185.658   2
  15 -19   4 777.011 399.393   3
  19 -15   4-178.017 228.857   1
 -15  -4   4 112.459 291.121   2
  -4  19   4 215.656 368.905   2
  -4  19   7 118.998 423.404   2
   4  15   7-22.2087 489.097   2
  -4  19   7 128.389 451.899   4
   4  15   7 493.252 528.125   4
  -4  19  10 464.599 509.247   4
   4  15  10-95.3805 480.238   4
  19 -14  -9 1185.38 709.162   1
  14 -19  -9 2556.63 734.461   1
  -5  19  -9 1740.47 716.789   2
   5  14  -9 609.418 812.972   1
   5  14  -9 659.699 476.923   2
   5  14  -9 2654.56 650.751   3
  -5  19  -9 970.145 436.971   3
 -14  -5  -9 3065.78 862.121   3
 -19   5  -9 1560.39 675.525   3
  -5  19  -9 924.278 515.156   4
  -5  19  -9 859.482 689.814   1
   5  14  -6 4562.12 455.880   3
  19 -14  -6 5142.45 839.220   1
  14 -19  -6 3719.20 523.384   2
  -5  19  -6 4317.67 725.292   4
  -5  19  -6 5854.91 845.979   2
   5  14  -6 4052.08 609.930   4
   5  14  -6 4616.44 702.732   2
  14 -19  -6 4778.40 789.115   1
 -19   5  -6 4857.58 734.398   3
 -14  -5  -6 5183.95 845.081   3
  -5  19  -6 5199.92 379.839   3
  -5  19  -3 7642.15 869.444   4
  19 -14  -3 8143.13 852.576   1
  14 -19  -3 7531.10 723.611   2
  -5  19  -3 7294.18 854.770   2
   5  14  -3 9019.36 835.219   2
   5  14  -3 8521.31 883.914   4
  14 -19  -3 6927.82 821.195   1
   5  14  -3 7906.93 427.728   3
 -14  -5  -3 8514.70 789.941   3
 -19   5  -3 6523.90 744.108   3
  19 -14   0 2058.41 445.736   1
 -14  -5   0 1862.03 392.460   3
 -19   5   0 1995.39 422.360   2
 -19   5   0 1617.18 424.378   3
   5  14   0 819.623 405.274   4
  -5  19   0 1808.14 461.279   2
  14 -19   0 1900.67 414.745   1
   5  14   0 1477.89 360.767   3
   5  14   0 2404.33 478.772   2
  -5  19   0 1489.03 495.071   4
  14 -19   0 1580.15 311.980   3
 -19   5   0 1961.74 508.526   1
 -14  -5   3 5919.88 646.273   3
 -19   5   3 5821.95 716.930   3
  -5  19   3 4698.83 740.921   4
 -14  -5   3 3508.60 524.483   2
   5  14   3 6201.60 843.077   4
  19 -14   3 5666.02 512.717   1
 -19   5   3 5338.29 439.703   2
  -5  19   3 5047.17 633.195   2
  14 -19   3 4894.86 521.609   3
   5  14   3 5389.06 697.264   2
  -5  19   6 2887.24 547.246   2
   5  14   6 3037.66 659.051   2
 -14  -5   6 3096.76 543.362   2
 -14  -5   6 2525.87 518.907   4
  -5  19   6 2345.45 618.152   4
 -19   5   6 1940.34 449.249   4
  -5  19   9 3587.37 740.728   2
  -5  19   9 2776.08 631.120   4
   5  14   9 3104.44 737.182   4
  -6  19 -10 5431.42 1008.75   1
  -6  19 -10 5238.42 1032.80   2
  19 -13 -10 4312.87 997.543   1
   6  13 -10 6814.45 923.294   2
   6  13 -10 5243.04 1178.04   1
  13 -19 -10 6912.00 1083.67   1
   6  13 -10 5534.92 866.963   3
 -13  -6 -10 7191.39 1173.48   3
 -19   6 -10 3835.47 840.411   3
   6  13  -7 3600.92 854.099   1
  13 -19  -7 2554.48 659.866   1
  -6  19  -7 2492.04 547.080   4
  19 -13  -7 2665.19 724.698   1
   6  13  -7 4511.15 588.408   4
   6  13  -7 3486.11 647.113   2
  -6  19  -7 3252.46 681.599   2
  -6  19  -7 3950.06 455.577   3
 -19   6  -7 3573.15 722.637   3
 -13  -6  -7 3056.58 777.657   3
  19 -13  -4 45748.4 2016.30   1
  13 -19  -4 42368.6 1582.88   2
  -6  19  -4 44107.4 1901.36   4
  -6  19  -4 41294.0 1896.08   2
   6  13  -4 47426.0 1892.45   4
   6  13  -4 45493.7 1781.80   2
  13 -19  -4 43433.9 1847.20   1
 -13  -6  -4 43626.8 1761.01   3
 -19   6  -4 42445.4 1708.44   3
   6  13  -4 43058.9 1056.92   3
  13 -19  -1 3016.55 375.740   3
  13 -19  -1 3677.53 532.241   1
  19 -13  -1 3079.18 557.228   1
 -19   6  -1 3616.34 541.325   1
   6  13  -1 4480.65 691.271   4
  -6  19  -1 2875.47 635.932   4
  -6  19  -1 4079.08 656.560   2
   6  13  -1 3992.41 580.434   2
   6  13  -1 2933.69 362.205   3
 -13  -6  -1 3398.33 457.754   3
 -19   6  -1 3192.70 502.052   3
 -13  -6   2 47027.9 1487.37   3
 -19   6   2 48318.0 1768.24   3
  -6  19   2 45160.5 1946.06   4
   6  13   2 43931.9 1953.25   4
  -6  19   2 48331.8 1739.12   2
   6  13   2 40774.6 1563.89   3
 -19   6   2 42360.4 1288.16   2
  13 -19   2 43597.9 1589.93   1
   6  13   2 46083.7 1859.43   2
  13 -19   2 48030.1 1275.31   3
  19 -13   2 45665.9 1403.38   1
   6  13   5 1330.68 548.305   2
 -13  -6   5 1059.03 409.078   2
  -6  19   5 1300.78 490.999   4
   6  13   5 775.792 420.051   4
 -19   6   5 547.533 374.031   4
  13 -19   5 1388.09 424.623   3
  -6  19   5 1828.65 490.828   2
  -6  19   8 12097.1 1122.36   2
   6  13   8 10667.2 1241.37   2
   6  13   8 12691.5 1222.98   4
  -6  19   8 11489.6 1069.24   4
  -7  19  -8 5363.93 895.919   2
   7  12  -8 5876.91 1121.97   1
  -7  19  -8 5775.41 777.907   4
  19 -12  -8 3655.99 903.035   1
   7  12  -8 4000.26 686.299   2
   7  12  -8 4990.61 570.087   4
  12 -19  -8 5051.53 868.976   1
  -7  19  -8 5209.19 599.657   3
 -19   7  -8 5370.75 873.930   3
 -12  -7  -8 3826.04 842.744   3
   7  12  -5 1698.19 311.077   3
  12 -19  -5 840.801 499.720   1
  -7  19  -5 1460.95 560.445   2
  12 -19  -5 1365.13 403.020   2
  -7  19  -5 2136.50 517.873   4
   7  12  -5 2097.23 487.487   4
   7  12  -5 1464.89 465.891   2
 -12  -7  -5 758.611 442.877   3
  -7  19  -5 1605.30 196.478   3
  19 -12  -5 2058.19 643.173   1
 -19   7  -5 725.620 447.048   3
  19 -12  -2 9183.26 879.198   1
  12 -19  -2 8420.55 630.567   3
  12 -19  -2 8270.44 795.653   1
 -19   7  -2 8071.04 673.139   1
  -7  19  -2 9831.63 942.237   4
   7  12  -2 8711.33 875.245   4
   7  12  -2 10167.7 839.866   2
   7  12  -2 8593.33 525.941   3
 -12  -7  -2 8734.03 701.422   3
  -7  19  -2 9535.62 918.981   2
 -19   7  -2 8552.74 733.059   3
 -12  -7   1 2434.71 385.196   3
 -19   7   1 3056.01 526.917   3
  12 -19   1 2133.64 434.840   1
 -19   7   1 1725.18 375.202   2
  -7  19   1 2101.22 489.586   4
  19 -12   1 3302.95 466.673   1
   7  12   1 2823.35 631.665   4
  -7  19   1 3329.09 534.631   2
   7  12   1 2798.44 456.797   3
   7  12   1 3116.65 566.892   2
  12 -19   1 2865.95 339.545   3
  -7  19   4 4132.78 705.033   4
  19 -12   4 4299.43 389.752   1
 -19   7   4 2425.72 215.045   2
  12 -19   4 3057.99 458.021   3
  -7  19   4 3551.38 529.081   2
   7  12   4 3536.72 527.430   1
   7  12   4 3430.00 681.162   4
   7  12   4 3615.22 655.717   2
   7  12   7 5218.73 886.911   2
 -19   7   7 5175.20 536.587   4
  -7  19   7 3865.61 685.035   4
   7  12   7 4697.81 776.217   4
  -7  19   7 5249.26 724.183   2
   7  12  10 4095.07 815.168   4
  19 -11  -9 4741.12 981.203   1
  -8  19  -9 6145.41 814.956   4
   8  11  -9 4899.72 1073.33   1
   8  11  -9 4669.54 720.713   2
  11 -19  -9 6145.18 930.557   1
 -11  -8  -9 5928.91 1100.19   3
  -8  19  -9 5182.35 666.905   3
 -19   8  -9 6095.57 944.292   3
  -8  19  -9 5833.92 1008.06   2
  -8  19  -6 2269.59 563.882   4
  19 -11  -6 1307.70 589.805   1
   8  11  -6 3191.61 535.906   4
   8  11  -6 2485.91 769.006   1
  -8  19  -6 1887.06 594.373   2
  11 -19  -6 1848.42 556.792   1
   8  11  -6 2293.84 492.929   2
  -8  19  -6 2923.00 369.541   3
 -11  -8  -6 2521.38 653.803   3
 -19   8  -6 3311.00 705.274   3
  11 -19  -3 7530.65 729.542   1
  -8  19  -3 6332.04 782.791   2
 -19   8  -3 5695.74 515.188   1
  -8  19  -3 4924.96 712.780   4
   8  11  -3 7186.09 784.770   4
   8  11  -3 5686.84 635.045   2
 -11  -8  -3 5774.47 643.261   3
   8  11  -3 5559.10 460.200   3
 -19   8  -3 5492.18 632.498   3
  19 -11  -3 7229.53 866.810   1
 -19   8   0 10473.2 810.430   2
 -19   8   0 11185.3 811.136   3
  19 -11   0 10972.4 826.652   1
  -8  19   0 8857.84 906.780   4
 -19   8   0 9428.10 843.050   1
  -8  19   0 10727.4 887.523   2
   8  11   0 9624.77 961.438   4
   8  11   0 9992.23 674.636   3
   8  11   0 11011.5 882.496   2
  11 -19   0 11729.0 870.983   1
 -11  -8   0 11701.3 707.505   3
  11 -19   0 10467.1 534.249   3
   8  11   3 6593.81 592.034   1
  19 -11   3 6694.15 498.390   1
 -11  -8   3 6930.64 619.755   3
 -19   8   3 7359.87 790.117   3
  -8  19   3 8043.42 879.589   4
   8  11   3 7027.69 854.949   4
  -8  19   3 6399.24 660.414   2
  11 -19   3 6565.99 475.957   3
 -19   8   3 7588.57 469.223   2
   8  11   3 6832.71 812.104   2
   8  11   6 6051.83 893.479   2
   8  11   6 6214.08 673.321   1
 -19   8   6 3914.81 549.968   4
 -11  -8   6 4071.33 557.468   4
  -8  19   6 5265.53 741.441   4
   8  11   6 5227.79 821.548   4
 -19   8   6 4989.68 617.550   4
  -8  19   6 7402.55 776.756   2
  -8  19   9 3487.66 640.047   4
   8  11   9 3161.91 752.730   4
  -9  19 -10 4811.38 919.539   1
  -9  19 -10 5191.79 1010.29   2
  10 -19 -10 4267.07 882.424   1
   9  10 -10 4996.06 1136.01   1
  10 -19 -10 6102.76 1282.51   3
 -10  -9 -10 5873.58 1114.31   3
  -9  19 -10 5043.19 740.542   3
 -19   9 -10 7532.07 1063.88   3
  19 -10 -10 7227.10 1207.90   1
  -9  19  -7 3741.31 793.201   2
  19 -10  -7 3427.77 803.679   1
  -9  19  -7 4060.42 679.492   4
   9  10  -7 3315.41 830.521   1
   9  10  -7 3382.09 501.714   4
   9  10  -7 4281.67 592.217   2
  10 -19  -7 4197.44 762.076   1
  -9  19  -7 3914.17 478.991   3
 -10  -9  -7 3219.99 749.482   3
 -19   9  -7 3122.11 642.503   3
  10 -19  -4 22385.0 1308.26   1
  -9  19  -4 22358.3 1354.49   4
   9  10  -4 22079.4 1247.70   4
 -19   9  -4 19082.0 721.788   1
  -9  19  -4 21601.5 1426.37   2
   9  10  -4 19012.5 1075.97   2
 -10  -9  -4 19601.1 1175.22   3
  19 -10  -4 23663.2 1503.08   1
 -19   9  -4 20426.1 1191.18   3
   9  10  -4 19477.6 843.365   3
  -9  19  -4 21368.9 600.821   3
  10 -19  -1 6266.84 452.865   3
  -9  19  -1 6901.33 825.009   4
 -19   9  -1 6016.39 656.133   1
  -9  19  -1 6514.16 739.127   2
   9  10  -1 6810.41 781.993   4
  10 -19  -1 6414.15 701.612   1
   9  10  -1 7512.11 747.279   2
 -10  -9  -1 6400.31 541.635   3
   9  10  -1 5021.97 483.672   3
 -19   9  -1 7151.42 650.008   3
  19 -10  -1 5674.41 725.084   1
 -10  -9   2 24980.8 977.014   3
 -19   9   2 24233.5 1276.49   3
  19 -10   2 22755.7 954.624   1
   9  10   2 24177.6 1456.63   4
  -9  19   2 24615.5 1213.88   2
   9  10   2 22584.7 1027.88   1
  10 -19   2 22527.5 677.176   3
   9  10   2 23401.1 1361.28   2
 -19   9   2 21677.8 913.502   2
  -9  19   2 23043.8 1375.90   4
   9  10   5 5406.79 800.804   2
  -9  19   5 7507.08 860.170   4
   9  10   5 6419.69 609.616   1
   9  10   5 6313.91 866.306   4
 -19   9   5 5214.77 661.461   4
  -9  19   5 5906.23 668.850   2
  -9  19   8 9862.97 972.435   2
 -19   9   8 7931.95 558.668   4
  -9  19   8 10956.7 1006.49   4
   9  10   8 12090.5 1193.11   4
  10   9  -8 9496.58 1308.20   1
 -10  19  -8 9571.05 1204.16   2
 -19  10  -8 9862.97 1058.18   3
 -10  19  -8 9203.74 976.374   4
  10   9  -8 11069.1 887.704   2
  10   9  -8 8249.41 606.520   4
  -9 -10  -8 10967.5 1240.64   3
   9 -19  -8 10591.7 1087.96   1
 -10  19  -8 11086.3 810.954   3
  19  -9  -8 10649.0 1250.47   1
 -10  19  -5 6652.29 895.181   2
  10   9  -5 5951.45 920.214   1
 -10  19  -5 6318.03 787.460   4
  10   9  -5 6322.40 688.218   4
  10   9  -5 6419.05 662.068   2
  -9 -10  -5 6719.79 834.043   3
  19  -9  -5 6474.23 940.777   1
 -19  10  -5 6634.66 778.045   3
 -10  19  -5 6791.17 450.920   3
   9 -19  -5 6936.72 826.875   1
   9 -19  -2 21414.5 922.486   3
 -10  19  -2 21840.3 1337.55   4
 -10  19  -2 23380.1 1367.86   2
  10   9  -2 24506.2 1375.29   4
  -9 -10  -2 22809.0 1037.63   3
 -19  10  -2 22619.2 1109.36   1
   9 -19  -2 22299.7 1224.42   1
  10   9  -2 23020.7 1181.97   2
  10   9  -2 21109.0 910.297   3
  19  -9  -2 22760.8 1329.79   1
 -19  10  -2 23466.5 1132.79   3
  -9 -10   1 6536.27 502.681   3
 -19  10   1 6326.21 692.119   3
 -19  10   1 5772.32 581.721   2
   9 -19   1 7456.10 709.821   1
  19  -9   1 6360.93 607.228   1
 -10  19   1 6004.17 747.679   4
  10   9   1 6739.10 836.251   4
  10   9   1 5147.93 614.852   3
 -10  19   1 5891.74 675.089   2
  10   9   1 6691.04 733.934   2
   9 -19   1 6644.85 360.420   3
 -10  19   4 20236.7 1329.53   4
  10   9   4 20958.9 1403.43   4
 -10  19   4 21583.3 1084.79   2
  10   9   4 21319.1 945.024   1
  10   9   4 23717.0 1462.51   2
 -19  10   7 3629.16 485.337   4
 -10  19   7 3697.72 653.662   4
  10   9   7 3811.37 742.723   4
 -10  19   7 4024.12 615.937   2
  19  -8  -9 3562.62 867.912   1
 -11  19  -9 3065.52 660.018   4
 -11  19  -9 4476.07 943.648   2
  11   8  -9 3310.69 549.260   2
  11   8  -9 3081.82 884.797   1
   8 -19  -9 3387.14 979.699   3
  -8 -11  -9 3453.31 898.433   3
 -11  19  -9 4280.07 654.431   3
 -19  11  -9 6174.58 923.583   3
   8 -19  -9 4534.04 806.260   1
   8 -19  -6 8366.19 900.869   1
  19  -8  -6 4412.10 863.933   1
 -11  19  -6 6725.78 984.269   2
  11   8  -6 5449.38 1015.31   1
  11   8  -6 7295.14 678.030   4
  11   8  -6 7181.97 695.258   2
 -11  19  -6 6822.70 871.169   4
  -8 -11  -6 7730.73 922.469   3
 -19  11  -6 6137.72 754.226   3
 -11  19  -6 6959.72 563.844   3
 -11  19  -3 6730.82 404.988   3
 -19  11  -3 5970.12 585.736   1
  11   8  -3 4795.37 747.631   1
 -11  19  -3 5490.90 757.127   4
   8 -19  -3 5922.73 681.470   1
  11   8  -3 6318.09 709.878   4
 -11  19  -3 6086.26 804.908   2
  11   8  -3 5972.51 630.366   2
  19  -8  -3 5879.91 782.473   1
  -8 -11  -3 7280.70 707.771   3
  11   8  -3 5575.98 522.919   3
 -19  11  -3 7765.93 711.423   3
 -19  11   0 10104.1 777.600   3
 -11  19   0 9168.86 832.935   2
 -11  19   0 8180.56 851.885   4
 -19  11   0 9241.49 867.943   1
  11   8   0 8529.94 666.802   3
  11   8   0 9687.17 833.122   2
  19  -8   0 10277.9 797.142   1
  -8 -11   0 8507.35 557.251   3
  11   8   0 10407.5 964.695   4
   8 -19   0 9524.51 799.522   1
   8 -19   0 9825.92 423.538   3
 -19  11   3 6127.05 747.040   3
 -19  11   3 5681.01 446.946   2
 -11  19   3 4761.74 717.373   4
  11   8   3 6590.32 816.576   4
 -11  19   3 6480.40 614.023   2
  19  -8   3 6141.09 439.436   1
  11   8   3 5729.87 517.656   1
 -19  11   3 5507.06 406.910   2
  11   8   3 5537.82 742.374   2
 -11  19   6 2694.97 481.683   2
 -19  11   6 2020.11 440.285   4
  11   8   6 1683.59 551.986   2
  11   8   6 2279.40 381.868   1
 -11  19   6 2590.40 603.648   4
  11   8   6 2346.87 638.388   4
 -11  19   9 6225.70 766.214   4
  19  -7 -10 2571.31 923.887   1
 -12  19 -10 1389.58 583.178   1
 -12  19 -10 3612.96 937.962   2
 -12  19 -10 1727.07 597.245   4
  12   7 -10 2368.82 861.481   1
   7 -19 -10 3280.19 1142.29   3
  -7 -12 -10 1087.80 710.790   3
   7 -19 -10 2537.79 688.672   1
 -12  19 -10 2698.14 618.323   3
 -19  12 -10 3084.60 757.330   3
   7 -19  -7 3845.94 707.811   1
  19  -7  -7 1875.55 757.735   1
 -12  19  -7 3637.89 675.670   4
 -12  19  -7 2586.78 746.883   2
  12   7  -7 3728.04 922.924   1
  12   7  -7 3993.82 513.686   2
   7 -19  -7 5521.49 974.026   3
  -7 -12  -7 5849.49 898.357   3
 -12  19  -7 5261.43 590.453   3
 -19  12  -7 4456.45 726.435   3
  12   7  -4 4361.17 866.616   1
 -12  19  -4 3240.08 619.902   4
 -12  19  -4 3228.45 688.222   2
   7 -19  -4 3905.04 632.101   1
  12   7  -4 4151.67 589.086   4
 -19  12  -4 2971.07 415.756   1
  19  -7  -4 3640.97 755.566   1
  12   7  -4 3084.42 485.269   2
  -7 -12  -4 4320.70 648.573   3
 -19  12  -4 4026.64 609.248   3
 -12  19  -4 3848.52 373.049   3
 -19  12  -1 3230.40 494.098   3
   7 -19  -1 2747.64 315.588   3
   7 -19  -1 3263.53 540.768   1
 -12  19  -1 1756.03 465.047   4
 -12  19  -1 3488.44 600.259   2
  12   7  -1 2572.01 598.059   4
 -19  12  -1 3133.55 561.344   1
  19  -7  -1 2998.49 571.817   1
  12   7  -1 2617.02 417.733   3
  -7 -12  -1 2834.12 372.920   3
  12   7  -1 1949.35 466.634   2
  -7 -12   2 8252.77 489.575   3
  19  -7   2 8032.34 579.838   1
 -19  12   2 8541.44 803.580   3
 -19  12   2 7728.70 638.020   2
 -12  19   2 7467.65 849.089   4
 -12  19   2 7560.43 686.461   2
  12   7   2 8091.63 910.623   4
  12   7   2 9537.29 932.488   2
  12   7   5 1461.04 560.505   2
 -19  12   5 1743.67 463.467   4
  12   7   5 2067.16 349.277   1
 -12  19   5 1588.15 497.638   4
  12   7   5 1158.15 542.315   4
 -12  19   5 2703.15 447.385   2
 -12  19   8 3938.30 573.716   2
 -19  12   8 3607.65 481.953   4
 -12  19   8 3794.54 647.468   4
   6 -19  -8 12149.1 1082.04   1
 -13  19  -8 12012.7 1367.21   2
 -13  19  -8 11161.4 1062.84   4
  13   6  -8 12531.6 1431.02   1
   6 -19  -8 10792.0 1278.40   3
  13   6  -8 11812.3 805.181   2
  19  -6  -8 10623.6 1265.94   1
  -6 -13  -8 9916.68 1183.64   3
 -13  19  -8 11099.8 886.861   3
 -19  13  -8 11410.3 1072.87   3
 -19  13  -5 782.761 301.456   1
 -13  19  -5 1770.19 553.724   4
 -13  19  -5 792.324 572.331   2
  13   6  -5 1466.91 409.841   4
   6 -19  -5 1487.90 553.833   3
  13   6  -5 1114.84 660.362   1
  -6 -13  -5 858.512 488.004   3
  13   6  -5 1189.58 339.738   2
 -19  13  -5 2346.92 499.802   3
  19  -6  -5 1579.20 630.327   1
 -13  19  -5 1385.36 314.223   3
   6 -19  -5 1773.78 480.099   1
 -13  19  -2 48944.1 1227.95   3
   6 -19  -2 48170.1 1772.84   1
 -13  19  -2 46335.8 1946.25   2
  13   6  -2 46066.2 1969.76   1
 -13  19  -2 48328.7 1999.69   4
  13   6  -2 45509.9 1819.43   4
   6 -19  -2 44776.1 1479.67   3
  19  -6  -2 47599.9 1906.69   1
 -19  13  -2 43853.5 1575.14   1
  13   6  -2 47649.3 1647.30   2
  -6 -13  -2 46510.9 1418.34   3
 -19  13  -2 47520.8 1537.46   3
  -6 -13   1 4845.77 370.123   3
 -19  13   1 4543.82 600.029   3
 -19  13   1 4246.46 552.864   2
 -13  19   1 3416.64 614.569   4
 -13  19   1 3765.58 574.337   2
  13   6   1 4295.72 693.495   4
  19  -6   1 4358.86 536.073   1
  13   6   1 3172.04 556.042   2
 -13  19   4 42391.8 1828.78   4
  13   6   4 42288.4 1989.27   2
  13   6   4 39627.9 1116.93   1
 -19  13   4 42503.6 1760.36   4
  13   6   4 43430.0 2000.92   4
 -13  19   4 42559.7 1414.64   2
 -13  19   7 2840.74 475.133   2
 -13  19   7 3433.87 639.033   4
 -19  13   7 2723.32 468.857   4
  19  -5  -9 4347.36 998.050   1
 -14  19  -9 2114.71 626.394   4
   5 -19  -9 3704.41 708.750   1
 -19  14  -9 2818.54 711.272   4
  -5 -14  -9 2759.00 485.308   1
 -14  19  -9 3166.41 935.713   2
   5 -19  -9 3928.34 1053.54   3
  14   5  -9 3252.36 960.122   1
  -5 -14  -9 2303.44 830.638   3
 -14  19  -9 4168.40 672.044   3
 -19  14  -9 3561.71 751.307   3
   5 -19  -6 3053.40 600.864   1
 -14  19  -6 2814.01 631.711   4
 -19  14  -6 2291.90 378.747   1
 -14  19  -6 3140.39 765.005   2
  14   5  -6 2223.21 689.729   1
   5 -19  -6 3317.87 757.227   3
  14   5  -6 3212.78 453.641   2
  -5 -14  -6 1628.77 599.140   3
 -19  14  -6 4024.25 623.089   3
 -14  19  -6 2878.47 439.605   3
  19  -5  -6 1814.18 711.567   1
 -14  19  -3 4996.81 689.890   4
 -14  19  -3 3562.38 718.935   2
  14   5  -3 6306.43 921.949   1
  14   5  -3 4507.50 628.762   4
  19  -5  -3 4560.85 739.390   1
   5 -19  -3 4702.56 611.254   3
  -5 -14  -3 4689.77 597.133   3
  14   5  -3 5568.72 586.579   2
 -19  14  -3 5128.78 610.666   1
   5 -19  -3 6341.99 712.933   1
 -19  14  -3 4794.23 577.784   3
 -14  19  -3 4348.03 434.249   3
  19  -5   0 2287.78 485.953   1
   5 -19   0 1499.85 155.606   3
  14   5   0 1327.91 436.973   2
 -19  14   0 1460.52 398.752   3
 -14  19   0 623.103 410.930   4
  14   5   0 1740.63 494.457   1
 -14  19   0 1438.33 474.256   2
  14   5   0 1367.38 481.429   4
   5 -19   0 1694.95 201.114   3
  -5 -14   0 1979.15 297.244   3
  14   5   3 6832.71 811.476   2
  19  -5   3 7262.14 454.883   1
 -19  14   3 7197.00 517.738   2
 -19  14   3 7635.48 817.416   4
 -14  19   3 6469.39 817.367   4
  14   5   3 6680.61 484.943   1
  14   5   3 7903.62 914.970   4
 -14  19   3 9259.28 716.249   2
 -14  19   6 4885.79 718.338   4
 -19  14   6 4943.40 639.621   4
  14   5   6 4396.74 789.591   4
 -14  19   6 5134.28 574.319   2
 -14  19   9 1020.60 447.594   4
  19  -4 -10-698.485 752.930   1
 -19  15 -10 76.5909 530.536   4
 -15  19 -10 85.1605 480.284   4
 -15  19 -10-630.320 721.005   2
   4 -19 -10 1095.43 517.151   1
   4 -19 -10 1090.84 907.742   3
  -4 -15 -10 359.722 714.340   3
  15   4 -10 671.180 695.917   1
 -15  19 -10 63.9732 455.022   3
 -19  15 -10-876.641 644.731   3
 -15  19  -7-190.745 420.858   4
 -15  19  -7 188.546 614.823   2
  15   4  -7 347.638 698.774   1
   4 -19  -7 602.700 421.306   1
   4 -19  -7-423.573 596.102   3
  -4 -15  -7-494.785 629.999   3
  -4 -15  -7 370.001 323.041   1
  15   4  -7 143.229 253.707   2
  19  -4  -7 679.140 582.992   1
 -19  15  -7 621.643 452.843   3
 -15  19  -7 144.518 329.884   3
 -19  15  -4-292.039 309.740   3
 -15  19  -4-34.0125 233.312   3
 -19  15  -4 155.053 329.345   1
 -15  19  -4 178.208 413.251   4
 -15  19  -4-186.234 467.568   2
  15   4  -4-776.117 586.748   1
   4 -19  -4 214.680 350.439   1
  15   4  -4-209.290 286.122   4
   4 -19  -4-665.445 416.341   3
  -4 -15  -4 140.873 381.413   3
  19  -4  -4-85.8647 465.842   1
  15   4  -4 73.4734 263.453   2
  15   4  -1 720.376 323.847   2
 -19  15  -1 903.883 339.899   3
 -15  19  -1 650.401 274.900   3
 -15  19  -1 694.142 455.995   4
  -4 -15  -1 646.807 262.888   3
 -15  19  -1 198.134 384.739   2
  15   4  -1 933.596 496.727   1
  15   4  -1 143.421 349.725   4
   4 -19  -1 916.562 279.173   3
  19  -4  -1-46.9726 437.122   1
  19  -4   2 1830.65 363.449   1
  15   4   2 2074.95 514.890   2
 -19  15   2 2215.30 507.712   3
  15   4   2 2845.81 492.463   1
 -19  15   2 1443.59 524.399   4
 -15  19   2 2091.37 526.589   4
 -19  15   2 1715.11 385.301   2
 -15  19   2 1718.08 393.825   2
  15   4   2 3455.98 670.845   4
 -19  15   5 3241.58 599.674   4
 -15  19   5 2780.09 582.799   4
 -15  19   5 3460.10 446.594   2
  15   4   5 2187.17 250.544   1
 -19  15   8 958.493 360.950   4
 -15  19   8 896.787 444.064   4
 -16  19  -8 21596.9 1803.63   2
 -19  16  -8 21437.2 1563.26   4
 -16  19  -8 23341.9 1565.55   4
  16   3  -8 21872.0 1847.13   1
   3 -19  -8 28522.9 1558.53   1
  -3 -16  -8 25457.1 1272.01   1
  19  -3  -8 23301.1 1911.15   1
   3 -19  -8 26663.3 1929.79   3
  -3 -16  -8 25163.7 1783.77   3
 -16  19  -8 25532.4 1337.33   3
 -19  16  -8 24025.6 1443.42   3
 -16  19  -5 873.505 584.721   2
 -16  19  -5 169.562 387.529   4
   3 -19  -5 1709.02 499.571   1
 -19  16  -5 603.324 344.744   1
  16   3  -5 200.093 550.045   1
   3 -19  -5 1382.80 577.475   3
  -3 -16  -5 515.650 479.715   3
  19  -3  -5-613.279 591.651   1
 -19  16  -5 1284.35 473.706   3
  16   3  -5 301.054 237.068   2
 -16  19  -5 545.761 309.882   3
 -16  19  -2 45506.4 1343.85   3
   3 -19  -2 43132.8 1711.63   1
 -19  16  -2 41354.9 1946.70   2
 -16  19  -2 45723.4 1973.20   4
 -16  19  -2 42899.0 1971.43   2
  16   3  -2 47329.5 2075.84   1
  19  -3  -2 41857.4 1908.98   1
  16   3  -2 43707.0 1859.42   4
   3 -19  -2 43265.0 1391.84   3
  -3 -16  -2 44923.6 1374.14   3
  16   3  -2 44159.9 1596.26   2
 -19  16  -2 43680.1 1479.80   3
  -3 -16   1 1154.60 157.582   3
  16   3   1 783.086 392.807   2
 -19  16   1 1757.08 494.942   3
 -19  16   1 1124.32 431.738   4
 -16  19   1 1327.13 519.602   4
 -19  16   1 1793.84 458.760   2
  16   3   1 1136.85 477.648   1
 -16  19   1 1926.76 411.464   2
  16   3   1 1175.85 473.870   4
  19  -3   1 1233.19 339.504   1
 -19  16   4 20244.5 740.972   2
 -19  16   4 19409.8 1255.91   4
 -16  19   4 20798.3 1323.91   4
  16   3   4 20365.3 798.254   1
  16   3   4 18279.0 650.232   1
 -16  19   4 22672.6 1005.11   2
 -16  19   7 479.822 256.438   2
 -16  19   7-41.2890 346.706   4
 -19  16   7 356.494 344.755   4
  -2 -17  -9 2753.43 580.677   1
 -19  17  -9 2898.85 713.183   4
   2 -19  -9 2196.78 582.051   1
 -17  19  -9 2867.19 717.947   4
 -19  17  -9 2609.89 1007.74   2
   2 -19  -9 1962.83 858.545   3
 -17  19  -9 1987.84 786.053   2
  -2 -17  -9 2835.15 897.195   3
  17   2  -9 505.793 681.924   1
  19  -2  -9 1609.57 857.897   1
 -17  19  -9 2054.19 572.719   3
 -19  17  -9 2498.69 630.364   3
 -17  19  -6 3054.40 760.543   2
 -17  19  -6 4398.91 759.598   4
 -19  17  -6 3279.10 685.699   4
  17   2  -6 3828.08 895.561   1
   2 -19  -6 4030.69 782.081   3
  -2 -17  -6 4305.12 772.577   3
  -2 -17  -6 3706.05 575.159   1
  19  -2  -6 2367.67 716.647   1
  17   2  -6 3034.82 420.662   2
 -19  17  -6 3430.14 586.094   3
 -17  19  -6 3892.11 564.318   3
   2 -19  -6 4433.11 683.185   1
 -19  17  -3 6430.06 922.577   2
 -19  17  -3 6782.10 880.764   4
 -17  19  -3 6119.02 837.639   4
 -17  19  -3 6276.47 901.193   2
  17   2  -3 7371.14 942.607   1
  19  -2  -3 5989.06 847.026   1
   2 -19  -3 6651.90 693.184   3
  -2 -17  -3 5853.67 651.026   3
   2 -19  -3 7599.31 774.586   1
  17   2  -3 6545.39 645.400   2
 -19  17  -3 5818.71 588.774   3
 -17  19  -3 6881.58 579.886   3
 -17  19   0 230.269 439.122   4
  17   2   0 707.852 391.711   2
 -19  17   0 745.297 344.992   3
 -17  19   0 266.873 315.617   3
 -19  17   0-97.8102 404.481   4
 -19  17   0 736.556 378.868   2
  17   2   0 1246.03 495.668   1
 -17  19   0 1709.07 489.387   2
  19  -2   0 143.436 369.142   1
   2 -19   0 395.799 117.584   3
  -2 -17   0 405.099 165.224   3
 -19  17   3 10158.5 968.212   4
 -17  19   3 11877.6 1046.70   4
  17   2   3 10930.7 702.926   1
 -19  17   3 10056.9 668.117   2
 -17  19   3 11411.1 781.380   2
  19  -2   3 10268.0 592.979   1
 -17  19   6 591.781 248.645   2
 -17  19   6 494.445 394.395   4
 -19  17   6 1277.10 459.485   4
 -19  18 -10 1398.87 647.413   4
 -19  18 -10 1220.59 711.658   2
 -18  19 -10 1182.93 602.080   4
 -18  19 -10 1058.82 808.386   2
   1 -19 -10 140.415 428.146   1
   1 -19 -10 1159.90 864.540   3
  -1 -18 -10 1676.23 879.719   3
  18   1 -10 1761.45 868.408   1
 -18  19 -10 1737.96 637.773   3
 -19  18 -10 604.286 533.862   3
  19  -1 -10 988.978 837.753   1
  18   1  -7 118.197 206.297   2
 -18  19  -7 997.782 544.863   4
 -19  18  -7-643.453 537.193   4
 -19  18  -7 22.8606 592.337   2
 -18  19  -7 327.744 625.609   2
  -1 -18  -7-105.958 378.861   1
   1 -19  -7 903.079 490.858   1
   1 -19  -7 1385.88 690.377   3
  18   1  -7 341.054 585.040   1
  -1 -18  -7 1420.52 702.692   3
  19  -1  -7 1048.58 687.055   1
 -19  18  -7 227.241 389.788   3
 -18  19  -7 622.314 362.007   3
 -19  18  -4-65.4407 302.635   3
 -18  19  -4 228.271 305.068   3
  18   1  -4 121.470 253.465   2
 -18  19  -4-373.229 417.572   4
  19  -1  -4 292.464 273.034   2
 -19  18  -4 554.455 472.893   4
   1 -19  -4-56.6658 323.651   1
 -19  18  -4 1590.37 602.608   2
  18   1  -4 626.874 608.338   1
  19  -1  -4 906.146 619.875   1
   1 -19  -4-62.6213 396.108   3
  -1 -18  -4 263.480 372.465   3
 -18  19  -4 730.497 543.551   2
 -19  18  -1 2589.84 437.311   3
  18   1  -1 1877.85 478.960   2
 -18  19  -1 1876.78 423.891   3
  19  -1  -1 1426.40 399.396   2
 -19  18  -1 986.374 475.506   4
 -18  19  -1 734.588 496.843   4
 -19  18  -1 1580.97 551.380   2
 -18  19  -1 2270.87 568.601   2
  18   1  -1 1767.93 538.059   1
  19  -1  -1 2325.73 584.142   1
   1 -19  -1 1620.37 284.791   3
  -1 -18  -1 1606.63 283.329   3
 -19  18   2 902.951 444.455   4
 -19  18   2-60.0278 273.581   2
 -18  19   2 416.453 312.110   2
  18   1   2 254.530 301.221   1
 -18  19   2 150.243 380.617   4
  19  -1   2 193.390 301.183   1
 -19  18   5 1537.35 498.633   4
 -18  19   5 1848.86 525.978   4
 -18  19   5 2741.47 365.342   2
 -19  18   5 2556.67 310.784   2
 -19  18   8 47.7477 343.100   4
 -18  19   8 500.900 420.866   4
   0 -19  -8 14402.4 1096.78   1
 -19  19  -8 15249.1 1635.43   2
 -19  19  -8 13753.4 1332.89   4
  19   0  -8 14230.4 1604.59   1
   0 -19  -8 14344.7 1455.70   3
 -19  19  -8 14629.4 1096.44   3
 -19  19  -5 202.641 341.317   3
  19   0  -5 2.08698 237.361   2
 -19  19  -5 142.482 582.968   2
 -19  19  -5-988.667 530.615   4
   0 -19  -5 590.708 354.795   1
  19   0  -5 154.833 572.430   1
   0 -19  -5 369.657 443.996   3
 -19  19  -2 22971.5 1089.42   3
  19   0  -2 23323.6 1199.99   2
 -19  19  -2 23290.4 1524.25   4
 -19  19  -2 24138.9 1526.92   2
  19   0  -2 24616.8 1566.62   1
   0 -19  -2 25020.9 1047.89   3
 -19  19   1-397.246 411.372   3
 -19  19   1-235.129 366.782   2
 -19  19   1 369.252 489.076   4
  19   0   1-223.706 364.966   1
  19   0   4 7510.80 368.354   1
 -19  19   4 10127.3 1049.28   4
 -19  19   4 10694.3 661.433   2
  19   0   4 7740.66 429.711   1
 -19  19   7 751.678 446.059   4
  20 -20  -8 3605.74 851.900   1
   0  20  -8 5703.48 821.576   4
   0  20  -8 4964.32 883.826   2
 -20   0  -8 4406.65 937.820   3
   0  20  -5 466.860 517.849   4
   0  20  -5 15.7346 406.100   2
 -20   0  -5 775.664 532.884   3
  20 -20  -5-257.763 461.319   1
 -20   0  -2 1047.88 416.168   3
   0  20  -2 300.380 488.768   4
  20 -20  -2 654.198 421.031   1
   0  20  -2 5.77978 365.209   2
 -20   0   1-180.448 329.719   3
  20 -20   1 375.294 319.594   1
   0  20   1-108.370 478.124   4
   0  20   1 996.397 481.298   2
 -20   0   4 1207.92 480.598   3
   0  20   4 2666.42 663.123   4
 -20   0   4 2065.25 462.288   2
   0  20   4 2988.73 665.955   2
   0  20   7-150.386 482.926   2
   0  20   7 1045.46 637.868   4
  -1  20  -9 391.258 640.172   1
  -1  20  -9 1264.81 679.557   2
   1  19  -9 1488.67 581.814   2
   1  19  -9 965.339 729.185   1
  20 -19  -9 3235.55 883.348   1
 -19  -1  -9 1335.64 743.304   3
 -20   1  -9 226.252 589.879   3
  19 -20  -9 995.135 661.144   1
  -1  20  -6 4946.42 764.093   4
  19 -20  -6 4778.35 836.282   1
  -1  20  -6 5046.40 820.185   2
   1  19  -6 3207.64 669.784   4
   1  19  -6 4884.40 787.245   2
   1  19  -6 3344.55 263.732   3
  20 -19  -6 3766.58 803.926   1
 -19  -1  -6 5189.25 891.075   3
 -20   1  -6 4586.54 787.850   3
  20 -19  -3 1075.44 512.140   1
  19 -20  -3 909.609 479.299   1
  -1  20  -3 2938.40 639.242   4
   1  19  -3 1859.11 638.107   4
  -1  20  -3 1114.30 473.541   2
   1  19  -3 1375.46 540.760   2
 -19  -1  -3 1282.49 448.422   3
 -20   1  -3 2395.05 530.774   3
  -1  20   0 3487.97 717.381   4
  -1  20   0 2912.62 639.178   2
   1  19   0 3422.40 609.052   2
  20 -19   0 3310.16 557.328   1
   1  19   0 3627.85 722.640   4
  19 -20   0 3250.30 542.015   1
 -19  -1   0 3310.22 558.017   3
 -20   1   0 3491.24 594.413   3
  20 -19   3 2290.60 421.177   1
 -19  -1   3 1754.05 488.289   3
 -20   1   3 1307.82 477.496   3
  -1  20   3 1564.79 559.544   4
  19 -20   3 2869.26 480.848   1
   1  19   3 2846.45 713.311   4
 -19  -1   3 1030.67 385.742   2
 -20   1   3 2134.50 416.979   2
  -1  20   3 2422.96 573.295   2
   1  19   3 1573.77 488.909   2
  -1  20   6 3631.57 714.969   2
   1  19   6 3139.97 698.542   2
  -1  20   6 3182.89 760.895   4
   1  19   6 3471.44 849.281   4
  -1  20   9 1059.50 704.144   2
   1  19   9 751.080 649.606   2
  -1  20   9-461.916 570.721   4
   1  19   9 1094.13 617.807   4
  -2  20 -10 1245.26 1033.81   1
   2  18 -10 1429.07 950.129   1
  -2  20 -10 2736.13 780.680   2
   2  18 -10 2236.85 729.953   2
 -18  -2 -10 2632.40 908.040   3
 -20   2 -10 389.190 640.981   3
  20 -18  -7 14525.0 1376.83   1
  -2  20  -7 15847.9 1277.08   4
  -2  20  -7 15053.9 1359.34   2
   2  18  -7 18375.9 1308.58   4
  18 -20  -7 14493.2 1382.36   1
   2  18  -7 17010.9 1351.55   2
   2  18  -7 15239.4 787.056   3
 -18  -2  -7 16797.8 1398.91   3
 -20   2  -7 15957.5 1336.84   3
   2  18  -4 4152.24 680.543   2
  18 -20  -4 3620.30 665.539   1
  -2  20  -4 3028.34 648.885   4
   2  18  -4 3396.55 638.787   4
  -2  20  -4 3153.94 638.758   2
 -20   2  -4 4445.83 681.853   3
  20 -18  -4 5714.28 832.378   1
 -18  -2  -4 3337.04 599.268   3
  -2  20  -1 29334.9 1714.14   4
   2  18  -1 29996.8 1692.97   4
  -2  20  -1 35297.8 1711.82   2
   2  18  -1 37790.4 1751.97   2
  20 -18  -1 34069.6 1596.21   1
  18 -20  -1 33547.1 1559.68   1
 -18  -2  -1 34489.0 1427.31   3
 -20   2  -1 31751.7 1423.16   3
 -18  -2   2 6130.64 716.310   3
 -20   2   2 8612.73 847.534   3
  -2  20   2 6124.08 845.599   4
 -20   2   2 7461.13 662.659   2
  20 -18   2 8783.96 743.489   1
  -2  20   2 7829.99 840.591   2
   2  18   2 8073.75 886.480   2
  18 -20   2 7384.14 734.315   1
   2  18   2 5554.34 853.948   4
 -18  -2   5 13625.4 898.106   2
 -20   2   5 11936.5 667.824   2
   2  18   5 18324.3 1435.49   4
  -2  20   5 17269.8 1385.15   4
  -2  20   5 14382.6 1157.57   2
   2  18   5 16252.9 1270.43   2
  -2  20   8 7758.95 1083.76   2
   2  18   8 7438.98 1050.73   4
   2  18   8 5019.44 904.459   2
  -2  20   8 6933.97 1006.29   4
  17 -20  -8 1123.32 686.444   1
  -3  20  -8 1286.76 597.186   4
   3  17  -8 2023.19 793.752   1
  -3  20  -8 1992.38 659.701   2
   3  17  -8 1612.74 503.775   4
   3  17  -8 3018.05 728.057   2
  20 -17  -8 3009.31 795.258   1
   3  17  -8 1858.72 452.910   3
 -17  -3  -8 1971.76 712.683   3
 -20   3  -8 1733.31 707.178   3
  17 -20  -5 124.548 458.206   1
  -3  20  -5 372.838 401.727   4
   3  17  -5 946.304 444.963   4
  -3  20  -5 1441.33 586.602   2
   3  17  -5 76.8025 398.012   2
   3  17  -5 193.787 166.516   3
  20 -17  -5 690.389 602.440   1
 -17  -3  -5 1173.73 534.987   3
 -20   3  -5 665.294 454.670   3
   3  17  -5 373.152 147.576   3
 -20   3  -2 1862.46 484.264   3
  -3  20  -2 999.857 495.604   4
   3  17  -2 2024.92 611.792   4
  17 -20  -2 1770.44 542.200   1
  -3  20  -2 1804.39 573.235   2
   3  17  -2 2214.53 549.700   2
  20 -17  -2 521.631 423.759   1
 -17  -3  -2 1547.99 441.089   3
 -20   3   1 2845.55 537.217   3
 -17  -3   1 2261.19 454.409   3
  17 -20   1 1511.60 438.849   1
  -3  20   1 2115.33 620.345   4
   3  17   1 1800.71 593.573   4
  -3  20   1 1985.09 508.837   2
  20 -17   1 1544.45 441.286   1
   3  17   1 1114.05 382.590   2
  17 -20   1 1033.65 334.566   3
  20 -17   4 2287.90 426.992   1
 -20   3   4 1632.67 326.035   2
 -17  -3   4 2169.64 449.506   2
  -3  20   4 1895.59 544.773   4
   3  17   4 2732.51 669.672   4
  -3  20   4 2862.99 614.151   2
   3  17   4 3210.33 645.229   2
  -3  20   7-137.174 425.993   2
   3  17   7 967.492 565.551   2
  -3  20   7 639.682 504.919   4
   3  17   7 385.526 486.485   4
  -3  20  10 1172.92 607.766   4
   3  17  10 1450.35 630.460   4
  16 -20  -9-52.4399 601.276   1
  -4  20  -9-113.975 604.635   1
   4  16  -9 373.651 456.801   2
  20 -16  -9-36.6118 601.637   1
 -16  -4  -9 1149.81 731.928   3
 -20   4  -9 1302.74 680.857   3
  -4  20  -9-176.288 462.780   4
  -4  20  -9 544.997 517.255   2
   4  16  -9-98.4118 732.821   1
  -4  20  -6 11580.7 1156.03   2
  20 -16  -6 13259.6 1287.09   1
  -4  20  -6 13569.5 1190.51   4
   4  16  -6 13543.7 1166.26   2
  16 -20  -6 13029.7 1229.49   1
 -16  -4  -6 11997.5 1157.59   3
   4  16  -6 13239.6 1088.36   4
 -20   4  -6 12360.1 1107.36   3
  16 -20  -3 2533.69 635.228   1
  16 -20  -3 2013.18 496.172   2
  -4  20  -3 3136.83 643.401   4
  -4  20  -3 3174.54 670.190   2
   4  16  -3 2224.14 589.637   4
   4  16  -3 2810.20 573.172   2
  20 -16  -3 1650.60 527.239   1
   4  16  -3 2087.36 216.240   3
 -16  -4  -3 1483.18 456.668   3
 -20   4  -3 1288.54 460.341   3
 -20   4   0 5461.09 646.366   3
  -4  20   0 7194.95 904.429   4
   4  16   0 6587.85 831.014   4
  16 -20   0 5843.53 673.671   1
  -4  20   0 5744.51 729.315   2
  20 -16   0 7518.88 750.711   1
   4  16   0 6103.81 516.452   3
   4  16   0 5961.57 759.181   2
  16 -20   0 4890.05 499.928   3
 -16  -4   0 8007.89 682.926   3
   4  16   3-34.5990 413.845   4
 -16  -4   3-249.353 319.711   3
 -20   4   3-36.8883 383.008   3
  -4  20   3 656.609 479.564   4
  20 -16   3-133.531 256.587   1
 -20   4   3-99.9637 253.355   2
  16 -20   3 351.252 330.382   3
  -4  20   3 50.1157 299.221   2
   4  16   3 45.1045 381.732   2
   4  16   6 6621.27 905.964   4
  -4  20   6 5991.00 782.759   2
   4  16   6 6811.18 927.458   2
  -4  20   6 5468.64 800.526   4
  -4  20   9 1231.01 632.211   2
  -4  20   9 433.453 456.057   4
   4  16   9 376.113 544.944   4
  15 -20 -10 1567.12 715.938   1
  -5  20 -10 1326.70 731.137   1
   5  15 -10 1696.96 1011.51   1
  20 -15 -10 151.759 655.366   1
   5  15 -10 2222.40 662.041   2
 -15  -5 -10 985.835 729.044   3
 -20   5 -10 2483.81 867.817   3
  -5  20 -10 1374.91 697.865   2
  20 -15  -7 16654.1 1488.83   1
  -5  20  -7 19803.2 1522.04   2
   5  15  -7 17822.0 1631.14   1
  -5  20  -7 22223.6 1462.96   4
  15 -20  -7 19639.1 1511.67   1
   5  15  -7 17808.8 1298.44   2
  -5  20  -7 17165.9 723.812   3
 -15  -5  -7 16830.5 1398.39   3
 -20   5  -7 14548.9 1276.10   3
   5  15  -7 16195.2 1111.91   4
  20 -15  -4 3371.19 764.182   1
  15 -20  -4 2701.63 502.491   2
  15 -20  -4 2243.29 620.251   1
   5  15  -4 2163.14 530.974   4
  -5  20  -4 3252.80 648.946   2
   5  15  -4 1833.26 469.332   2
   5  15  -4 2300.41 271.894   3
 -15  -5  -4 1678.57 533.046   3
 -20   5  -4 1746.80 494.419   3
  -5  20  -4 1912.42 532.211   4
  15 -20  -1 18933.6 1145.60   1
  -5  20  -1 17619.9 1282.60   4
  20 -15  -1 18581.3 1152.27   1
   5  15  -1 20968.6 1375.38   4
  -5  20  -1 18562.6 1219.54   2
   5  15  -1 15855.6 1133.10   2
   5  15  -1 18548.7 753.643   3
 -15  -5  -1 16399.2 925.519   3
 -20   5  -1 16518.2 1021.49   3
  15 -20  -1 15578.6 810.681   3
  20 -15   2 12653.3 821.969   1
 -15  -5   2 11047.2 824.557   3
 -20   5   2 12318.2 989.611   3
 -20   5   2 10014.5 711.168   2
  -5  20   2 12342.9 1118.15   4
  15 -20   2 13929.4 944.875   1
   5  15   2 11536.9 1069.38   4
  -5  20   2 10807.9 926.058   2
   5  15   2 11205.2 883.916   3
   5  15   2 12590.2 1030.10   2
  15 -20   2 11376.6 732.759   3
  15 -20   5 12607.7 958.694   3
 -15  -5   5 11742.7 896.078   2
  -5  20   5 14597.0 1239.98   4
   5  15   5 15721.0 1314.95   4
  -5  20   5 15765.1 1139.03   2
   5  15   5 17054.2 1307.91   2
  -5  20   8 3078.60 700.658   2
   5  15   8 2148.07 724.602   2
  -5  20   8 3153.94 674.143   4
   5  15   8 3122.30 761.664   4
  14 -20  -8 1261.33 667.031   1
   6  14  -8 2972.41 871.782   1
  20 -14  -8-20.3752 584.574   1
  -6  20  -8 1404.36 663.683   2
   6  14  -8 1774.99 471.599   4
   6  14  -8 1605.13 519.893   2
  -6  20  -8 425.844 440.983   4
 -14  -6  -8 996.868 644.474   3
  -6  20  -8 201.084 300.812   3
 -20   6  -8 347.619 529.852   3
  14 -20  -5 3468.06 543.250   2
  -6  20  -5 4071.27 691.844   4
  20 -14  -5 2079.32 651.896   1
  -6  20  -5 3117.10 675.525   2
   6  14  -5 2975.68 576.965   2
   6  14  -5 3167.76 607.954   4
 -14  -6  -5 2984.87 622.670   3
  14 -20  -5 2783.63 645.104   1
   6  14  -5 3533.19 385.254   3
 -20   6  -5 3627.28 641.420   3
 -20   6  -2 2155.49 486.556   3
  -6  20  -2 2578.07 599.213   4
   6  14  -2 1532.50 514.121   4
  -6  20  -2 1057.71 449.887   2
  20 -14  -2 1802.73 501.750   1
   6  14  -2 1966.42 313.906   3
   6  14  -2 1487.19 414.282   2
  14 -20  -2 1908.25 485.435   1
 -14  -6  -2 946.530 372.345   3
 -14  -6   1 5168.20 547.670   3
  14 -20   1 5241.71 638.827   1
 -20   6   1 4626.71 642.408   3
   6  14   1 6577.57 832.287   4
  -6  20   1 4086.46 732.015   4
  -6  20   1 5727.27 696.746   2
  20 -14   1 4823.17 568.862   1
   6  14   1 4950.88 567.933   3
   6  14   1 5033.93 700.862   2
 -20   6   1 4839.10 552.058   2
  14 -20   1 4062.27 434.259   3
  -6  20   4 4116.86 767.026   4
 -20   6   4 4205.02 334.351   2
   6  14   4 3720.43 759.696   4
  20 -14   4 4340.46 425.876   1
  14 -20   4 3800.60 517.269   3
  -6  20   4 5312.64 644.517   2
   6  14   4 4434.40 737.496   2
  -6  20   7 2986.67 647.107   2
   6  14   7 3350.18 748.850   2
  -6  20   7 3805.16 732.071   4
   6  14   7 1937.13 585.420   4
  -6  20  10 567.182 508.835   4
   6  14  10 296.474 567.142   4
  13 -20  -9-354.833 520.242   1
  -7  20  -9-151.204 459.052   4
  20 -13  -9-769.113 649.961   1
  -7  20  -9 156.249 546.135   2
   7  13  -9 961.186 673.305   1
   7  13  -9-67.5697 405.182   2
 -13  -7  -9 539.730 690.759   3
 -20   7  -9 174.757 559.097   3
  -7  20  -6 2041.68 271.357   3
  20 -13  -6 2713.98 781.962   1
   7  13  -6 3864.79 886.334   1
  13 -20  -6 3153.82 662.759   1
  -7  20  -6 3237.33 665.640   4
  -7  20  -6 2592.07 692.679   2
   7  13  -6 3739.29 595.927   4
   7  13  -6 2834.66 536.420   2
 -13  -7  -6 3187.74 702.738   3
 -20   7  -6 2969.45 658.405   3
  20 -13  -3 4056.84 683.447   1
  -7  20  -3 2401.28 576.010   4
   7  13  -3 2672.18 516.887   2
   7  13  -3 2585.81 586.118   4
   7  13  -3 2452.38 334.846   3
 -13  -7  -3 2790.14 545.521   3
 -20   7  -3 3440.93 561.747   3
  -7  20  -3 2017.12 538.811   2
  13 -20  -3 3676.26 643.996   1
 -20   7   0 9810.86 807.488   3
 -20   7   0 9878.27 954.576   1
  20 -13   0 14079.8 941.200   1
  -7  20   0 14539.9 1180.78   4
  -7  20   0 14312.8 1039.72   2
   7  13   0 13291.1 780.183   3
  13 -20   0 12980.8 919.388   1
   7  13   0 14157.0 1041.78   2
   7  13   0 15347.4 1210.19   4
  13 -20   0 12592.0 645.418   3
 -13  -7   0 12984.5 783.748   3
   7  13   3 327.393 365.133   2
 -13  -7   3 251.406 275.093   3
 -20   7   3 217.301 359.409   3
  -7  20   3 236.156 415.956   4
  20 -13   3 795.239 293.224   1
   7  13   3 306.550 393.095   4
  -7  20   3 779.403 349.264   2
  13 -20   3 271.564 267.356   3
 -20   7   3 202.928 196.089   2
   7  13   6 3302.14 701.313   2
  -7  20   6 5438.11 799.081   4
   7  13   6 5321.32 840.337   4
  -7  20   6 3647.09 628.627   2
  -7  20   9 1156.11 622.175   2
  -7  20   9-367.892 521.877   4
   7  13   9 603.673 606.391   4
  -8  20 -10 2354.33 748.637   1
  20 -12 -10 1716.87 823.294   1
  12 -20 -10 980.967 605.280   1
  -8  20 -10 702.223 671.733   2
   8  12 -10 1463.00 846.141   1
   8  12 -10 1979.54 573.146   2
  12 -20 -10 1686.23 984.206   3
   8  12 -10 1240.69 673.043   3
 -12  -8 -10 2294.68 870.094   3
 -20   8 -10 2535.50 778.231   3
   8  12  -7 13199.7 930.688   4
  -8  20  -7 12243.8 1107.21   4
  -8  20  -7 11996.0 1240.50   2
   8  12  -7 13028.9 1046.64   2
   8  12  -7 13353.5 1416.86   1
  12 -20  -7 14874.3 1256.04   1
 -12  -8  -7 13124.8 1259.92   3
  -8  20  -7 14100.3 736.825   3
 -20   8  -7 13891.8 1200.27   3
  20 -12  -7 11618.1 1224.96   1
  -8  20  -4 4111.80 717.481   4
  -8  20  -4 4687.33 755.251   2
   8  12  -4 4342.81 650.991   4
   8  12  -4 4212.33 601.638   2
 -12  -8  -4 5845.39 746.605   3
 -20   8  -4 3318.02 591.668   3
   8  12  -4 3350.37 397.903   3
  12 -20  -4 3986.13 658.353   1
  20 -12  -4 4244.53 795.921   1
  12 -20  -1 24128.3 891.535   3
  20 -12  -1 24563.1 1333.31   1
  -8  20  -1 25842.5 1495.66   4
  -8  20  -1 25659.2 1413.71   2
   8  12  -1 23593.1 1425.04   4
  12 -20  -1 26753.5 1355.67   1
   8  12  -1 22756.5 1284.34   2
   8  12  -1 21496.4 900.247   3
 -12  -8  -1 23889.3 1041.57   3
 -20   8  -1 24017.9 1183.03   3
 -20   8  -1 24135.8 1256.29   1
 -12  -8   2 9530.33 711.274   3
 -20   8   2 9475.80 867.834   3
  -8  20   2 9224.15 954.224   4
   8  12   2 8826.21 962.428   4
  -8  20   2 8747.65 791.000   2
  20 -12   2 8649.03 641.276   1
  12 -20   2 9311.50 534.173   3
   8  12   2 9381.19 923.301   2
 -20   8   2 8239.61 609.646   2
  -8  20   5 15701.7 1270.20   4
   8  12   5 14040.8 943.574   1
   8  12   5 15077.8 1299.94   4
  -8  20   5 15575.2 1058.11   2
   8  12   5 15674.5 1294.24   2
  -8  20   8 814.798 509.326   2
  -8  20   8 723.544 453.851   4
   8  12   8 1214.32 619.189   4
   9  11  -8-547.626 783.224   1
  20 -11  -8 526.776 551.398   1
  11 -20  -8 1695.13 616.071   1
  -9  20  -8 872.000 519.598   4
  -9  20  -8 664.299 483.562   2
   9  11  -8 908.648 352.253   4
   9  11  -8 301.006 360.240   2
 -11  -9  -8-9.79780 593.269   3
  -9  20  -8 1095.13 352.756   3
 -20   9  -8 1266.71 608.127   3
   9  11  -5 13952.1 1313.70   1
  -9  20  -5 13912.7 1154.41   4
  -9  20  -5 12821.4 1181.81   2
   9  11  -5 13750.1 1008.45   4
   9  11  -5 11442.4 925.092   2
 -11  -9  -5 11892.5 1039.40   3
 -20   9  -5 10742.8 939.060   3
  20 -11  -5 12772.4 1193.03   1
  11 -20  -5 10989.4 1048.31   1
  -9  20  -5 12213.7 494.293   3
   9  11  -5 11697.4 706.562   3
 -20   9  -2 1922.23 460.701   3
  11 -20  -2 2587.47 389.744   3
  -9  20  -2 3135.04 636.405   4
  20 -11  -2 2844.81 572.345   1
  -9  20  -2 3568.46 621.116   2
   9  11  -2 2589.33 592.450   4
 -20   9  -2 1925.19 420.470   1
  11 -20  -2 1747.63 497.406   1
   9  11  -2 2769.37 531.521   2
   9  11  -2 2865.01 388.812   3
 -11  -9  -2 2497.17 426.814   3
 -11  -9   1 15564.4 814.104   3
 -20   9   1 16455.1 1050.92   3
  -9  20   1 17256.7 1237.22   4
  20 -11   1 17306.5 936.668   1
  -9  20   1 17073.8 1105.11   2
   9  11   1 15000.0 932.039   3
  11 -20   1 17548.6 1051.36   1
   9  11   1 16762.1 1133.73   2
  11 -20   1 17277.0 661.506   3
   9  11   1 15538.2 1195.00   4
 -20   9   1 14908.8 896.657   2
  20 -11   4 3581.06 331.892   1
   9  11   4 2389.41 625.287   2
 -20   9   4 1939.13 193.725   2
 -20   9   4 1740.31 166.081   2
   9  11   4 3587.02 682.205   4
  -9  20   4 4238.44 714.498   4
  11 -20   4 3106.41 399.161   3
  -9  20   4 3012.92 492.573   2
   9  11   4 2960.19 465.786   1
  -9  20   7 2489.31 548.177   2
   9  11   7 2204.69 717.468   2
 -20   9   7 1473.75 397.942   4
   9  11   7 1863.26 603.796   4
  -9  20   7 1827.94 562.955   4
  20 -10  -9 246.037 632.514   1
 -10  20  -9 1312.46 513.638   4
 -10  20  -9 1005.50 663.608   2
  10 -20  -9 1521.49 581.815   1
  10  10  -9 1074.80 737.922   1
  10 -20  -9-473.287 881.001   3
  10  10  -9 1242.22 454.419   2
 -10 -10  -9-1051.75 733.370   3
 -10  20  -9 520.068 411.866   3
 -20  10  -9 45.7392 520.942   3
  20 -10  -6 2688.59 817.161   1
  10  10  -6 5427.97 956.986   1
 -10  20  -6 4186.26 699.250   4
  10  10  -6 4930.46 628.098   4
  10  10  -6 4182.84 627.132   2
 -10 -10  -6 4471.30 840.200   3
 -10  20  -6 4208.25 409.723   3
  10 -20  -6 4229.33 690.841   1
 -10  20  -6 4060.11 797.281   2
 -20  10  -6 2835.12 629.043   3
 -20  10  -3 438.566 381.412   3
 -10  20  -3 729.100 167.047   3
 -10  20  -3 552.289 344.731   4
  10 -20  -3 705.736 395.439   1
 -10  20  -3 1023.43 441.681   2
  20 -10  -3 24.5009 421.490   1
  10  10  -3 300.696 367.227   4
 -20  10  -3 697.517 330.137   1
  10  10  -3 1564.94 417.056   2
 -10 -10  -3 1093.92 424.345   3
  10  10  -3 195.096 243.200   3
 -20  10   0 2868.30 519.918   3
 -20  10   0 2534.44 495.864   2
 -10  20   0 2369.54 589.583   4
 -10  20   0 3247.57 596.753   2
  20 -10   0 2339.67 484.633   1
  10  10   0 4290.34 720.008   4
  10 -20   0 2698.79 503.491   1
  10  10   0 2126.33 418.037   3
  10  10   0 2158.51 500.980   2
 -10 -10   0 2649.15 391.110   3
  10 -20   0 2878.68 299.803   3
  10  10   3 48.0876 383.847   2
 -20  10   3 332.082 431.976   3
 -10  20   3 809.179 415.232   4
  10  10   3 1002.73 501.690   4
  20 -10   3 626.563 224.880   1
  10 -20   3 607.461 177.277   3
 -10  20   3 871.373 333.169   2
  10  10   3 569.285 288.615   1
 -20  10   3 1239.15 249.385   2
  10  10   6 3340.84 708.415   4
  10  10   6 2672.39 504.047   1
  10  10   6 2603.51 671.197   2
 -20  10   6 4181.12 582.859   4
 -10  20   6 2318.14 603.075   4
 -10  20   6 3662.88 572.415   2
 -10  20   9 506.766 446.755   4
  10  10   9 147.877 547.922   4
  20  -9 -10 843.320 741.858   1
 -11  20 -10 1786.45 732.927   1
 -11  20 -10 473.117 628.424   2
  11   9 -10 779.348 743.729   1
   9 -20 -10 1959.08 720.531   1
   9 -20 -10 795.641 905.392   3
  -9 -11 -10-677.961 674.158   3
 -11  20 -10 1109.89 499.659   3
 -20  11 -10 375.685 575.727   3
  20  -9  -7 1751.40 720.213   1
 -11  20  -7 1006.71 606.703   2
  11   9  -7 1784.11 617.191   1
  11   9  -7 1524.77 386.709   4
  11   9  -7 1239.09 388.161   2
 -11  20  -7 1242.56 516.883   4
   9 -20  -7 1873.93 620.583   1
  -9 -11  -7 2188.41 686.843   3
 -11  20  -7 1635.61 373.001   3
 -20  11  -7 1688.01 540.409   3
   9 -20  -4 3733.00 625.451   1
 -11  20  -4 3993.16 658.673   4
 -11  20  -4 3970.60 758.178   2
  11   9  -4 3364.74 733.982   1
 -20  11  -4 3466.19 419.421   1
  11   9  -4 4374.66 640.716   4
  11   9  -4 3962.27 543.457   2
  -9 -11  -4 3929.83 644.583   3
  20  -9  -4 4395.40 759.031   1
 -20  11  -4 3904.77 583.798   3
  11   9  -4 3652.84 455.770   3
 -11  20  -4 3743.22 326.566   3
   9 -20  -1 18760.1 1125.85   1
   9 -20  -1 16825.2 702.096   3
  11   9  -1 17446.1 1232.07   4
 -11  20  -1 17394.7 1235.39   4
 -20  11  -1 18462.6 1155.59   1
  11   9  -1 18483.4 1103.23   2
  11   9  -1 14682.2 847.687   3
 -11  20  -1 17845.8 1197.00   2
  -9 -11  -1 17029.3 833.891   3
  20  -9  -1 15541.1 1083.87   1
 -20  11  -1 17415.1 988.730   3
 -20  11   2 2544.45 397.327   2
  11   9   2 3054.41 613.776   2
  -9 -11   2 2755.64 364.394   3
 -20  11   2 3243.79 576.313   3
  20  -9   2 3484.60 424.435   1
 -11  20   2 4420.80 705.732   4
 -11  20   2 3606.54 535.951   2
  11   9   2 4330.33 703.709   4
   9 -20   2 2604.80 195.442   3
  11   9   2 2538.72 403.194   1
  11   9   5 9642.18 1029.42   2
 -20  11   5 12327.9 986.453   4
  11   9   5 12459.4 776.931   1
 -11  20   5 11118.0 1015.65   4
  11   9   5 13202.5 1179.63   4
 -11  20   5 15176.8 969.359   2
 -11  20   8 834.771 479.110   4
 -20  11   8 691.294 292.115   4
 -11  20   8 835.579 440.122   2
  11   9   8 1135.11 565.949   4
  20  -8  -8 648.059 769.994   1
 -12  20  -8 5.72612 575.380   2
 -12  20  -8-113.187 400.514   4
  12   8  -8 564.463 599.973   1
   8 -20  -8 81.9124 662.801   3
  12   8  -8 180.988 349.012   2
  -8 -12  -8 60.4408 570.474   3
   8 -20  -8-454.933 450.635   1
 -12  20  -8 317.689 349.838   3
 -20  12  -8-47.9341 462.815   3
   8 -20  -5 15673.4 1149.47   1
 -12  20  -5 15032.3 1194.29   4
 -12  20  -5 15685.2 1364.67   2
  12   8  -5 16675.9 1436.46   1
 -20  12  -5 15336.0 701.929   1
  12   8  -5 15117.3 1006.84   4
  12   8  -5 14899.8 935.864   2
  20  -8  -5 14331.8 1314.79   1
  -8 -12  -5 16116.9 1186.53   3
 -20  12  -5 14200.4 1030.78   3
 -12  20  -5 14643.1 681.406   3
 -12  20  -2 8554.50 494.222   3
   8 -20  -2 8359.15 611.179   3
 -12  20  -2 9812.61 965.911   4
 -12  20  -2 9320.76 951.133   2
  12   8  -2 9073.48 919.547   4
 -20  12  -2 8590.88 776.814   1
  12   8  -2 10827.0 843.985   2
  20  -8  -2 7481.90 862.783   1
  -8 -12  -2 8755.27 709.472   3
   8 -20  -2 8792.73 809.061   1
  12   8  -2 7483.93 632.353   3
 -20  12  -2 9659.69 767.857   3
  -8 -12   1 27997.0 948.186   3
  20  -8   1 23417.2 1116.80   1
 -20  12   1 28406.1 1356.58   3
 -12  20   1 24780.9 1439.76   4
 -12  20   1 26039.4 1320.48   2
  12   8   1 26141.6 1530.46   4
   8 -20   1 24310.7 512.128   3
  12   8   1 25704.8 1432.29   2
  12   8   4 3966.04 742.379   2
  12   8   4 3663.55 435.522   1
 -12  20   4 4703.91 706.979   4
  12   8   4 3720.33 740.363   4
  20  -8   4 3117.19 242.282   1
 -12  20   4 3920.45 528.118   2
 -20  12   4 2721.62 183.361   2
 -20  12   7 12858.8 922.078   4
 -12  20   7 14029.6 1151.01   4
  12   8   7 12075.9 1212.38   4
 -12  20   7 15094.2 1026.61   2
  20  -7  -9 353.381 635.644   1
 -13  20  -9 506.234 538.686   4
 -13  20  -9 518.384 728.853   2
  13   7  -9-16.2303 669.749   1
   7 -20  -9 399.033 742.719   3
  -7 -13  -9 189.496 634.264   3
 -13  20  -9 190.503 397.781   3
 -20  13  -9 675.718 564.091   3
   7 -20  -9 842.741 499.256   1
   7 -20  -6 4511.15 692.686   1
  13   7  -6 4090.68 943.465   1
  13   7  -6 3987.75 561.994   4
 -20  13  -6 2811.70 325.132   1
   7 -20  -6 5176.76 869.598   3
  13   7  -6 4416.57 559.398   2
 -13  20  -6 5320.82 798.982   4
  20  -7  -6 4997.25 914.542   1
  -7 -13  -6 4904.12 853.352   3
 -20  13  -6 4737.92 645.408   3
 -13  20  -6 3067.27 413.447   3
 -13  20  -6 3601.60 813.497   2
 -20  13  -3 681.719 359.740   3
  20  -7  -3 464.887 417.612   1
   7 -20  -3 207.158 339.879   1
 -13  20  -3 664.291 234.168   3
 -13  20  -3 371.117 425.256   4
  13   7  -3 821.087 564.028   1
 -13  20  -3 1149.39 505.192   2
  13   7  -3 813.934 413.848   4
  -7 -13  -3 180.048 314.376   3
  13   7  -3 728.844 361.475   2
 -20  13  -3 392.491 338.099   1
 -20  13   0 12102.1 884.069   3
   7 -20   0 13523.6 975.571   1
 -13  20   0 13209.6 1103.55   4
 -13  20   0 12338.2 980.493   2
  13   7   0 14500.1 1130.93   4
   7 -20   0 12978.5 559.672   3
  20  -7   0 12947.0 917.355   1
  13   7   0 11660.2 934.368   2
  -7 -13   0 11889.1 626.919   3
   7 -20   0 13548.4 456.089   3
  13   7   3 2515.53 357.543   1
 -20  13   3 2760.56 357.548   2
 -20  13   3 2321.24 335.710   2
 -13  20   3 2978.49 619.002   4
  20  -7   3 2546.66 325.120   1
 -13  20   3 2574.56 434.216   2
  13   7   3 2486.73 641.093   4
  13   7   3 4154.84 752.789   2
 -20  13   6 2486.37 503.845   4
 -13  20   6 2455.79 557.758   4
  13   7   6 2282.99 668.331   4
 -13  20   6 2978.12 482.078   2
  13   7   6 2637.35 339.590   1
 -13  20   9-566.831 451.042   4
  20  -6 -10 137.887 658.589   1
   6 -20 -10-138.562 494.093   1
 -20  14 -10 739.570 596.811   4
 -14  20 -10 493.528 493.579   4
 -14  20 -10-341.502 691.618   2
   6 -20 -10-646.049 877.265   3
  14   6 -10-890.786 822.153   1
  -6 -14 -10-192.284 698.746   3
 -14  20 -10 960.983 513.303   3
 -20  14 -10 89.5662 547.662   3
  20  -6  -7 4642.62 908.841   1
 -14  20  -7 5092.54 798.648   4
   6 -20  -7 3733.24 666.698   1
 -14  20  -7 3718.10 854.755   2
  14   6  -7 2405.50 756.551   1
   6 -20  -7 5063.65 901.612   3
  14   6  -7 3176.74 477.180   2
  -6 -14  -7 3414.99 781.913   3
 -14  20  -7 3451.03 504.098   3
 -20  14  -7 2811.31 611.649   3
 -14  20  -4 4590.69 742.012   4
 -14  20  -4 4491.21 804.258   2
  14   6  -4 3946.80 804.024   1
  14   6  -4 4522.29 642.247   4
   6 -20  -4 3867.06 670.602   3
  20  -6  -4 4102.39 768.520   1
   6 -20  -4 4467.13 675.083   1
  14   6  -4 4971.77 566.247   2
  -6 -14  -4 5743.71 704.481   3
 -20  14  -4 3927.51 521.418   1
 -20  14  -4 5243.96 624.008   3
 -14  20  -4 4488.85 424.233   3
 -20  14  -1 4995.67 568.165   3
   6 -20  -1 5812.45 428.296   3
 -14  20  -1 6777.71 552.076   3
  14   6  -1 7079.63 858.830   1
 -14  20  -1 5923.50 835.665   4
 -14  20  -1 5845.35 736.311   2
  14   6  -1 5914.70 769.319   4
   6 -20  -1 6111.94 481.283   3
  20  -6  -1 5789.79 728.018   1
   6 -20  -1 5769.06 688.757   1
  -6 -14  -1 6072.08 478.763   3
  14   6  -1 5808.34 665.364   2
  14   6   2 1499.76 515.917   2
  -6 -14   2 1654.52 246.943   3
 -20  14   2 1597.15 510.897   3
 -20  14   2 1957.52 407.879   2
 -14  20   2 1041.77 379.606   2
  14   6   2 2192.53 629.293   4
 -14  20   2 1664.74 482.121   4
  20  -6   2 1873.07 379.215   1
  14   6   5 3171.88 729.227   2
 -20  14   5 3080.42 605.383   4
 -14  20   5 2797.17 620.593   4
  14   6   5 3469.76 377.083   1
  14   6   5 2177.17 598.825   4
 -14  20   5 4031.15 516.314   2
 -20  14   8 704.564 333.606   4
 -14  20   8 1365.81 400.960   2
 -14  20   8 1337.08 518.599   4
  20  -5  -8 1168.11 667.312   1
 -15  20  -8 2572.09 642.992   4
   5 -20  -8 3920.05 726.818   1
 -15  20  -8 2429.28 814.487   2
  15   5  -8 2188.79 850.438   1
   5 -20  -8 3930.92 951.297   3
  15   5  -8 3174.49 453.426   2
  -5 -15  -8 4049.72 880.987   3
 -15  20  -8 3679.35 590.398   3
 -20  15  -8 3210.98 665.826   3
 -15  20  -5 14760.2 1239.98   4
 -15  20  -5 15233.4 1417.40   2
  15   5  -5 15427.6 1401.56   1
  20  -5  -5 14809.1 1371.80   1
   5 -20  -5 16564.3 1223.66   3
   5 -20  -5 14594.3 1085.74   1
  -5 -15  -5 16578.3 1218.15   3
  15   5  -5 16288.4 914.210   2
 -20  15  -5 16535.7 1084.10   3
 -20  15  -5 14230.9 854.089   1
 -15  20  -5 16106.9 820.466   3
 -15  20  -2 11819.8 695.516   3
 -15  20  -2 10849.8 1039.21   4
  15   5  -2 11893.2 1146.11   1
 -15  20  -2 12671.7 1126.39   2
  15   5  -2 9752.96 973.975   4
   5 -20  -2 12259.2 975.432   1
  20  -5  -2 11140.6 1020.03   1
   5 -20  -2 11796.2 786.804   3
  -5 -15  -2 11489.4 755.955   3
 -20  15  -2 10422.0 904.189   1
  15   5  -2 11006.2 866.006   2
 -20  15  -2 11055.6 798.602   3
  -5 -15   1 19422.6 646.010   3
 -20  15   1 20602.8 1179.45   3
 -15  20   1 20757.9 1381.53   4
 -20  15   1 18567.9 1120.55   2
  15   5   1 21034.3 1197.83   1
 -15  20   1 21900.9 1217.21   2
  15   5   1 18687.3 1328.49   4
  20  -5   1 21955.8 1090.94   1
  15   5   1 18934.1 1246.39   2
  15   5   4 3273.14 771.353   2
  15   5   4 3012.90 425.906   1
 -20  15   4 2639.20 573.963   4
  15   5   4 1958.94 331.426   1
 -20  15   4 1965.67 237.243   2
 -15  20   4 1703.86 551.163   4
 -15  20   4 3492.04 494.169   2
  15   5   4 3152.95 668.761   4
 -20  15   7 16530.9 1059.32   4
 -15  20   7 20677.6 1342.85   4
 -15  20   7 19036.8 1014.78   2
  20  -4  -9 456.191 741.425   1
 -20  16  -9 856.957 590.822   4
 -16  20  -9-144.619 458.757   4
 -16  20  -9 1827.24 822.440   2
  -4 -16  -9 979.453 430.704   1
   4 -20  -9 2610.62 964.483   3
  16   4  -9 2192.78 963.498   1
  -4 -16  -9 1819.37 785.482   3
   4 -20  -9 937.510 580.907   1
 -16  20  -9 1096.96 513.073   3
 -20  16  -9 289.779 523.250   3
 -16  20  -6 6969.75 904.723   4
 -16  20  -6 5532.29 992.973   2
  16   4  -6 6654.25 1066.44   1
  20  -4  -6 5581.71 1058.47   1
   4 -20  -6 7603.03 980.887   3
   4 -20  -6 6746.47 803.489   1
  -4 -16  -6 5810.26 878.641   3
  16   4  -6 6028.95 579.632   2
 -20  16  -6 6153.89 733.305   3
 -16  20  -6 5339.39 577.428   3
  16   4  -3 212.635 262.808   2
 -20  16  -3 306.058 326.228   3
 -16  20  -3 80.9995 236.559   3
 -20  16  -3-149.251 353.846   1
 -16  20  -3-930.924 528.991   2
   4 -20  -3 73.3436 345.235   1
  16   4  -3 730.821 550.655   1
  16   4  -3 244.062 313.419   4
   4 -20  -3-51.6181 346.016   3
  -4 -16  -3-200.891 346.915   3
  20  -4  -3-25.6111 454.082   1
 -16  20  -3 265.740 436.699   4
   4 -20   0 5137.63 247.891   3
 -16  20   0 6237.58 825.827   4
 -20  16   0 6685.77 696.639   3
 -16  20   0 6286.81 761.627   2
 -20  16   0 5422.56 700.757   2
  16   4   0 6423.92 791.732   1
  16   4   0 6703.93 828.552   4
  20  -4   0 7165.34 741.737   1
   4 -20   0 5417.41 276.623   3
  -4 -16   0 6529.29 414.182   3
  16   4   0 6907.73 760.128   2
  16   4   3 1496.28 491.742   2
  16   4   3 2170.66 457.479   1
 -20  16   3 1455.67 526.900   4
 -16  20   3 1772.82 522.239   4
  20  -4   3 1481.24 294.888   1
 -20  16   3 1454.76 316.186   2
  16   4   3 1087.25 585.667   4
 -16  20   3 1425.92 395.353   2
  16   4   3 1436.48 285.917   1
 -20  16   6 12753.7 1033.89   4
 -16  20   6 11598.8 1046.02   4
 -16  20   9-21.4444 383.491   4
  20  -3 -10 890.038 841.941   1
   3 -20 -10 903.320 534.883   1
 -20  17 -10 2283.47 770.212   4
 -17  20 -10 768.235 644.265   4
 -20  17 -10 600.240 868.329   2
 -17  20 -10 1109.83 797.023   2
   3 -20 -10 1932.42 808.249   3
  -3 -17 -10 1160.03 871.295   3
  17   3 -10 726.931 851.269   1
 -17  20 -10 1715.90 604.350   3
 -20  17 -10 1193.38 604.084   3
  -3 -17  -7 129.223 328.159   1
 -20  17  -7 1230.81 590.658   4
 -17  20  -7 729.336 481.858   4
 -17  20  -7 831.251 588.693   2
   3 -20  -7 901.950 476.203   1
  17   3  -7-179.561 768.163   1
   3 -20  -7 942.158 660.563   3
  -3 -17  -7 964.435 628.618   3
  20  -3  -7-188.473 610.535   1
 -20  17  -7 867.971 453.851   3
 -17  20  -7 923.175 415.346   3
  17   3  -7 191.834 269.955   2
 -20  17  -4 3136.75 544.368   1
 -17  20  -4 2237.71 614.376   4
 -17  20  -4 3246.66 714.471   2
   3 -20  -4 2864.41 531.343   1
  17   3  -4 3229.92 755.973   1
   3 -20  -4 3424.78 595.932   3
  -3 -17  -4 2666.59 547.750   3
  20  -3  -4 2461.01 790.353   1
  17   3  -4 3239.90 483.632   2
 -20  17  -4 2721.13 517.257   3
 -17  20  -4 2713.10 434.348   3
 -17  20  -1 2456.80 435.116   3
  17   3  -1 1909.85 489.790   2
 -20  17  -1 1822.27 410.487   3
 -20  17  -1 465.076 409.772   4
 -17  20  -1 1621.16 528.670   2
 -20  17  -1 3117.29 627.991   2
  17   3  -1 1453.97 513.363   1
 -17  20  -1 865.813 525.796   4
  17   3  -1 1510.95 475.452   4
   3 -20  -1 1629.01 296.026   3
  20  -3  -1 2134.72 533.695   1
  -3 -17  -1 2111.50 333.037   3
  20  -3   2 1489.07 365.339   1
  17   3   2 919.534 459.005   2
 -20  17   2 1880.70 539.741   4
 -20  17   2 1188.29 355.819   2
  17   3   2 1708.25 479.833   1
 -17  20   2 697.724 314.395   2
  17   3   2 377.148 442.309   4
 -17  20   2 928.194 429.106   4
 -20  17   5 924.160 457.012   4
 -17  20   5 118.839 385.055   4
  17   3   5 280.652 95.1663   1
 -17  20   5 476.016 273.597   2
 -20  17   5 227.915 115.724   2
 -20  17   8 1116.15 415.559   4
 -17  20   8 2123.46 572.907   4
 -20  18  -8 5842.60 940.312   4
 -18  20  -8 7206.33 1177.96   2
 -18  20  -8 6256.30 921.749   4
 -20  18  -8 4911.37 1095.41   2
  -2 -18  -8 7864.14 808.348   1
   2 -20  -8 7152.44 1115.85   3
  -2 -18  -8 7219.61 1096.26   3
  18   2  -8 5705.53 1051.66   1
   2 -20  -8 6733.73 865.046   1
 -20  18  -8 6499.16 830.692   3
 -18  20  -8 7655.50 821.597   3
  20  -2  -8 5250.68 1073.37   1
 -20  18  -5 13064.6 1338.02   2
 -20  18  -5 15465.8 1318.31   4
 -18  20  -5 13873.9 1258.10   4
 -18  20  -5 14655.9 1412.13   2
   2 -20  -5 15613.3 1113.49   1
  20  -2  -5 12750.8 1345.45   1
   2 -20  -5 13931.2 1146.70   3
  -2 -18  -5 15522.4 1198.63   3
  18   2  -5 14273.8 851.034   2
 -20  18  -5 14996.4 969.329   3
 -18  20  -5 14749.3 883.990   3
  18   2  -5 12820.1 1346.94   1
 -20  18  -2 7075.87 650.086   3
 -18  20  -2 8155.32 649.328   3
 -20  18  -2 8106.22 957.561   4
 -20  18  -2 8459.94 973.372   2
 -18  20  -2 7679.96 942.274   4
 -18  20  -2 8535.28 998.948   2
  18   2  -2 7772.15 935.798   1
  20  -2  -2 8272.03 975.891   1
   2 -20  -2 8112.21 651.960   3
  -2 -18  -2 7924.06 626.637   3
  18   2  -2 8083.59 733.965   2
  18   2   1 31102.5 1620.96   2
 -20  18   1 34835.9 1542.22   3
 -20  18   1 30216.3 1668.86   4
 -18  20   1 32820.3 1767.48   4
 -20  18   1 34918.1 1559.44   2
 -18  20   1 31723.7 1490.48   2
  20  -2   1 32689.9 1405.95   1
  18   2   1 30280.6 1458.38   1
  20  -2   4 1424.67 193.697   1
 -20  18   4 2124.02 520.515   4
 -20  18   4 3096.54 379.745   2
 -18  20   4 2384.41 414.148   2
 -18  20   4 1974.34 674.897   4
  18   2   4 1877.85 241.699   1
  18   2   4 1176.31 257.328   1
  20  -2   4 1317.90 154.976   1
 -20  18   7 15066.7 1135.03   4
 -18  20   7 15423.7 1194.39   4
 -20  19  -9 381.592 530.643   4
 -19  20  -9 1390.58 621.628   4
 -19  20  -9-1122.05 834.103   2
  -1 -19  -9 421.715 430.946   1
 -20  19  -9-577.448 766.951   2
   1 -20  -9-591.455 743.645   3
   1 -20  -9 187.959 424.953   1
  -1 -19  -9-844.463 860.676   3
  19   1  -9-714.555 723.902   1
  20  -1  -9 484.739 732.243   1
 -20  19  -9 1143.35 564.121   3
 -19  20  -9 220.304 451.403   3
 -20  19  -6 4084.52 775.651   4
 -19  20  -6 2982.08 725.172   4
 -20  19  -6 2589.52 802.819   2
 -19  20  -6 3407.43 853.731   2
   1 -20  -6 4414.12 714.112   1
   1 -20  -6 3837.29 809.896   3
  19   1  -6 2436.30 765.340   1
  -1 -19  -6 2446.03 685.804   3
  20  -1  -6 2939.69 850.952   1
  -1 -19  -6 4207.97 629.112   1
 -20  19  -6 4344.81 633.984   3
 -19  20  -6 4039.41 582.116   3
  19   1  -6 3699.40 449.962   2
 -20  19  -3 1450.47 363.175   3
 -19  20  -3 1582.68 398.124   3
  20  -1  -3 2275.67 454.670   2
  19   1  -3 1794.71 431.580   2
 -20  19  -3 2066.17 641.335   4
 -20  19  -3 1778.53 629.731   2
 -19  20  -3 1073.77 589.562   2
  19   1  -3 1874.99 639.988   1
  20  -1  -3 1441.60 640.981   1
   1 -20  -3 1634.95 418.955   3
  -1 -19  -3 1884.13 445.565   3
 -19  20  -3 2039.45 625.394   4
  19   1   0 2975.42 578.702   2
 -19  20   0 3753.15 548.885   3
 -20  19   0 2895.43 491.129   3
 -20  19   0 2399.86 592.677   4
 -19  20   0 3144.28 691.128   4
 -19  20   0 3361.21 647.169   2
  20  -1   0 4809.11 713.430   1
 -20  19   0 2604.30 592.765   2
  19   1   0 2857.83 609.132   1
   1 -20   0 2625.91 193.626   3
  -1 -19   0 3039.66 244.981   3
 -19  20   3 1240.34 519.878   4
 -20  19   3 660.948 298.817   2
 -19  20   3 1126.07 331.592   2
  19   1   3 1298.81 373.643   1
 -20  19   3 1263.32 583.035   4
  20  -1   3 822.252 280.029   1
 -20  19   6 4715.44 737.630   4
 -19  20   6 4633.18 744.907   4
 -19  20   6 3910.38 404.094   2
 -20  20  -7-326.749 512.800   4
 -20  20  -7 399.851 583.346   2
   0 -20  -7 49.9923 371.035   1
   0 -20  -7 917.854 640.304   3
  20   0  -7 1151.33 771.700   1
 -20  20  -7 803.995 479.674   3
 -20  20  -4 757.380 317.129   3
  20   0  -4 1544.03 400.832   2
 -20  20  -4 801.950 558.359   4
 -20  20  -4 1605.34 634.154   2
  20   0  -4 2127.50 728.980   1
   0 -20  -4 1136.08 484.415   3
 -20  20  -1 499.492 370.646   3
  20   0  -1 58.1183 338.729   2
 -20  20  -1-46.7232 441.442   4
 -20  20  -1 346.573 443.881   2
  20   0  -1 165.067 471.002   1
   0 -20  -1 131.381 218.858   3
 -20  20   2 2038.89 611.367   4
 -20  20   2 782.641 339.113   2
  20   0   2 1228.40 411.291   1
 -20  20   5-552.553 491.371   4
 -20  20   5-336.978 214.929   2
 -20  20   8 4061.67 672.784   4
   0  21  -9 66.3041 662.042   1
   0  21  -9-276.169 601.478   2
 -21   0  -9 835.854 647.246   3
  21 -21  -9 631.521 649.767   1
   0  21  -6 8563.73 1019.39   4
  21 -21  -6 7299.26 1067.48   1
   0  21  -6 7777.36 1037.55   2
 -21   0  -6 6392.59 919.497   3
  21 -21  -3 504.807 508.694   1
   0  21  -3-50.7112 448.551   4
   0  21  -3-377.206 463.740   2
 -21   0  -3 387.201 460.499   3
 -21   0   0 13868.6 1013.44   3
  21 -21   0 11820.0 983.941   1
   0  21   0 11750.3 1215.28   4
   0  21   0 14271.3 1163.80   2
 -21   0   3-3.49279 422.274   3
  21 -21   3 432.108 340.764   1
   0  21   3 160.998 507.418   4
   0  21   3-388.394 417.944   2
   0  21   6 4045.85 770.148   2
   0  21   6 5327.02 901.232   4
   0  21   9 618.253 701.243   2
   0  21   9 559.481 537.443   4
  21 -20  -7 9697.43 1143.72   1
  20 -21  -7 10729.0 1265.94   1
  -1  21  -7 9184.12 1103.94   2
   1  20  -7 11042.4 1165.05   2
   1  20  -7 9666.99 1057.02   4
 -20  -1  -7 8440.39 1144.99   3
 -21   1  -7 8717.97 1060.14   3
  -1  21  -7 7371.02 988.666   4
  20 -21  -4 2684.35 644.833   1
  21 -20  -4 3737.53 763.373   1
  -1  21  -4 3199.48 721.765   4
   1  20  -4 3688.03 757.089   4
  -1  21  -4 3017.14 614.904   2
   1  20  -4 3464.02 679.087   2
 -20  -1  -4 2772.07 620.486   3
 -21   1  -4 1695.38 527.662   3
  -1  21  -1 25513.1 1669.15   4
   1  20  -1 24177.6 1618.63   4
   1  20  -1 24979.2 1495.18   2
  -1  21  -1 22871.2 1448.12   2
  21 -20  -1 21302.3 1326.97   1
  20 -21  -1 24802.8 1399.18   1
 -20  -1  -1 22715.7 1225.02   3
 -21   1  -1 22687.0 1261.26   3
 -20  -1   2 1878.46 514.130   3
 -21   1   2 1688.63 497.225   3
  -1  21   2 2666.91 648.367   4
  20 -21   2 1274.28 418.952   1
   1  20   2 2211.92 561.499   4
  21 -20   2 3456.00 592.764   1
  -1  21   2 2266.88 547.473   2
   1  20   2 2592.23 629.652   2
  -1  21   5 14899.5 1374.37   4
   1  20   5 15303.3 1372.62   4
  -1  21   5 13491.7 1176.27   2
   1  20   5 12815.3 1164.32   2
  -1  21   8 4045.45 917.887   2
   1  20   8 3923.19 874.435   2
  -1  21   8 4429.64 916.596   4
   1  20   8 4083.66 850.449   4
  19 -21  -8 2950.72 795.969   1
  21 -19  -8 5907.57 995.764   1
   2  19  -8 4700.82 1114.85   1
   2  19  -8 3803.02 702.703   4
  -2  21  -8 3562.43 724.484   4
  -2  21  -8 4101.52 818.889   2
   2  19  -8 3988.02 767.969   2
 -21   2  -8 5137.30 946.433   3
 -19  -2  -8 3523.61 819.965   3
  19 -21  -5 512.074 492.437   1
  -2  21  -5 136.733 405.351   4
   2  19  -5 264.838 408.290   4
  -2  21  -5 255.268 534.232   2
   2  19  -5 1033.38 502.850   2
  21 -19  -5 1261.08 596.892   1
 -19  -2  -5 1085.55 487.560   3
 -21   2  -5 1011.25 525.061   3
 -19  -2  -2 373.333 399.528   3
 -21   2  -2 262.398 362.402   3
  21 -19  -2 296.733 400.482   1
  -2  21  -2-139.933 465.588   4
  19 -21  -2 275.317 394.976   1
  -2  21  -2 17.7019 395.859   2
   2  19  -2-287.983 425.944   2
   2  19  -2 248.682 406.993   4
  21 -19   1 2172.40 481.370   1
   2  19   1 1929.40 631.746   4
 -19  -2   1 1953.40 451.432   3
 -21   2   1 1765.77 509.137   3
  -2  21   1 1331.16 553.685   4
  -2  21   1 2115.15 541.238   2
   2  19   1 1847.09 525.141   2
  19 -21   1 1631.29 439.141   1
 -21   2   4 2630.68 668.271   3
 -19  -2   4 3529.99 696.172   3
  -2  21   4 1864.46 640.153   4
   2  19   4 2048.22 633.132   4
 -19  -2   4 1688.88 440.868   2
 -21   2   4 1713.48 400.198   2
  -2  21   4 3218.91 601.782   2
   2  19   4 1626.80 549.986   2
  -2  21   7 281.913 481.495   2
   2  19   7 1139.25 694.358   2
  -2  21   7-132.778 512.365   4
   2  19   7 307.246 567.486   4
   3  18  -9 548.166 743.433   1
  18 -21  -9 395.711 668.093   1
  -3  21  -9 152.731 545.085   2
  -3  21  -9-805.544 701.039   1
   3  18  -9 549.137 520.210   2
  21 -18  -9 416.535 619.773   1
 -18  -3  -9 324.396 654.896   3
 -21   3  -9-682.872 737.612   3
  21 -18  -6 10843.8 1178.13   1
  -3  21  -6 13175.3 1175.27   4
  -3  21  -6 12218.8 1228.00   2
   3  18  -6 13812.8 1176.15   4
   3  18  -6 11797.9 1142.85   2
  18 -21  -6 11706.7 1184.72   1
   3  18  -6 9520.48 542.922   3
 -18  -3  -6 11950.8 1156.83   3
 -21   3  -6 11207.7 1108.43   3
  -3  21  -3 4420.77 814.573   4
  -3  21  -3 4730.69 746.932   2
   3  18  -3 4396.41 749.964   4
   3  18  -3 3919.01 704.230   2
  18 -21  -3 5720.95 828.353   1
 -18  -3  -3 4256.13 650.220   3
  21 -18  -3 3920.01 687.554   1
 -21   3  -3 4968.71 692.213   3
 -21   3   0 4674.91 625.546   3
  18 -21   0 2874.01 509.386   1
   3  18   0 5053.17 770.032   4
  21 -18   0 3343.23 541.729   1
  -3  21   0 3098.96 704.734   4
  -3  21   0 4436.19 673.440   2
   3  18   0 4662.92 735.034   2
 -18  -3   0 4034.10 561.815   3
 -18  -3   3 2506.67 593.522   3
 -21   3   3 1850.55 503.587   3
   3  18   3 3597.50 747.279   4
 -21   3   3 2167.33 403.047   2
  -3  21   3 3274.24 679.717   4
  18 -21   3 1434.89 416.561   1
  -3  21   3 2963.05 582.775   2
  21 -18   3 2717.09 465.129   1
   3  18   3 2507.29 599.894   2
  -3  21   6 2627.25 637.773   2
   3  18   6 2922.19 736.480   2
  -3  21   6 3369.58 736.103   4
   3  18   6 2739.72 717.807   4
  -3  21   9 2615.03 786.268   2
   3  18   9 2322.40 804.707   2
  -3  21   9 2230.63 741.114   4
   3  18   9 3148.57 775.162   4
  21 -17  -7 6642.71 1098.75   1
  -4  21  -7 8138.37 1010.12   4
  -4  21  -7 9031.99 1107.43   2
   4  17  -7 7604.85 896.578   4
   4  17  -7 7793.22 953.050   2
  17 -21  -7 6350.22 970.758   1
   4  17  -7 7310.80 632.405   3
 -17  -4  -7 7811.75 1086.31   3
 -21   4  -7 8317.42 1051.65   3
  17 -21  -4 4862.68 648.717   2
  21 -17  -4 6078.56 859.219   1
  -4  21  -4 6771.92 887.964   4
   4  17  -4 5515.97 822.234   4
  -4  21  -4 6760.04 886.209   2
   4  17  -4 5333.29 755.357   2
  17 -21  -4 5634.24 807.571   1
   4  17  -4 5209.54 298.660   3
 -17  -4  -4 6244.43 778.780   3
 -21   4  -4 5024.45 710.064   3
  17 -21  -1 26483.1 1396.47   1
  -4  21  -1 25984.9 1615.97   4
   4  17  -1 24597.5 1543.51   4
  21 -17  -1 26343.1 1416.37   1
  -4  21  -1 26318.3 1507.42   2
   4  17  -1 21724.8 774.586   3
   4  17  -1 27403.8 1467.79   2
 -17  -4  -1 25651.1 1221.28   3
 -21   4  -1 25507.2 1285.85   3
   4  17   2 5273.33 792.434   4
 -17  -4   2 5418.01 634.819   3
 -21   4   2 6458.83 744.280   3
  21 -17   2 4500.98 542.013   1
  -4  21   2 7985.79 970.457   4
  -4  21   2 4943.76 692.105   2
 -21   4   2 5420.02 585.817   2
   4  17   2 5864.65 772.752   2
  17 -21   2 4787.83 572.578   3
  17 -21   2 5313.08 649.704   1
  -4  21   5 9815.47 1085.84   4
   4  17   5 12006.9 1197.38   4
  -4  21   5 13256.6 1105.04   2
   4  17   5 9562.41 1045.46   2
   4  17   8 4020.32 840.062   2
  -4  21   8 4188.17 833.588   4
   4  17   8 5676.56 944.076   4
  -4  21   8 5622.21 903.964   2
  16 -21  -8 2731.92 757.215   1
  -5  21  -8 1791.34 611.935   4
   5  16  -8 1175.18 757.928   1
  -5  21  -8 3354.56 771.557   2
   5  16  -8 2344.99 572.231   4
  21 -16  -8 2603.33 745.021   1
   5  16  -8 2503.49 694.307   2
   5  16  -8 2744.28 537.790   3
 -16  -5  -8 2889.72 778.951   3
 -21   5  -8 2549.98 719.540   3
  -5  21  -5 862.698 496.446   4
  16 -21  -5 132.841 336.667   2
  16 -21  -5 1611.31 633.771   1
   5  16  -5 1166.80 506.464   4
  -5  21  -5 1711.46 588.226   2
  21 -16  -5 596.241 508.335   1
   5  16  -5 1833.01 507.105   2
 -16  -5  -5 332.038 487.932   3
 -21   5  -5-313.519 504.076   3
   5  16  -5 530.122 220.194   3
  16 -21  -2 12115.1 997.096   1
  21 -16  -2 12387.4 1048.99   1
  -5  21  -2 12029.5 1140.03   4
   5  16  -2 12302.1 1129.73   4
   5  16  -2 12209.4 1028.58   2
   5  16  -2 10660.6 522.722   3
  -5  21  -2 12498.3 1063.63   2
 -16  -5  -2 9149.06 813.224   3
 -21   5  -2 11182.8 910.492   3
 -16  -5   1 1097.69 378.646   3
 -21   5   1 1764.93 501.348   3
  -5  21   1 1375.91 529.821   4
  21 -16   1 1402.00 376.043   1
   5  16   1 1609.20 510.149   4
  16 -21   1 1196.84 418.372   1
   5  16   1 1457.16 401.944   3
  -5  21   1 881.694 426.012   2
   5  16   1 1386.74 497.347   2
  16 -21   1 808.128 296.273   3
   5  16   4 2113.65 624.428   2
  -5  21   4 2958.67 698.534   4
 -21   5   4 2072.66 319.515   2
   5  16   4 2938.21 685.639   4
  21 -16   4 2757.65 407.165   1
  -5  21   4 3288.66 569.145   2
  16 -21   4 2147.46 488.436   3
  -5  21   7 110.141 460.806   2
   5  16   7-415.072 530.768   2
  -5  21   7 322.787 510.660   4
   5  16   7 835.471 580.619   4
  -5  21  10 885.484 553.049   4
   5  16  10-419.761 582.338   4
  15 -21  -9 1936.92 697.323   1
  -6  21  -9 390.843 458.642   4
   6  15  -9 3171.15 944.617   1
  -6  21  -9 1852.46 784.879   2
  21 -15  -9 2492.31 848.815   1
   6  15  -9 1006.39 569.275   2
   6  15  -9 1710.27 560.880   3
 -15  -6  -9 525.355 712.967   3
 -21   6  -9 1808.09 760.374   3
  -6  21  -6 3889.20 706.182   4
   6  15  -6 4306.97 681.328   4
  -6  21  -6 3621.30 743.420   2
  21 -15  -6 3881.56 815.788   1
   6  15  -6 4142.14 705.618   2
  15 -21  -6 4080.17 785.304   1
 -21   6  -6 5327.16 776.462   3
 -15  -6  -6 3583.31 757.164   3
  -6  21  -6 2917.93 211.735   3
  21 -15  -3 7458.74 910.335   1
  -6  21  -3 6441.08 840.780   4
  -6  21  -3 8644.96 943.410   2
   6  15  -3 8459.49 927.359   4
   6  15  -3 7892.17 855.669   2
   6  15  -3 7571.30 456.268   3
 -15  -6  -3 7013.24 753.660   3
 -21   6  -3 7179.42 764.223   3
  15 -21  -3 7301.73 829.405   1
 -21   6   0 9151.42 812.370   3
  -6  21   0 9880.77 1018.55   4
   6  15   0 10377.5 1058.31   4
  21 -15   0 10588.1 872.746   1
  -6  21   0 9730.18 901.965   2
  15 -21   0 8762.41 824.464   1
   6  15   0 8660.98 662.376   3
   6  15   0 9129.92 884.948   2
  15 -21   0 8398.07 585.236   3
 -15  -6   0 10070.9 759.638   3
 -15  -6   3 5609.64 641.572   3
 -21   6   3 6476.36 823.434   3
  -6  21   3 7348.49 936.079   4
  21 -15   3 5452.58 555.270   1
   6  15   3 5942.26 845.327   4
 -21   6   3 4556.02 469.064   2
  -6  21   3 6215.83 710.164   2
  15 -21   3 4117.26 516.186   3
   6  15   3 5515.80 773.929   2
   6  15   6 4304.29 834.584   4
   6  15   6 2896.53 702.642   2
  -6  21   6 3681.45 720.154   4
  -6  21   6 3989.52 678.355   2
  -6  21   9 4936.05 910.857   2
  -6  21   9 4616.25 786.671   4
   6  15   9 4243.93 851.418   4
  14 -21 -10 943.192 624.083   1
  -7  21 -10 1449.02 707.740   1
  -7  21 -10 813.748 663.494   2
  21 -14 -10 1106.31 738.425   1
   7  14 -10 922.536 886.180   1
   7  14 -10 1369.89 589.053   2
 -14  -7 -10 838.242 712.104   3
 -21   7 -10 532.037 601.354   3
  21 -14  -7 6267.45 1003.99   1
  -7  21  -7 7283.09 925.632   4
   7  14  -7 6028.76 1046.32   1
   7  14  -7 6903.08 759.619   4
   7  14  -7 5190.94 727.095   2
  -7  21  -7 5803.50 930.193   2
  14 -21  -7 5742.28 882.214   1
 -14  -7  -7 7427.57 1026.97   3
  -7  21  -7 5581.20 441.566   3
 -21   7  -7 4565.74 815.406   3
  21 -14  -4 5691.32 871.123   1
  -7  21  -4 5187.49 769.549   4
   7  14  -4 5976.98 824.714   4
  -7  21  -4 6958.31 875.122   2
   7  14  -4 5836.49 756.686   2
 -14  -7  -4 5538.50 731.546   3
   7  14  -4 4843.03 434.177   3
  14 -21  -4 7124.64 834.076   1
 -21   7  -4 6167.23 794.313   3
  21 -14  -1 12672.3 959.958   1
  -7  21  -1 13992.7 1173.85   4
  14 -21  -1 15593.6 1078.13   1
  -7  21  -1 13102.8 1091.92   2
   7  14  -1 13662.6 1167.32   4
   7  14  -1 12937.2 1002.70   2
   7  14  -1 13060.0 706.668   3
 -14  -7  -1 13525.3 842.284   3
 -21   7  -1 12489.5 906.017   3
  14 -21  -1 11581.8 681.873   3
 -14  -7   2 8742.75 734.927   3
 -21   7   2 8833.49 861.299   3
  -7  21   2 9447.41 1004.42   4
   7  14   2 8551.03 979.740   4
  -7  21   2 8642.07 831.223   2
  14 -21   2 7654.66 569.501   3
 -21   7   2 6331.01 586.898   2
   7  14   2 8142.38 899.104   2
  21 -14   2 7956.94 674.602   1
  14 -21   2 8198.95 793.573   1
  -7  21   5 8126.96 954.092   4
   7  14   5 9599.77 1100.86   4
  14 -21   5 8112.55 739.609   3
  -7  21   5 11709.5 981.204   2
   7  14   5 9564.42 1078.30   2
   7  14   8 7029.23 1103.25   2
  -7  21   8 7614.50 941.183   4
   7  14   8 8837.34 1090.42   4
  -7  21   8 6390.98 927.148   2
   8  13  -8 5769.54 774.442   2
  -8  21  -8 5372.19 834.834   4
  -8  21  -8 5244.98 1013.42   2
   8  13  -8 3260.32 1068.98   1
   8  13  -8 5060.20 617.159   4
  13 -21  -8 5883.69 976.077   1
  -8  21  -8 5317.88 555.592   3
 -21   8  -8 4912.94 858.227   3
 -13  -8  -8 5107.39 949.838   3
  21 -13  -8 6126.39 1034.98   1
   8  13  -5 1719.26 341.875   3
  21 -13  -5 1466.93 616.622   1
  -8  21  -5 2199.34 653.523   2
  -8  21  -5 1510.39 503.483   4
   8  13  -5 2190.92 506.999   4
  13 -21  -5 2481.34 595.978   1
   8  13  -5 1938.07 468.814   2
 -13  -8  -5 1761.41 549.398   3
 -21   8  -5 1601.31 565.765   3
  -8  21  -5 1305.73 147.841   3
  21 -13  -2 25997.6 1484.45   1
 -21   8  -2 26403.4 1243.38   1
  13 -21  -2 25728.0 1373.39   1
  -8  21  -2 28427.8 1624.63   4
   8  13  -2 26703.3 1559.94   4
  -8  21  -2 26617.2 1510.97   2
   8  13  -2 26714.5 1379.34   2
   8  13  -2 24894.0 920.601   3
 -13  -8  -2 26466.4 1205.52   3
 -21   8  -2 28873.1 1350.37   3
 -13  -8   1 4141.02 511.026   3
 -21   8   1 2932.61 527.157   3
  -8  21   1 4694.41 745.124   4
  13 -21   1 3577.79 538.296   1
  21 -13   1 3891.59 556.697   1
   8  13   1 4245.68 757.668   4
  -8  21   1 3756.43 604.484   2
   8  13   1 4816.48 582.077   3
   8  13   1 4618.34 673.549   2
  13 -21   1 4030.03 415.278   3
 -21   8   1 4122.28 539.372   2
  21 -13   4 5434.75 454.898   1
  -8  21   4 6023.97 851.843   4
   8  13   4 6382.96 891.080   4
 -21   8   4 4224.77 300.862   2
  13 -21   4 4437.05 509.402   3
  -8  21   4 5319.98 648.858   2
   8  13   4 5808.94 840.306   2
   8  13   7 5839.60 953.499   2
 -21   8   7 4319.34 591.602   4
  -8  21   7 6016.96 866.025   4
   8  13   7 3901.42 799.916   4
  -8  21   7 4521.43 751.656   2
   8  13  10 1012.06 654.877   4
  -9  21  -9 4697.86 961.281   2
   9  12  -9 7640.92 1258.96   1
  -9  21  -9 4836.80 798.018   4
  21 -12  -9 3985.71 992.154   1
   9  12  -9 4635.08 732.835   2
  12 -21  -9 4675.41 853.738   1
 -21   9  -9 4315.29 951.652   3
 -12  -9  -9 5620.64 1055.42   3
  -9  21  -6 3411.20 658.850   4
  21 -12  -6 2574.73 675.187   1
   9  12  -6 1810.09 640.335   1
  -9  21  -6 3205.69 769.892   2
   9  12  -6 2256.19 494.361   4
  12 -21  -6 3277.06 720.526   1
   9  12  -6 2264.23 554.079   2
 -12  -9  -6 1591.20 605.366   3
  -9  21  -6 2601.50 292.004   3
 -21   9  -6 3112.28 676.650   3
  12 -21  -3 8999.20 874.123   1
 -21   9  -3 9086.68 683.743   1
  -9  21  -3 10666.3 1027.84   4
  -9  21  -3 7404.08 902.447   2
   9  12  -3 9786.68 954.177   4
   9  12  -3 8259.64 787.708   2
 -12  -9  -3 8117.90 777.601   3
   9  12  -3 9016.87 615.704   3
 -21   9  -3 8250.92 787.861   3
  21 -12  -3 10349.6 1033.98   1
  12 -21   0 1043.85 244.709   3
 -12  -9   0 1269.28 330.369   3
 -21   9   0 887.392 388.217   3
  -9  21   0 1197.38 492.366   4
   9  12   0 1237.40 529.834   4
  -9  21   0 883.151 404.657   2
  21 -12   0 1076.42 369.912   1
  12 -21   0 1162.35 383.539   1
   9  12   0 918.763 359.188   3
   9  12   0 1028.27 390.704   2
  21 -12   3 12908.2 702.346   1
 -12  -9   3 12222.7 799.260   3
 -21   9   3 12595.0 1075.17   3
  -9  21   3 11317.8 1090.71   4
   9  12   3 12336.3 1157.07   4
  -9  21   3 10915.4 885.265   2
  12 -21   3 10643.9 584.131   3
 -21   9   3 11978.6 629.281   2
   9  12   3 11916.2 1075.12   2
   9  12   6 2266.34 647.070   2
  -9  21   6 1771.08 540.487   4
   9  12   6 2177.50 682.398   4
  -9  21   6 2176.49 521.598   2
  -9  21   9 5053.55 838.215   2
  -9  21   9 5293.53 818.495   4
   9  12   9 7727.23 1060.54   4
 -10  21 -10-332.471 623.037   2
 -10  21 -10 884.903 586.077   1
  21 -11 -10 2030.72 931.822   1
  11 -21 -10 1191.31 634.297   1
  10  11 -10 3051.53 1050.14   1
  11 -21 -10 627.757 859.969   3
 -11 -10 -10 1047.21 784.729   3
 -21  10 -10 1386.32 685.214   3
  21 -11  -7 2958.22 779.736   1
  10  11  -7 3703.78 1025.61   1
 -10  21  -7 4052.65 769.834   4
  10  11  -7 3611.65 557.811   4
  10  11  -7 4060.34 648.348   2
 -11 -10  -7 5980.69 931.580   3
 -10  21  -7 3707.42 872.412   2
 -10  21  -7 3826.83 442.178   3
  11 -21  -7 3774.11 760.650   1
 -21  10  -7 4169.32 730.163   3
 -10  21  -4 4718.64 293.107   3
  11 -21  -4 5730.02 730.658   1
 -21  10  -4 3865.44 416.342   1
 -10  21  -4 6159.72 828.897   4
 -10  21  -4 3935.39 747.802   2
  10  11  -4 5339.50 729.438   4
  10  11  -4 5881.46 660.740   2
 -11 -10  -4 6356.19 760.855   3
  21 -11  -4 5343.52 834.684   1
 -21  10  -4 5161.17 690.169   3
  10  11  -4 4141.05 466.964   3
  21 -11  -1 10169.0 917.936   1
  11 -21  -1 9433.78 561.390   3
 -10  21  -1 9400.68 983.747   4
 -21  10  -1 8923.80 840.732   1
 -10  21  -1 9222.72 889.826   2
  10  11  -1 8707.74 942.102   4
  10  11  -1 10993.2 910.754   2
  10  11  -1 9645.18 682.993   3
  11 -21  -1 11320.7 918.256   1
 -11 -10  -1 10979.7 733.079   3
 -21  10  -1 9970.06 827.219   3
 -11 -10   2 8343.29 643.161   3
 -21  10   2 8521.73 863.742   3
 -10  21   2 9041.18 967.677   4
  21 -11   2 8600.98 656.371   1
  10  11   2 9365.75 972.392   4
 -10  21   2 9380.99 828.533   2
  11 -21   2 8351.04 442.149   3
  10  11   2 8209.97 877.655   2
 -21  10   2 7742.10 614.470   2
  10  11   5 6164.31 904.309   2
 -10  21   5 7400.16 896.097   4
  10  11   5 6628.81 665.839   1
  10  11   5 6693.86 956.049   4
 -10  21   5 7132.77 747.665   2
 -10  21   8 9127.08 961.846   2
 -10  21   8 9311.83 1020.01   4
  11  10  -8 9518.71 1276.64   1
 -11  21  -8 8537.43 1178.11   2
  11  10  -8 6488.64 636.816   4
  11  10  -8 9443.39 852.995   2
  10 -21  -8 9945.34 1313.43   3
 -10 -11  -8 6448.54 1045.85   3
 -11  21  -8 8707.06 721.208   3
 -21  11  -8 7940.38 973.989   3
  21 -10  -8 7964.74 1149.70   1
 -11  21  -8 8798.89 1024.56   4
  10 -21  -8 9844.01 1083.69   1
 -21  11  -5 3731.85 304.048   1
  10 -21  -5 5870.63 815.211   1
  11  10  -5 6034.04 1003.74   1
 -11  21  -5 6809.69 870.205   4
  11  10  -5 6427.30 784.039   4
 -11  21  -5 5520.87 873.568   2
  11  10  -5 4992.27 608.307   2
 -10 -11  -5 6124.56 833.644   3
  21 -10  -5 7202.31 980.691   1
 -21  11  -5 6155.48 774.659   3
 -11  21  -5 6549.68 425.529   3
 -11  21  -2 8595.54 926.494   4
  10 -21  -2 7849.83 625.051   3
 -11  21  -2 8798.83 937.194   2
 -21  11  -2 7432.01 726.132   1
  11  10  -2 7736.23 890.869   4
  10 -21  -2 8645.40 834.452   1
  11  10  -2 8783.55 808.809   2
  11  10  -2 8439.50 653.037   3
 -10 -11  -2 9431.28 736.033   3
  21 -10  -2 8430.46 905.015   1
 -21  11  -2 8758.57 765.201   3
 -10 -11   1 10644.8 662.699   3
 -21  11   1 8810.64 755.988   2
 -21  11   1 8544.84 785.884   3
  21 -10   1 8828.53 731.580   1
 -11  21   1 9866.01 1003.10   4
 -11  21   1 10349.8 911.780   2
  11  10   1 11970.2 1119.54   4
  10 -21   1 10295.1 876.372   1
  10 -21   1 9625.09 443.926   3
  11  10   1 9910.19 942.794   2
 -21  11   4 3477.78 241.386   2
 -11  21   4 5272.67 745.515   4
  11  10   4 5894.55 905.294   4
 -21  11   4 3453.62 222.165   2
 -11  21   4 6726.58 682.829   2
  21 -10   4 5273.90 367.807   1
  11  10   4 5792.05 846.446   2
  11  10   4 4974.73 551.256   1
 -11  21   7 3582.37 597.196   2
 -21  11   7 3727.75 574.876   4
 -11  21   7 4127.00 757.511   4
  11  10   7 3935.13 805.553   4
  21  -9  -9 4674.02 1054.70   1
 -12  21  -9 7526.22 1159.09   2
 -12  21  -9 7290.96 949.737   4
  12   9  -9 7758.89 1312.30   1
  12   9  -9 7393.93 769.918   2
   9 -21  -9 7837.27 1406.28   3
  -9 -12  -9 7739.32 1148.96   3
 -12  21  -9 7063.48 729.764   3
 -21  12  -9 8399.82 1037.83   3
   9 -21  -9 8922.17 1054.96   1
   9 -21  -6 827.664 475.321   1
  21  -9  -6 1228.28 645.250   1
 -12  21  -6 2334.62 722.059   2
  12   9  -6 1096.08 620.664   1
 -12  21  -6 1577.00 563.847   4
  12   9  -6 1869.81 478.441   4
  12   9  -6 791.119 293.788   2
  -9 -12  -6 1215.87 595.788   3
 -21  12  -6 1790.31 552.432   3
 -12  21  -6 1459.81 328.888   3
 -12  21  -3 10729.4 1056.62   4
 -12  21  -3 11859.4 547.266   3
  12   9  -3 10407.2 1083.08   1
 -12  21  -3 11060.0 1106.18   2
 -21  12  -3 10988.8 843.750   1
  12   9  -3 12081.4 1025.58   4
   9 -21  -3 10081.6 924.016   1
  12   9  -3 12292.8 922.461   2
  21  -9  -3 10660.8 1091.26   1
  -9 -12  -3 9984.58 833.637   3
 -21  12  -3 12886.2 938.277   3
  -9 -12   0 1969.94 336.335   3
 -21  12   0 1503.47 410.101   3
   9 -21   0 1616.78 461.062   1
 -12  21   0 1648.00 505.575   4
 -12  21   0 2368.25 565.335   2
  12   9   0 2179.22 596.828   4
   9 -21   0 1931.16 236.222   3
  21  -9   0 2586.24 534.830   1
  12   9   0 2456.45 536.508   2
 -21  12   3 9976.37 984.702   3
 -21  12   3 7627.66 566.703   2
 -12  21   3 9410.60 962.036   4
  12   9   3 9180.04 988.624   4
 -12  21   3 9242.64 792.219   2
  21  -9   3 9368.44 579.465   1
  12   9   3 8597.64 647.295   1
 -21  12   3 7473.16 518.406   2
  12   9   3 8456.28 947.356   2
  12   9   6 3165.83 753.297   2
 -21  12   6 2324.73 503.654   4
 -12  21   6 2828.18 627.066   4
  12   9   6 2482.80 679.754   4
 -12  21   6 4125.91 611.798   2
 -12  21   9 3235.00 668.200   4
  21  -8 -10 1483.79 772.615   1
 -13  21 -10 1174.85 618.338   1
 -13  21 -10 102.027 545.442   4
 -13  21 -10 2869.36 994.631   2
  13   8 -10 1002.95 770.301   1
   8 -21 -10 4558.92 1240.23   3
  -8 -13 -10 2427.88 934.699   3
 -21  13 -10 1662.13 738.805   3
   8 -21 -10 2261.00 689.286   1
   8 -21  -7 3882.43 719.810   1
  13   8  -7 4942.62 1097.80   1
 -13  21  -7 2930.31 794.427   2
  13   8  -7 4297.26 555.552   4
  13   8  -7 5392.88 628.256   2
   8 -21  -7 4278.93 897.236   3
  -8 -13  -7 5441.06 946.919   3
  21  -8  -7 4415.30 955.376   1
 -21  13  -7 5150.67 798.944   3
 -13  21  -7 4995.67 539.498   3
 -13  21  -7 3773.13 705.050   4
  13   8  -4 6966.61 1050.59   1
 -13  21  -4 4992.18 798.261   2
   8 -21  -4 5052.43 689.531   1
  13   8  -4 5728.92 746.271   4
 -21  13  -4 4519.02 554.070   1
  13   8  -4 5963.74 639.948   2
  21  -8  -4 5513.33 834.729   1
  -8 -13  -4 5102.02 688.871   3
 -13  21  -4 4434.96 710.063   4
 -21  13  -4 4975.34 662.304   3
 -13  21  -4 5745.19 443.520   3
 -21  13  -1 3868.23 551.748   3
   8 -21  -1 4267.76 376.971   3
 -13  21  -1 3675.68 663.169   4
 -13  21  -1 5341.65 743.068   2
   8 -21  -1 4094.16 640.310   1
  13   8  -1 4608.22 743.741   4
  13   8  -1 5136.61 615.532   2
  21  -8  -1 4732.95 696.422   1
  -8 -13  -1 3368.94 414.336   3
  -8 -13   2 28178.8 940.484   3
 -21  13   2 24249.1 1086.31   2
 -21  13   2 28213.5 1447.50   3
  21  -8   2 26890.6 1077.63   1
 -21  13   2 24249.8 1142.81   2
 -13  21   2 26823.6 1573.70   4
 -13  21   2 25255.0 1298.99   2
  13   8   2 24009.0 1521.35   4
  13   8   2 26884.6 1527.18   2
  13   8   5 2391.68 393.490   1
  13   8   5 1442.07 536.527   2
 -21  13   5 2243.99 504.727   4
 -13  21   5 1829.33 529.962   4
  13   8   5 2580.78 648.114   4
 -13  21   5 1731.83 389.615   2
 -13  21   8 4590.51 669.038   2
 -21  13   8 3218.25 483.530   4
 -13  21   8 4688.63 757.618   4
  21  -7  -8 4315.01 995.898   1
 -14  21  -8 5436.28 858.409   4
 -14  21  -8 5153.74 1027.27   2
   7 -21  -8 6488.86 884.173   1
  14   7  -8 7192.86 1185.54   1
  14   7  -8 6036.27 661.448   2
   7 -21  -8 5682.08 1040.00   3
  -7 -14  -8 2690.81 854.510   3
 -21  14  -8 5923.96 870.416   3
 -14  21  -8 5794.72 668.743   3
 -14  21  -5 9258.99 1034.45   4
 -14  21  -5 10232.4 1185.22   2
  14   7  -5 12141.6 1278.01   1
   7 -21  -5 12792.5 1091.61   1
  14   7  -5 11367.4 902.676   4
   7 -21  -5 12267.9 1140.26   3
 -21  14  -5 10313.6 706.540   1
  21  -7  -5 8978.86 1141.86   1
  14   7  -5 12296.9 866.494   2
  -7 -14  -5 12062.0 1051.67   3
 -21  14  -5 10342.6 913.007   3
 -14  21  -5 11204.4 654.489   3
 -14  21  -2 9203.09 578.564   3
  14   7  -2 9367.33 1016.67   1
 -14  21  -2 8678.10 932.143   4
   7 -21  -2 7650.85 791.514   1
 -14  21  -2 7551.39 923.940   2
  14   7  -2 10204.9 962.468   4
   7 -21  -2 8065.86 712.113   3
 -21  14  -2 7363.10 767.692   1
  21  -7  -2 9837.36 955.027   1
  14   7  -2 8549.11 787.098   2
  -7 -14  -2 9265.40 698.169   3
 -21  14  -2 8764.25 761.525   3
  -7 -14   1 14310.7 662.419   3
 -21  14   1 15168.8 1033.03   3
 -21  14   1 12945.7 964.509   2
 -14  21   1 12767.3 1130.45   4
 -14  21   1 14037.5 1029.37   2
  14   7   1 15851.4 1262.24   4
  21  -7   1 13952.6 895.926   1
  14   7   1 13845.0 1106.15   2
  14   7   4 6180.69 873.696   2
  14   7   4 4597.96 448.896   1
 -21  14   4 5713.47 759.778   4
  21  -7   4 3338.83 244.788   1
  14   7   4 6742.89 907.972   4
 -14  21   4 5956.30 795.075   4
 -21  14   4 4024.27 297.487   2
 -14  21   4 5319.02 600.370   2
 -21  14   4 4219.83 298.911   2
 -21  14   7 4740.37 672.272   4
 -14  21   7 5888.55 788.061   4
  14   7   7 6526.60 1000.94   4
 -14  21   7 6429.29 707.345   2
  21  -6  -9 2413.02 836.933   1
 -21  15  -9 1640.43 686.789   4
 -15  21  -9 2663.85 709.879   4
 -15  21  -9 3528.99 932.958   2
   6 -21  -9 3491.98 738.122   1
   6 -21  -9 6123.46 1234.27   3
  15   6  -9 3423.65 1081.27   1
  -6 -15  -9 3983.95 923.727   3
 -21  15  -9 4219.85 817.265   3
 -15  21  -9 2978.50 613.438   3
 -15  21  -6 3424.20 681.459   4
 -15  21  -6 2184.21 740.389   2
   6 -21  -6 3900.32 710.780   1
  15   6  -6 3523.71 838.739   1
   6 -21  -6 3391.95 756.499   3
  15   6  -6 3221.78 480.970   2
  -6 -15  -6 3311.10 757.424   3
 -15  21  -6 3164.74 454.053   3
 -21  15  -6 2103.51 516.933   3
  21  -6  -6 3182.00 796.685   1
 -15  21  -3 5942.70 486.852   3
   6 -21  -3 5855.46 722.208   1
 -15  21  -3 6326.22 885.522   4
  15   6  -3 5088.57 876.192   1
  15   6  -3 7345.76 809.629   4
   6 -21  -3 5338.21 671.720   3
 -15  21  -3 4707.91 819.073   2
  21  -6  -3 6912.65 885.338   1
 -21  15  -3 5226.25 669.518   1
  -6 -15  -3 5991.58 672.164   3
  15   6  -3 4566.03 580.977   2
 -21  15  -3 6088.36 663.147   3
 -21  15   0 8681.08 801.014   3
  15   6   0 7798.48 822.139   1
 -15  21   0 10598.4 1034.87   4
 -15  21   0 9300.96 897.772   2
  15   6   0 9885.75 1009.44   4
   6 -21   0 9231.04 405.914   3
  21  -6   0 8749.35 825.249   1
  15   6   0 10170.0 925.365   2
  -6 -15   0 8274.10 520.906   3
   6 -21   0 8060.79 327.252   3
  15   6   3 6566.99 888.202   2
 -21  15   3 7538.78 911.013   4
  21  -6   3 6090.78 474.514   1
 -15  21   3 6018.18 824.167   4
 -21  15   3 6865.16 579.268   2
  15   6   3 6396.75 529.003   1
 -15  21   3 6937.42 665.065   2
  15   6   3 7996.52 966.133   4
 -15  21   6 5412.58 775.833   4
  15   6   6 3338.07 298.462   1
 -21  15   6 3886.22 596.228   4
  15   6   6 5269.30 894.467   4
 -15  21   6 6034.13 664.047   2
 -15  21   9 1697.63 521.338   4
  21  -5 -10 1050.76 765.875   1
 -16  21 -10 557.330 576.357   4
 -16  21 -10 293.487 710.809   2
   5 -21 -10-140.512 481.481   1
 -21  16 -10-866.478 660.907   4
  16   5 -10 483.511 757.906   1
  -5 -16 -10-224.850 720.195   3
 -16  21 -10 389.207 475.804   3
 -21  16 -10 267.079 557.465   3
   5 -21  -7 514.682 485.598   1
 -16  21  -7 386.862 465.375   4
 -16  21  -7 1310.76 731.446   2
  16   5  -7 244.042 612.572   1
   5 -21  -7 585.249 563.655   3
  -5 -16  -7 690.107 560.272   3
  16   5  -7 489.270 308.345   2
 -21  16  -7 1070.27 514.903   3
 -16  21  -7 286.141 376.391   3
  21  -5  -7-84.5964 567.666   1
 -21  16  -4 2687.51 519.661   3
   5 -21  -4 4026.24 650.373   1
 -21  16  -4 2400.94 490.121   1
 -16  21  -4 2942.70 671.948   4
  16   5  -4 3322.20 758.673   1
  16   5  -4 3058.34 558.892   4
   5 -21  -4 2888.27 597.980   3
  -5 -16  -4 4036.80 658.908   3
 -16  21  -4 3314.01 756.164   2
  16   5  -4 2729.98 467.645   2
  21  -5  -4 2505.56 780.108   1
 -16  21  -4 3116.40 394.150   3
  16   5  -1 1626.68 448.310   2
 -21  16  -1 1715.42 436.150   3
 -16  21  -1 1315.47 343.976   3
   5 -21  -1 1035.64 264.576   3
 -16  21  -1 1744.73 590.650   4
 -16  21  -1 2514.16 580.136   2
  16   5  -1 1818.99 498.555   1
  16   5  -1 1434.89 535.858   4
   5 -21  -1 1942.65 335.225   3
  -5 -16  -1 1578.44 322.864   3
  21  -5  -1 1279.32 512.173   1
  16   5   2 11898.8 1072.98   2
 -21  16   2 10341.0 959.819   3
 -16  21   2 10917.5 911.790   2
 -21  16   2 11496.9 1066.71   4
 -16  21   2 10628.3 1053.94   4
  16   5   2 9649.44 836.632   1
  16   5   2 9282.02 1037.66   4
 -21  16   2 9127.56 751.284   2
  21  -5   2 9929.37 686.294   1
 -21  16   5 671.045 469.902   4
 -16  21   5 198.460 373.145   4
  16   5   5 927.975 235.595   1
  16   5   5 696.482 540.526   4
 -16  21   5 553.742 292.326   2
  16   5   5 280.193 198.067   1
 -21  16   8 2028.23 482.788   4
 -16  21   8 2470.32 583.219   4
 -17  21  -8 4862.01 935.678   4
 -21  17  -8 3086.63 762.438   4
 -17  21  -8 3972.22 954.952   2
   4 -21  -8 5707.31 801.814   1
  17   4  -8 5034.35 1093.17   1
   4 -21  -8 3933.77 967.005   3
  -4 -17  -8 5363.69 964.479   3
 -21  17  -8 7103.42 897.074   3
 -17  21  -8 7818.56 792.967   3
  21  -4  -8 4243.74 972.142   1
   4 -21  -5 11679.0 1014.36   1
 -17  21  -5 8625.01 1018.65   4
 -17  21  -5 12353.2 1312.48   2
  17   4  -5 14103.9 1391.94   1
  21  -4  -5 12410.0 1261.04   1
   4 -21  -5 10935.0 1058.86   3
  -4 -17  -5 10762.0 1015.67   3
  17   4  -5 11574.2 823.327   2
 -21  17  -5 10036.1 858.552   3
 -17  21  -5 11748.8 757.056   3
 -21  17  -5 10914.6 836.136   1
 -21  17  -2 4400.87 566.340   3
 -17  21  -2 5737.95 568.120   3
   4 -21  -2 5369.45 730.981   1
 -21  17  -2 5926.74 880.098   2
 -17  21  -2 4552.53 789.091   4
 -17  21  -2 5564.03 832.935   2
  17   4  -2 4495.77 760.556   1
  21  -4  -2 4187.87 742.216   1
  17   4  -2 5440.42 725.223   4
   4 -21  -2 5705.23 586.583   3
  -4 -17  -2 5083.90 523.645   3
  17   4  -2 6055.80 685.490   2
  17   4   1 24112.3 1449.17   2
  -4 -17   1 26694.2 686.654   3
 -21  17   1 25882.5 1347.13   3
 -21  17   1 23608.7 1504.56   4
 -17  21   1 26976.9 1652.14   4
  17   4   1 27635.6 1424.47   1
 -17  21   1 26040.8 1371.57   2
 -21  17   1 25985.8 1367.71   2
  17   4   1 24143.3 1562.31   4
  21  -4   1 24051.6 1184.27   1
 -21  17   4 4735.32 723.046   4
 -17  21   4 3611.09 690.581   4
  17   4   4 5840.57 524.416   1
 -21  17   4 5009.49 412.360   2
  17   4   4 4166.67 389.272   1
 -17  21   4 6396.70 623.916   2
  17   4   4 6845.31 970.626   4
 -21  17   7 6108.17 758.701   4
 -17  21   7 7802.89 887.199   4
 -17  21   7 7239.83 610.417   2
 -21  18  -9 3595.39 842.853   4
 -18  21  -9 1736.84 809.070   2
 -18  21  -9 3108.88 773.813   4
   3 -21  -9 1728.44 593.874   1
 -21  18  -9 1186.16 887.915   2
   3 -21  -9 3231.12 957.071   3
  -3 -18  -9 778.532 687.555   3
  18   3  -9 2224.41 849.172   1
 -21  18  -9 2653.53 642.213   3
 -18  21  -9 2354.42 612.224   3
  21  -3  -9 1513.02 808.866   1
  -3 -18  -9 2328.57 554.669   1
   3 -21  -6 3991.68 668.772   1
 -21  18  -6 2250.59 682.976   4
 -18  21  -6 2082.81 748.953   2
  18   3  -6 3851.80 903.131   1
 -18  21  -6 1777.60 618.888   4
   3 -21  -6 2793.63 752.779   3
  -3 -18  -6 2900.62 711.100   3
  18   3  -6 3663.01 493.847   2
  21  -3  -6 3237.23 873.848   1
 -18  21  -6 2835.02 492.809   3
 -21  18  -6 1607.98 466.309   3
 -18  21  -3 3058.17 432.215   3
   3 -21  -3 3887.60 642.948   1
 -18  21  -3 4305.61 810.655   2
  18   3  -3 2121.37 452.038   2
 -21  18  -3 3563.53 720.458   4
 -21  18  -3 2804.51 682.848   2
 -18  21  -3 1890.78 554.145   4
  18   3  -3 3260.00 767.328   1
   3 -21  -3 3097.98 541.792   3
  -3 -18  -3 2889.10 530.517   3
  21  -3  -3 3735.35 731.626   1
 -21  18  -3 3357.28 520.744   3
  18   3   0 4985.49 706.701   2
   3 -21   0 2535.90 173.566   3
 -21  18   0 4516.26 640.404   3
 -18  21   0 3730.25 529.187   3
 -21  18   0 3990.02 649.886   2
 -21  18   0 3316.35 707.947   4
 -18  21   0 3948.41 708.670   4
  18   3   0 3781.23 682.811   1
 -18  21   0 2783.56 579.397   2
  21  -3   0 5045.83 695.466   1
  18   3   0 3980.79 734.430   4
  -3 -18   0 3693.66 315.678   3
  18   3   3 4187.27 814.912   2
 -21  18   3 4254.54 743.166   4
 -18  21   3 4307.38 742.570   4
  18   3   3 4162.80 533.180   1
 -21  18   3 5551.05 551.776   2
 -18  21   3 6261.82 635.561   2
  21  -3   3 3809.53 416.640   1
 -21  18   6 10892.2 1025.70   4
 -18  21   6 11291.0 1067.71   4
 -18  21   6 14390.2 835.621   2
 -21  19  -7 485.770 498.146   4
 -19  21  -7 795.193 683.591   2
 -19  21  -7 545.838 526.998   4
 -21  19  -7 225.954 603.088   2
  -2 -19  -7 522.601 443.527   1
  19   2  -7-43.5071 648.818   1
   2 -21  -7 1166.08 607.159   3
  -2 -19  -7-199.358 556.859   3
  21  -2  -7-236.121 640.058   1
   2 -21  -7 756.680 448.382   1
 -21  19  -7 1811.27 501.534   3
 -19  21  -7 965.019 437.686   3
 -21  19  -4 1779.62 429.118   3
 -19  21  -4 2272.05 419.873   3
  19   2  -4 1672.01 393.798   2
 -21  19  -4 1301.48 641.148   4
 -19  21  -4 2886.24 728.111   4
 -19  21  -4 1901.90 709.988   2
   2 -21  -4 2516.95 542.746   1
  19   2  -4 2598.27 784.066   1
   2 -21  -4 1784.38 536.830   3
  21  -2  -4 1409.94 595.534   1
  -2 -19  -4 1096.71 473.479   3
 -21  19  -4 1028.08 565.265   2
 -21  19  -1 2919.44 516.657   3
 -19  21  -1 3408.23 511.146   3
  19   2  -1 1492.68 443.858   2
 -21  19  -1 1524.82 618.214   4
 -19  21  -1 2435.37 577.941   2
  19   2  -1 2436.16 584.655   1
   2 -21  -1 2241.24 308.368   3
  21  -2  -1 2930.85 671.254   1
  -2 -19  -1 2500.99 352.593   3
 -21  19  -1 2365.46 618.396   2
 -19  21  -1 1479.18 567.550   4
  19   2   2 486.044 455.969   2
 -21  19   2-47.5495 423.033   4
 -19  21   2 166.389 450.498   4
 -21  19   2 315.014 327.218   2
 -19  21   2 781.212 370.243   2
  19   2   2 343.001 349.685   1
  21  -2   2-13.9400 332.284   1
 -21  19   5 1929.98 597.140   4
 -19  21   5 1766.91 584.380   4
 -21  19   5 1090.13 249.270   2
 -19  21   5 983.035 308.560   2
 -21  19   8 2510.80 577.061   4
 -19  21   8 2248.06 542.226   4
 -20  21  -8 4531.79 948.275   4
 -21  20  -8 3878.74 839.713   4
  -1 -20  -8 3813.45 642.971   1
 -21  20  -8 3702.15 1007.69   2
 -20  21  -8 2935.94 916.973   2
   1 -21  -8 4870.87 753.516   1
   1 -21  -8 4936.96 968.393   3
  -1 -20  -8 4003.23 957.720   3
  20   1  -8 2797.23 982.109   1
  21  -1  -8 4782.00 1063.84   1
 -20  21  -8 3249.33 642.427   3
 -21  20  -8 3139.58 652.148   3
 -21  20  -5 12103.3 1229.32   4
 -21  20  -5 10467.4 1269.69   2
 -20  21  -5 9814.01 1134.86   4
 -20  21  -5 11935.6 1311.62   2
  20   1  -5 10670.8 1314.87   1
  21  -1  -5 12180.3 1309.90   1
   1 -21  -5 11145.8 1047.86   3
  -1 -20  -5 12246.1 1059.80   3
   1 -21  -5 14326.5 1103.11   1
 -21  20  -5 11923.5 893.123   3
 -20  21  -5 12211.2 858.320   3
  20   1  -5 11578.2 797.171   2
 -21  20  -2 1924.42 623.600   4
 -20  21  -2 2472.21 469.155   3
 -21  20  -2 1652.64 416.778   3
  20   1  -2 1320.45 425.175   2
 -20  21  -2 2814.89 689.125   2
 -21  20  -2 2902.36 728.663   2
  20   1  -2 1952.26 691.415   1
 -20  21  -2 942.744 561.198   4
  21  -1  -2 2856.18 707.080   1
  -1 -20  -2 2315.30 443.536   3
   1 -21  -2 2241.44 410.432   3
 -21  20   1 22460.0 1308.37   3
 -21  20   1 22837.6 1348.95   2
  20   1   1 22328.7 1449.24   2
 -21  20   1 20264.4 1467.33   4
 -20  21   1 20748.0 1448.89   4
  21  -1   1 20057.3 1195.51   1
 -20  21   1 22931.2 1346.10   2
  20   1   1 19300.8 1185.21   1
  20   1   4 2153.96 273.032   1
 -20  21   4 3666.67 714.857   4
 -21  20   4 2788.59 673.089   4
  21  -1   4 1337.60 197.470   1
 -21  20   4 3543.19 440.328   2
 -20  21   4 3199.46 457.958   2
  20   1   4 2470.09 317.638   1
  21  -1   4 1482.70 231.014   1
 -21  20   7 7771.74 933.192   4
 -20  21   7 7168.93 894.911   4
 -21  21  -9 1202.87 787.332   2
   0 -21  -9-84.7606 451.457   1
   0 -21  -9 21.5558 693.007   3
  21   0  -9 96.1407 744.542   1
 -21  21  -9-608.286 593.558   4
 -21  21  -9-144.492 462.742   3
   0 -21  -6 6932.11 824.328   1
  21   0  -6 4786.62 478.674   2
 -21  21  -6 5020.21 916.069   4
 -21  21  -6 3859.95 941.569   2
   0 -21  -6 4330.37 801.785   3
  21   0  -6 5249.11 1008.94   1
 -21  21  -6 5795.25 704.583   3
 -21  21  -3 63.2737 317.208   3
  21   0  -3 668.551 377.284   2
 -21  21  -3 508.370 526.963   2
 -21  21  -3 472.578 494.381   4
  21   0  -3-226.153 505.771   1
   0 -21  -3-379.382 385.616   3
 -21  21   0 14901.1 1017.40   3
 -21  21   0 12640.6 1215.38   4
 -21  21   0 14645.6 1209.72   2
  21   0   0 13770.9 1106.19   1
   0 -21   0 12007.0 403.200   3
 -21  21   3-26.7359 301.195   2
  21   0   3-222.044 288.466   1
 -21  21   6 5355.35 827.078   4
  22 -22  -7 1483.25 729.501   1
   0  22  -7-286.780 498.346   4
   0  22  -7 351.517 494.026   2
 -22   0  -7 1168.30 735.939   3
   0  22  -4 13098.0 1290.76   4
   0  22  -4 14406.4 1304.80   2
  22 -22  -4 10802.5 1168.93   1
 -22   0  -4 11338.4 1030.54   3
 -22   0  -1 482.815 428.517   3
   0  22  -1 206.360 486.815   4
  22 -22  -1 376.443 487.268   1
   0  22  -1 566.804 406.292   2
 -22   0   2 6899.81 844.788   3
   0  22   2 7056.65 1041.09   4
   0  22   2 5232.09 798.567   2
  22 -22   2 7705.26 802.379   1
   0  22   5 616.631 556.523   4
   0  22   5 315.127 466.582   2
   0  22   8 9452.16 1242.96   2
   0  22   8 9670.95 1252.27   4
  21 -22  -8 1565.26 792.448   1
  -1  22  -8-137.191 486.661   4
   1  21  -8-311.656 456.941   4
  -1  22  -8 753.047 596.303   2
   1  21  -8 667.516 586.216   2
  22 -21  -8 642.786 624.226   1
 -22   1  -8 481.960 620.721   3
  -1  22  -5 8036.06 1057.57   4
   1  21  -5 7286.31 971.211   4
  22 -21  -5 7931.47 1006.07   1
  -1  22  -5 7232.97 961.284   2
   1  21  -5 5795.94 880.818   2
  21 -22  -5 5328.10 886.765   1
 -21  -1  -5 6617.32 890.426   3
 -22   1  -5 5279.50 808.056   3
 -21  -1  -2 2373.09 585.129   3
 -22   1  -2 2620.77 546.305   3
  -1  22  -2 3361.09 775.434   4
   1  21  -2 3159.00 751.325   4
  21 -22  -2 2867.91 605.984   1
  -1  22  -2 3947.17 756.343   2
  22 -21  -2 3918.54 714.615   1
   1  21  -2 2582.81 623.545   2
 -21  -1   1 7407.42 796.064   3
 -22   1   1 7105.91 802.724   3
  -1  22   1 7305.49 972.849   4
  21 -22   1 7840.56 799.073   1
  -1  22   1 7369.26 865.889   2
   1  21   1 8192.26 952.356   2
   1  21   1 7436.09 997.920   4
  22 -21   1 7242.41 791.584   1
 -22   1   4 599.510 463.297   3
 -21  -1   4-302.439 517.918   3
   1  21   4 382.282 519.379   4
  -1  22   4-86.6705 450.895   4
  -1  22   4 465.503 460.067   2
   1  21   4-101.554 417.284   2
  -1  22   7 3737.13 794.788   2
   1  21   7 3453.33 838.930   2
  -1  22   7 3638.06 869.512   4
   1  21   7 2194.62 757.188   4
  20 -22  -9 1706.62 854.741   1
  -2  22  -9 1637.11 782.057   1
   2  20  -9 2260.93 905.767   1
  -2  22  -9 2548.53 735.707   2
   2  20  -9 2427.82 712.602   2
  22 -20  -9 2860.31 859.656   1
 -20  -2  -9 2350.97 883.032   3
 -22   2  -9 2410.87 845.176   3
  20 -22  -6 4110.22 827.276   1
  -2  22  -6 2311.99 691.598   4
   2  20  -6 2320.76 624.990   4
  -2  22  -6 2333.43 633.337   2
   2  20  -6 3013.59 718.565   2
  22 -20  -6 795.140 599.039   1
 -20  -2  -6 1333.17 590.895   3
 -22   2  -6 1369.76 581.564   3
 -22   2  -3 2208.83 561.072   3
  22 -20  -3 3560.91 745.442   1
  -2  22  -3 3391.79 713.014   4
   2  20  -3 3424.80 759.916   4
  -2  22  -3 2351.90 624.596   2
   2  20  -3 2854.63 644.780   2
  20 -22  -3 4088.49 763.139   1
 -20  -2  -3 2931.85 570.587   3
 -20  -2   0 1719.89 478.035   3
 -22   2   0 1416.17 458.592   3
  20 -22   0 2434.06 554.787   1
  -2  22   0 928.401 516.658   4
   2  20   0 900.801 544.930   4
  22 -20   0 1478.72 448.565   1
  -2  22   0 2438.59 547.855   2
   2  20   0 1663.02 536.232   2
 -20  -2   3 2411.83 589.224   3
 -22   2   3 1481.98 567.323   3
  -2  22   3 2037.71 658.356   4
   2  20   3 3298.48 782.666   4
 -22   2   3 1506.65 421.969   2
  20 -22   3 2453.46 546.853   1
   2  20   3 4263.64 713.173   2
  22 -20   3 2219.56 470.420   1
  -2  22   3 2450.85 580.835   2
  -2  22   6 974.107 541.777   2
   2  20   6-322.838 599.762   2
  -2  22   6 829.421 623.732   4
   2  20   6 636.358 526.956   4
  -2  22   9 1702.68 735.674   2
   2  20   9 2140.62 802.034   2
  -2  22   9 1904.87 750.692   4
   2  20   9 2011.34 747.734   4
  19 -22  -7 1904.53 710.530   1
  -3  22  -7 229.899 509.564   4
   3  19  -7 254.101 470.823   4
  -3  22  -7 305.997 489.140   2
   3  19  -7 28.2608 462.285   2
  22 -19  -7 81.9584 551.654   1
 -19  -3  -7-351.283 566.188   3
 -22   3  -7 951.553 568.171   3
  22 -19  -4 7812.34 961.857   1
  -3  22  -4 6940.05 951.495   4
   3  19  -4 7498.48 947.000   4
  -3  22  -4 8286.53 1001.13   2
   3  19  -4 7569.48 905.393   2
  19 -22  -4 5004.51 809.841   1
 -19  -3  -4 7159.84 820.502   3
 -22   3  -4 6788.84 804.448   3
 -19  -3  -1 1492.81 432.664   3
 -22   3  -1 1728.68 497.254   3
  22 -19  -1 1620.27 518.399   1
  -3  22  -1 1794.01 567.982   4
   3  19  -1 766.393 448.340   4
  -3  22  -1 1635.76 554.158   2
   3  19  -1 1883.83 543.749   2
  19 -22  -1 1350.29 532.897   1
 -19  -3   2 16409.8 1113.32   3
 -22   3   2 18405.8 1253.66   3
  19 -22   2 18013.6 1141.37   1
  22 -19   2 18538.3 1091.58   1
  -3  22   2 16529.1 1387.30   4
   3  19   2 18500.8 1463.07   4
  -3  22   2 18078.0 1235.46   2
   3  19   2 16091.4 1256.70   2
   3  19   5-40.3729 472.557   2
  -3  22   5 588.021 606.373   4
   3  19   5-316.926 494.616   4
  -3  22   5 39.0819 430.683   2
   3  19   8 4897.31 961.032   2
  -3  22   8 6202.06 1038.06   4
   3  19   8 5846.53 1013.16   4
  -3  22   8 5922.76 973.420   2
  18 -22  -8 930.922 639.816   1
   4  18  -8 1114.69 725.343   1
  -4  22  -8 999.483 587.971   4
  -4  22  -8 73.8678 499.091   2
   4  18  -8 725.433 490.514   4
   4  18  -8 1462.59 617.435   2
  22 -18  -8 1544.37 703.999   1
 -18  -4  -8 918.512 762.707   3
 -22   4  -8 645.665 583.415   3
  18 -22  -5 1712.71 589.310   1
  -4  22  -5 2000.09 613.191   4
   4  18  -5 1873.97 645.502   4
  -4  22  -5 2016.63 574.294   2
   4  18  -5 1609.92 225.462   3
   4  18  -5 1867.74 611.049   2
  22 -18  -5 1838.36 727.812   1
 -18  -4  -5 1569.95 554.863   3
 -22   4  -5 2537.84 638.821   3
  -4  22  -2 4356.60 778.748   4
   4  18  -2 4319.98 797.068   4
  -4  22  -2 3820.85 708.543   2
   4  18  -2 4122.15 699.335   2
 -18  -4  -2 4835.70 621.445   3
 -22   4  -2 3575.92 611.857   3
  18 -22  -2 4226.45 659.754   1
  22 -18  -2 3537.03 667.331   1
  18 -22   1 2193.50 522.125   1
 -18  -4   1 3064.62 535.959   3
 -22   4   1 2784.80 589.396   3
  -4  22   1 1683.53 647.945   4
   4  18   1 2433.01 646.825   4
  -4  22   1 3100.80 596.126   2
  22 -18   1 1885.18 462.156   1
   4  18   1 1528.57 514.592   2
   4  18   4 593.907 515.474   2
  22 -18   4 366.635 321.249   1
 -22   4   4-171.992 454.762   3
  -4  22   4 2.70606 458.587   4
   4  18   4 828.227 589.770   4
 -22   4   4 74.8629 263.685   2
  -4  22   4 463.139 435.432   2
  -4  22   7 1383.21 619.149   2
   4  18   7 1486.98 677.686   2
  -4  22   7 2165.78 695.256   4
   4  18   7 60.0304 528.674   4
  17 -22  -9 1185.55 662.008   1
  -5  22  -9 1906.69 667.039   4
  -5  22  -9 1089.46 570.109   2
  22 -17  -9 514.872 608.985   1
   5  17  -9 1266.92 636.141   2
   5  17  -9 1123.69 877.781   1
 -17  -5  -9 1344.96 743.112   3
 -22   5  -9 1619.17 775.515   3
  17 -22  -6 1038.15 667.737   1
  -5  22  -6 1204.36 566.229   4
   5  17  -6 297.568 415.068   4
  22 -17  -6-243.523 578.195   1
   5  17  -6-360.735 421.998   2
  -5  22  -6 632.655 503.093   2
 -17  -5  -6 1134.16 617.827   3
 -22   5  -6 1216.96 579.932   3
  22 -17  -3 6629.34 879.256   1
  -5  22  -3 7355.33 929.138   4
   5  17  -3 6333.61 894.010   4
  -5  22  -3 5809.95 806.939   2
   5  17  -3 6277.41 798.202   2
   5  17  -3 5263.92 333.827   3
 -17  -5  -3 7131.79 756.162   3
  17 -22  -3 5077.56 753.315   1
 -22   5  -3 5188.23 703.344   3
 -17  -5   0 773.094 349.868   3
 -22   5   0 1980.52 522.166   3
  22 -17   0 655.946 396.125   1
  -5  22   0 1189.49 513.947   4
   5  17   0 1967.29 619.760   4
  -5  22   0 2070.48 540.375   2
   5  17   0 1089.57 341.344   3
   5  17   0 883.001 387.264   2
  17 -22   0 1986.72 556.498   1
 -17  -5   3 5623.08 726.413   3
 -22   5   3 4868.59 717.240   3
  -5  22   3 5270.47 876.279   4
   5  17   3 4664.46 803.475   4
 -22   5   3 4520.66 508.508   2
  22 -17   3 4828.83 569.401   1
  -5  22   3 5873.47 740.227   2
  17 -22   3 3546.51 553.187   3
   5  17   3 3059.06 649.816   2
  -5  22   6 3210.29 699.247   2
   5  17   6 2533.88 682.570   2
  -5  22   6 2513.69 667.829   4
   5  17   6 1813.85 610.397   4
  -5  22   9 4839.63 922.774   2
  -5  22   9 2475.01 732.497   4
   5  17   9 4531.17 928.644   4
   6  16  -7 3284.68 904.237   1
  16 -22  -7 1140.88 606.303   1
  -6  22  -7 4138.74 822.763   4
   6  16  -7 3172.47 671.305   4
  -6  22  -7 2979.52 766.867   2
  22 -16  -7 3352.53 906.049   1
   6  16  -7 2577.21 632.170   2
 -16  -6  -7 3144.11 809.259   3
 -22   6  -7 3347.60 745.644   3
  22 -16  -4 8173.53 966.026   1
  -6  22  -4 6872.34 886.827   4
  -6  22  -4 8348.08 1026.39   2
   6  16  -4 6630.79 883.181   4
   6  16  -4 6479.11 830.400   2
   6  16  -4 6376.25 424.973   3
  16 -22  -4 6592.42 891.622   1
 -16  -6  -4 5633.79 752.589   3
 -22   6  -4 5392.81 798.012   3
 -16  -6  -1 1694.42 410.923   3
 -22   6  -1 764.878 422.269   3
  -6  22  -1 937.918 500.026   4
  16 -22  -1 1272.16 440.818   1
   6  16  -1 1835.01 593.154   4
  -6  22  -1 1186.70 503.613   2
   6  16  -1 1187.84 313.632   3
   6  16  -1 1015.85 429.338   2
  22 -16  -1 2192.90 511.992   1
  22 -16   2 13254.9 888.439   1
 -16  -6   2 13410.5 950.338   3
 -22   6   2 14607.0 1093.21   3
  -6  22   2 12855.5 1210.63   4
   6  16   2 13718.9 1228.13   4
  -6  22   2 14864.8 1112.76   2
   6  16   2 11021.5 926.072   3
  16 -22   2 13883.8 1006.05   1
 -22   6   2 12051.9 803.129   2
   6  16   2 15145.0 1168.11   2
  16 -22   2 12408.4 799.398   3
   6  16   5-534.362 459.017   2
  -6  22   5-416.214 457.898   4
   6  16   5 523.374 580.861   4
  -6  22   5 88.8852 407.073   2
   6  16   8 14374.2 1485.93   2
  -6  22   8 14037.0 1301.21   4
   6  16   8 14286.3 1406.70   4
  -6  22   8 12731.7 1276.03   2
  15 -22  -8 1060.16 605.059   1
  -7  22  -8 1362.32 589.177   4
   7  15  -8 58.9159 741.053   1
  -7  22  -8-305.445 577.343   2
  22 -15  -8 782.575 650.729   1
   7  15  -8 1028.04 419.030   4
   7  15  -8 1020.58 482.290   2
 -15  -7  -8 891.880 584.008   3
 -22   7  -8 1231.76 691.373   3
  -7  22  -5 3613.87 770.931   2
  -7  22  -5 2618.21 660.380   4
  22 -15  -5 2008.26 649.065   1
   7  15  -5 2452.66 609.090   4
  15 -22  -5 2409.85 684.158   1
   7  15  -5 2417.08 574.327   2
 -15  -7  -5 1719.56 597.608   3
 -22   7  -5 2377.54 615.542   3
  15 -22  -2 11904.7 996.840   1
  22 -15  -2 8725.22 942.407   1
  -7  22  -2 12081.0 1134.33   4
  -7  22  -2 11397.1 1080.12   2
   7  15  -2 9493.19 1003.48   4
   7  15  -2 9004.52 851.353   2
   7  15  -2 8546.43 551.931   3
 -15  -7  -2 11024.9 866.699   3
 -22   7  -2 7598.70 804.435   3
 -22   7   1 129.948 309.980   2
 -15  -7   1 115.813 297.490   3
 -22   7   1 591.088 420.273   3
  22 -15   1 384.722 355.147   1
  -7  22   1-13.0745 417.107   4
   7  15   1 607.799 497.644   4
  -7  22   1-196.798 362.693   2
   7  15   1 433.956 387.851   3
   7  15   1 417.192 354.532   2
  15 -22   1 273.585 260.624   3
  15 -22   1 465.674 327.437   1
   7  15   4 2194.83 589.702   2
  22 -15   4 582.657 279.794   1
  -7  22   4 920.174 502.208   4
   7  15   4 994.953 527.198   4
 -22   7   4 668.418 218.625   2
  15 -22   4 365.070 355.115   3
  -7  22   4 632.343 393.608   2
  -7  22   7 2842.25 646.856   2
   7  15   7 953.311 605.379   2
  -7  22   7 1940.07 661.449   4
   7  15   7 1605.72 626.660   4
   8  14  -9 2534.29 1001.49   1
  -8  22  -9 3557.52 768.745   4
  -8  22  -9 4382.47 941.858   2
   8  14  -9 5101.08 801.888   2
  22 -14  -9 3512.50 914.805   1
  14 -22  -9 4615.96 892.513   1
 -14  -8  -9 3157.38 876.610   3
 -22   8  -9 4910.07 890.572   3
   8  14  -6 2273.64 807.185   1
  22 -14  -6 3894.35 856.447   1
  -8  22  -6 1935.83 637.558   2
  -8  22  -6 2797.99 673.836   4
   8  14  -6 2786.34 564.573   4
  14 -22  -6 1841.12 569.190   1
   8  14  -6 3137.45 650.948   2
 -14  -8  -6 2908.42 728.437   3
  -8  22  -6 1463.77 178.251   3
 -22   8  -6 2151.97 607.354   3
  22 -14  -3 7354.73 897.034   1
  14 -22  -3 9435.43 936.089   1
  -8  22  -3 9210.36 991.577   2
  -8  22  -3 9705.30 1029.37   4
   8  14  -3 10099.2 1001.65   4
   8  14  -3 8347.41 853.500   2
   8  14  -3 7709.98 554.359   3
 -14  -8  -3 7499.68 783.641   3
 -22   8  -3 9076.49 854.915   3
 -22   8   0 3989.79 598.246   3
  -8  22   0 3938.70 685.291   4
   8  14   0 4613.34 749.250   4
  -8  22   0 2872.53 555.557   2
   8  14   0 3673.52 508.662   3
   8  14   0 4077.69 620.024   2
  22 -14   0 4189.93 604.121   1
  14 -22   0 4804.20 666.742   1
  14 -22   0 3743.38 418.369   3
 -14  -8   0 4714.09 527.653   3
 -14  -8   3 16387.4 994.661   3
 -22   8   3 16924.6 1220.51   3
  22 -14   3 17273.7 885.098   1
  -8  22   3 14138.3 1230.62   4
   8  14   3 15042.6 1293.92   4
  -8  22   3 14438.1 1055.88   2
 -22   8   3 13375.6 723.087   2
  14 -22   3 12667.3 721.865   3
   8  14   3 15270.0 1224.34   2
   8  14   6 100.695 518.930   2
  -8  22   6 1025.59 561.338   4
   8  14   6 674.454 563.488   4
  -8  22   6 205.142 392.692   2
  -8  22   9 6061.14 942.398   2
  -8  22   9 6084.45 914.242   4
   8  14   9 5080.09 911.615   4
  22 -13  -7 3028.19 799.405   1
  -9  22  -7 1436.67 516.143   4
  -9  22  -7 2065.57 684.031   2
  13 -22  -7 1841.70 633.915   1
   9  13  -7 2169.34 554.922   2
 -13  -9  -7 971.180 592.445   3
 -22   9  -7 2140.41 668.214   3
  -9  22  -7 1534.76 280.712   3
   9  13  -7 1706.25 450.374   4
   9  13  -7 2213.16 789.949   1
  22 -13  -4 9990.33 1068.64   1
  13 -22  -4 10150.4 981.118   1
  -9  22  -4 10056.1 1033.77   4
  -9  22  -4 9437.13 1047.38   2
   9  13  -4 9144.55 950.492   4
   9  13  -4 10626.5 910.698   2
 -13  -9  -4 10322.9 956.750   3
   9  13  -4 9107.11 621.131   3
 -22   9  -4 11156.5 955.070   3
  13 -22  -1 4635.70 439.564   3
  22 -13  -1 5153.21 688.968   1
  -9  22  -1 4116.75 708.869   4
  -9  22  -1 5735.11 758.020   2
   9  13  -1 7075.49 880.370   4
  13 -22  -1 5658.91 703.295   1
   9  13  -1 6032.45 742.185   2
   9  13  -1 5599.73 545.436   3
 -22   9  -1 3681.88 642.602   1
 -13  -9  -1 5123.79 552.370   3
 -22   9  -1 5165.26 623.320   3
 -13  -9   2 21324.4 1071.55   3
 -22   9   2 17166.2 1172.39   3
   9  13   2 20756.5 1460.18   4
  -9  22   2 19539.8 1384.37   4
  -9  22   2 19620.7 1205.07   2
  22 -13   2 19273.0 981.304   1
  13 -22   2 19151.6 759.734   3
   9  13   2 20241.2 1340.51   2
 -22   9   2 17216.0 920.103   2
   9  13   5 281.849 440.645   2
   9  13   5-283.846 453.814   4
  -9  22   5-578.016 452.235   2
  -9  22   8 7319.65 934.795   4
   9  13   8 9327.04 1140.47   4
  -9  22   8 9399.40 1029.87   2
  22 -12  -8 2935.08 889.484   1
 -10  22  -8 371.430 557.791   2
  10  12  -8 2121.90 863.351   1
 -10  22  -8 1855.46 614.093   4
  10  12  -8 1787.50 443.079   4
  12 -22  -8 1830.39 683.212   1
  10  12  -8 2168.73 533.200   2
 -12 -10  -8 1862.19 742.984   3
 -22  10  -8 2415.32 702.215   3
  12 -22  -5 4133.58 709.839   1
  22 -12  -5 3535.46 774.788   1
  10  12  -5 3028.66 828.711   1
 -10  22  -5 2861.06 644.047   4
 -10  22  -5 3490.15 767.852   2
  10  12  -5 4184.64 669.876   4
  10  12  -5 4595.25 629.136   2
 -12 -10  -5 3364.05 657.417   3
 -22  10  -5 3686.39 698.369   3
 -10  22  -5 3337.58 263.609   3
  22 -12  -2 9632.52 951.044   1
  12 -22  -2 9953.60 689.471   3
 -22  10  -2 10140.7 859.638   1
 -10  22  -2 11231.2 1101.87   4
 -10  22  -2 10845.1 1047.49   2
  10  12  -2 10476.9 1021.97   4
  12 -22  -2 11904.5 991.068   1
  10  12  -2 11277.9 955.562   2
  10  12  -2 11568.6 707.424   3
 -12 -10  -2 10398.1 780.265   3
 -22  10  -2 11598.9 911.623   3
 -10  22   1 6474.97 880.633   4
 -12 -10   1 3857.88 491.241   3
 -22  10   1 3145.97 572.491   3
  22 -12   1 4397.43 568.821   1
  10  12   1 5571.25 809.371   4
 -10  22   1 3912.24 635.088   2
  12 -22   1 4078.28 383.846   3
  12 -22   1 4716.68 640.368   1
 -22  10   1 3813.33 531.589   2
  10  12   1 3467.45 619.548   2
 -22  10   4 3023.68 279.946   2
 -10  22   4 5676.82 859.798   4
  10  12   4 7000.70 927.278   4
  12 -22   4 3974.30 436.211   3
 -10  22   4 5565.52 661.646   2
  22 -12   4 4708.99 414.542   1
  10  12   4 6110.95 880.855   2
 -10  22   7 380.999 424.830   2
  10  12   7-80.0877 528.342   2
 -22  10   7 310.023 343.424   4
 -10  22   7 256.996 442.667   4
  10  12   7 303.607 546.285   4
 -11  22  -9 7668.18 1225.39   2
  11  11  -9 11912.1 1635.68   1
 -11  22  -9 9005.49 1036.94   4
  11  11  -9 9180.68 939.179   2
  11 -22  -9 9839.04 1465.85   3
 -11 -11  -9 8114.32 1250.14   3
 -22  11  -9 7859.10 1038.40   3
  22 -11  -9 8314.41 1281.56   1
  11 -22  -9 9028.46 1121.34   1
  22 -11  -6 499.938 618.908   1
 -11  22  -6 3251.53 701.054   4
  11  11  -6 2254.56 750.748   1
 -11  22  -6 3751.40 825.032   2
  11  11  -6 2181.72 538.635   4
  11  11  -6 2653.08 541.147   2
 -11 -11  -6 2589.49 682.051   3
 -11  22  -6 2262.94 297.906   3
  11 -22  -6 2847.80 649.249   1
 -22  11  -6 2648.80 637.556   3
 -11  22  -3 10980.2 1080.27   4
 -11  22  -3 11495.8 1079.25   2
  11 -22  -3 9465.47 953.228   1
  11  11  -3 11666.7 1071.71   4
 -22  11  -3 9090.40 759.516   1
  11  11  -3 10887.5 905.506   2
 -11 -11  -3 10921.4 872.727   3
  11  11  -3 9196.32 690.183   3
  22 -11  -3 10704.7 1035.02   1
 -22  11  -3 10530.4 877.540   3
  11 -22   0 844.836 240.396   3
 -11 -11   0 646.159 282.461   3
 -22  11   0 684.991 409.397   3
 -11  22   0 695.856 486.731   4
  11 -22   0 984.822 441.798   1
 -11  22   0 377.970 385.898   2
  11  11   0 343.400 417.356   4
  22 -11   0 1020.48 394.027   1
  11  11   0 836.940 387.203   3
  11  11   0 1287.08 462.327   2
 -11 -11   3 11534.8 752.299   3
 -22  11   3 10487.6 997.495   3
 -11  22   3 10952.3 1079.37   4
  11  11   3 10853.1 1123.04   4
 -11  22   3 11523.1 917.761   2
  11 -22   3 8110.97 420.760   3
 -22  11   3 9228.18 577.003   2
  22 -11   3 10860.7 665.530   1
  11  11   3 11279.1 1090.00   2
  11  11   6 2893.87 731.543   2
 -22  11   6 1539.53 464.726   4
  11  11   6 2900.26 740.887   4
 -11  22   6 1731.21 490.127   2
 -11  22   9 10536.6 1085.87   2
 -11  22   9 7099.43 924.262   4
  11  11   9 10291.2 1238.51   4
 -12  22 -10 655.901 535.814   1
 -12  22 -10 1148.40 780.512   2
  12  10 -10 2088.46 981.459   1
 -10 -12 -10 1869.51 892.983   3
 -22  12 -10 1363.95 706.675   3
  22 -10  -7-898.397 731.979   1
 -12  22  -7 606.634 499.450   4
 -12  22  -7 149.373 515.704   2
  12  10  -7 425.803 707.926   1
  12  10  -7 283.067 328.989   4
  12  10  -7 579.341 367.649   2
 -10 -12  -7 728.206 651.688   3
 -22  12  -7 460.123 534.660   3
 -12  22  -7 315.298 275.159   3
  10 -22  -7 1011.16 600.162   1
 -12  22  -4 5045.63 361.946   3
  12  10  -4 5087.22 923.949   1
 -12  22  -4 5210.83 806.004   4
 -22  12  -4 4065.05 515.002   1
  10 -22  -4 5683.88 774.653   1
 -12  22  -4 4012.59 769.948   2
  12  10  -4 6197.62 815.145   4
  12  10  -4 4692.18 613.172   2
 -10 -12  -4 4772.94 702.381   3
  22 -10  -4 5288.51 882.672   1
 -22  12  -4 3562.69 619.204   3
 -22  12  -1 4882.01 638.844   3
  10 -22  -1 3021.57 347.843   3
  10 -22  -1 4371.61 622.717   1
 -12  22  -1 3698.77 698.674   4
 -12  22  -1 5520.25 773.714   2
  12  10  -1 3318.19 662.304   4
  12  10  -1 4003.38 600.353   2
  12  10  -1 3434.33 491.725   3
 -10 -12  -1 3816.87 493.702   3
  22 -10  -1 3498.01 639.775   1
 -10 -12   2 12489.8 731.619   3
 -22  12   2 12314.2 1028.72   3
  22 -10   2 11495.3 744.340   1
 -12  22   2 12160.7 1124.41   4
 -12  22   2 10840.7 896.272   2
  12  10   2 9607.87 1024.42   4
  12  10   2 12212.1 1080.27   2
 -22  12   2 10180.1 737.410   2
  12  10   5 3133.93 711.625   2
 -22  12   5 5220.00 712.770   4
 -12  22   5 5226.60 785.450   4
  12  10   5 3935.41 533.139   1
  12  10   5 2720.65 685.651   4
 -12  22   5 4618.05 610.027   2
 -12  22   8 1009.18 497.006   2
 -12  22   8 2326.67 636.583   4
  12  10   8 1586.73 669.089   4
   9 -22  -8 8361.91 1029.04   1
 -13  22  -8 8119.76 1220.96   2
 -13  22  -8 9943.21 1092.15   4
  13   9  -8 8071.24 1247.05   1
   9 -22  -8 10174.8 1336.27   3
  13   9  -8 9275.48 834.380   2
  -9 -13  -8 6106.76 1004.10   3
  22  -9  -8 7563.11 1240.07   1
 -22  13  -8 9167.68 1043.41   3
 -13  22  -8 9245.13 722.987   3
 -13  22  -5-270.419 226.587   3
  22  -9  -5 104.765 557.663   1
 -13  22  -5 268.347 454.415   4
 -13  22  -5 558.620 611.643   2
  13   9  -5-661.651 672.060   1
   9 -22  -5-894.600 520.634   1
  13   9  -5 226.150 369.074   4
 -22  13  -5 45.8687 240.370   1
  13   9  -5 46.6684 307.841   2
  -9 -13  -5 309.355 468.912   3
 -22  13  -5-200.305 391.023   3
   9 -22  -2 17720.6 1164.00   1
   9 -22  -2 15640.0 811.676   3
  13   9  -2 19763.8 1399.25   1
 -13  22  -2 18554.0 1372.34   4
 -13  22  -2 19991.5 1368.53   2
 -22  13  -2 16171.6 1087.09   1
  13   9  -2 18256.8 1306.56   4
  13   9  -2 20655.8 1214.28   2
  22  -9  -2 17972.3 1254.39   1
  -9 -13  -2 16370.6 916.559   3
 -22  13  -2 18575.9 1090.16   3
  -9 -13   1 5229.97 475.858   3
  22  -9   1 5324.56 621.282   1
 -22  13   1 4931.27 703.359   3
 -13  22   1 4781.57 798.126   4
 -13  22   1 6029.46 708.194   2
  13   9   1 5616.70 830.254   4
   9 -22   1 4652.64 242.317   3
  13   9   1 5718.86 775.537   2
  13   9   4 7180.26 963.930   2
  13   9   4 7188.25 609.527   1
 -13  22   4 10296.0 1054.87   4
 -22  13   4 5299.95 325.663   2
  22  -9   4 6961.79 407.212   1
  13   9   4 11453.9 1146.26   4
 -13  22   4 9972.89 802.567   2
 -22  13   4 6545.59 348.561   2
 -13  22   7 1901.40 529.269   2
 -22  13   7 1459.45 502.709   4
  13   9   7 2315.73 663.037   4
 -13  22   7 2176.58 596.975   4
  22  -8  -9 4413.27 1064.29   1
   8 -22  -9 4571.56 798.756   1
 -14  22  -9 3112.07 752.355   4
 -14  22  -9 4796.33 1015.65   2
  14   8  -9 4894.74 1146.22   1
   8 -22  -9 4490.23 1081.59   3
  -8 -14  -9 4974.71 1020.66   3
 -14  22  -9 3979.28 589.957   3
 -22  14  -9 4062.51 843.539   3
 -14  22  -6 1274.04 333.650   3
  22  -8  -6 541.185 607.499   1
 -14  22  -6 1295.46 497.452   4
 -14  22  -6 201.417 524.105   2
  14   8  -6-227.857 624.798   1
   8 -22  -6 1594.68 533.816   1
  14   8  -6 578.535 372.444   4
   8 -22  -6 1793.03 667.019   3
  -8 -14  -6 499.071 516.429   3
  14   8  -6 1385.69 433.585   2
 -22  14  -6 803.546 467.604   3
 -14  22  -3 14939.2 704.825   3
  14   8  -3 12770.9 1239.91   1
 -14  22  -3 14132.6 1236.13   2
 -14  22  -3 15048.7 1240.87   4
  14   8  -3 13281.6 1070.12   4
 -22  14  -3 13438.5 956.513   1
  22  -8  -3 11748.1 1134.95   1
  14   8  -3 13047.8 959.403   2
  -8 -14  -3 13658.9 942.297   3
   8 -22  -3 13676.2 1087.75   1
 -22  14  -3 15143.0 1005.13   3
 -22  14   0 4193.71 605.309   3
 -14  22   0 3501.12 681.575   4
 -14  22   0 4551.91 690.970   2
  14   8   0 5096.18 775.413   4
   8 -22   0 3811.47 608.058   1
   8 -22   0 4693.80 375.018   3
  14   8   0 3914.16 644.549   2
  22  -8   0 5195.37 679.992   1
  -8 -14   0 4520.32 470.083   3
   8 -22   0 4109.17 282.939   3
 -22  14   3 7366.43 551.120   2
  14   8   3 7493.01 620.731   1
 -22  14   3 7757.52 609.889   2
 -14  22   3 8591.11 966.294   4
 -14  22   3 8524.25 776.968   2
  22  -8   3 6897.42 515.738   1
  14   8   3 9410.57 1060.28   4
  14   8   3 8844.08 1030.86   2
 -22  14   6 2275.43 538.699   4
 -14  22   6 1644.73 560.031   4
  14   8   6 1709.21 736.077   4
 -14  22   6 1920.26 447.309   2
 -14  22   9 3346.45 668.686   4
  22  -7  -7 513.762 651.802   1
 -15  22  -7 621.219 622.640   2
 -15  22  -7 1291.78 570.872   4
  15   7  -7 3230.27 910.323   1
   7 -22  -7 895.140 446.798   1
   7 -22  -7 1519.43 764.485   3
  -7 -15  -7 1826.22 685.989   3
  15   7  -7 1995.29 462.467   2
 -22  15  -7 1494.12 540.995   3
 -15  22  -7 1569.43 388.298   3
 -22  15  -4 898.522 425.988   3
  22  -7  -4-244.403 514.790   1
 -15  22  -4 1258.95 308.516   3
   7 -22  -4 985.970 528.309   1
 -15  22  -4 542.740 554.185   2
  15   7  -4 400.155 518.780   1
  15   7  -4 771.824 382.737   4
   7 -22  -4 1295.68 544.875   3
  -7 -15  -4 1113.57 500.729   3
 -15  22  -4 1267.23 575.172   4
  15   7  -4 982.934 357.400   2
 -22  15  -4 1210.47 414.512   1
  15   7  -1 324.343 369.935   2
  15   7  -1 624.671 473.917   1
  22  -7  -1 246.611 412.419   1
 -22  15  -1-387.270 336.667   3
   7 -22  -1 88.1406 180.295   3
 -15  22  -1 305.563 496.731   4
 -15  22  -1 28.9471 356.047   2
  15   7  -1 706.206 523.740   4
   7 -22  -1 423.344 292.258   3
   7 -22  -1-14.1447 348.550   1
  -7 -15  -1 43.3722 227.522   3
  22  -7   2 8868.48 684.391   1
  -7 -15   2 10227.0 553.250   3
 -22  15   2 10195.4 960.329   3
 -22  15   2 8059.71 733.420   2
 -15  22   2 9207.60 1001.62   4
 -15  22   2 8293.66 804.632   2
  15   7   2 8881.57 1009.32   4
  15   7   2 10604.1 1032.55   2
 -15  22   5 2920.47 635.525   4
  15   7   5 2382.27 726.630   2
 -22  15   5 2086.52 550.971   4
  15   7   5 2293.74 368.743   1
  15   7   5 2437.89 730.185   4
 -15  22   5 2498.74 488.590   2
 -22  15   8 286.688 366.810   4
 -15  22   8 779.079 504.177   4
 -16  22  -8 13212.4 1530.57   2
 -16  22  -8 11375.8 1212.40   4
  16   6  -8 13688.6 1613.69   1
   6 -22  -8 14583.4 1265.09   1
   6 -22  -8 11579.7 1424.70   3
  22  -6  -8 9584.76 1338.40   1
  -6 -16  -8 15888.5 1476.37   3
 -22  16  -8 15624.7 1239.37   3
 -16  22  -8 13707.7 963.353   3
 -16  22  -5 120.618 257.275   3
 -16  22  -5 169.585 478.948   4
 -16  22  -5 548.323 618.254   2
   6 -22  -5 685.991 464.842   1
  16   6  -5-391.824 599.835   1
  16   6  -5 386.147 393.206   4
   6 -22  -5 503.437 559.282   3
  -6 -16  -5 42.2825 450.077   3
  16   6  -5 171.973 299.507   2
  22  -6  -5-130.806 575.538   1
 -22  16  -5 691.094 406.899   3
 -22  16  -2 13341.9 940.292   3
 -16  22  -2 13574.5 764.021   3
 -16  22  -2 14827.9 1272.16   4
  16   6  -2 13869.6 1259.39   1
 -16  22  -2 13169.2 1187.98   2
  16   6  -2 13706.6 1151.28   4
   6 -22  -2 14463.5 876.432   3
  22  -6  -2 11519.8 1091.48   1
   6 -22  -2 15732.7 1129.52   1
  -6 -16  -2 12992.9 808.233   3
  16   6  -2 12620.6 977.173   2
  -6 -16   1 1786.02 272.613   3
  16   6   1 1791.44 527.082   2
 -22  16   1 1845.27 532.664   3
  22  -6   1 1214.18 440.440   1
 -22  16   1 1460.78 480.428   2
 -16  22   1 1507.35 604.357   4
 -16  22   1 1492.28 444.384   2
  16   6   1 2575.34 656.968   4
  16   6   1 1706.38 520.036   1
 -22  16   4 5464.59 413.030   2
  16   6   4 6712.79 934.523   2
 -22  16   4 6321.28 833.128   4
  16   6   4 7000.24 644.220   1
 -16  22   4 7398.07 935.158   4
  16   6   4 5969.06 511.340   1
 -22  16   4 5887.90 414.404   2
  16   6   4 5406.73 870.944   4
 -16  22   4 7976.14 738.569   2
 -16  22   7 1889.90 423.241   2
 -16  22   7 2413.02 621.069   4
 -22  16   7 2267.94 549.199   4
  22  -5  -9 4744.10 1095.21   1
   5 -22  -9 4129.16 771.609   1
 -22  17  -9 2990.85 790.327   4
 -17  22  -9 3540.58 783.142   4
 -17  22  -9 3830.37 988.715   2
   5 -22  -9 4262.70 1077.20   3
  17   5  -9 2666.65 917.836   1
  -5 -17  -9 5169.61 1026.88   3
 -17  22  -9 4070.13 677.983   3
 -22  17  -9 4515.62 804.273   3
 -17  22  -6 1669.48 614.331   4
 -17  22  -6 1740.38 730.422   2
   5 -22  -6 2729.64 635.436   1
  17   5  -6 2367.82 805.139   1
   5 -22  -6 2630.87 679.008   3
  -5 -17  -6 1070.93 566.679   3
  17   5  -6 3008.46 472.770   2
 -17  22  -6 2655.71 442.460   3
  22  -5  -6 856.790 599.967   1
 -22  17  -6 2005.79 555.115   3
 -17  22  -3 4212.62 482.083   3
 -17  22  -3 4686.70 801.435   4
 -17  22  -3 4999.89 865.151   2
  17   5  -3 3982.18 817.282   1
   5 -22  -3 5438.78 741.024   1
  17   5  -3 4544.20 726.623   4
  22  -5  -3 4761.21 809.463   1
   5 -22  -3 4100.41 587.044   3
  -5 -17  -3 3495.50 569.623   3
  17   5  -3 4254.74 610.603   2
 -22  17  -3 4644.22 598.198   3
  -5 -17   0 1506.25 278.127   3
  22  -5   0 1740.24 497.712   1
  17   5   0 1396.95 473.543   2
 -22  17   0 1439.57 479.943   3
 -22  17   0 710.577 472.920   2
 -17  22   0 1703.02 604.223   4
  17   5   0 1145.31 499.499   1
 -17  22   0 1723.90 579.495   2
  17   5   0 1617.54 552.734   4
   5 -22   0 958.149 115.366   3
  22  -5   3 3094.56 408.843   1
  17   5   3 5295.29 855.594   2
 -22  17   3 4809.08 771.300   4
  17   5   3 4897.55 611.199   1
 -17  22   3 4153.93 795.145   4
 -22  17   3 3810.28 468.441   2
 -17  22   3 5238.06 615.945   2
  17   5   3 3768.53 781.081   4
  17   5   3 3158.86 404.655   1
 -22  17   6 345.286 429.067   4
 -17  22   6 62.4618 430.119   4
 -17  22   6-257.949 329.963   2
  18   4  -7 868.207 313.705   2
 -22  18  -7 934.848 615.282   4
 -18  22  -7 1367.45 653.412   4
 -18  22  -7 1078.85 653.245   2
   4 -22  -7 1863.60 551.191   1
  18   4  -7 1153.57 800.995   1
   4 -22  -7 1156.78 694.917   3
  -4 -18  -7 1348.30 619.955   3
  22  -4  -7 1256.57 662.402   1
 -22  18  -7 2076.98 595.634   3
 -18  22  -7 747.412 420.270   3
 -22  18  -4 254.703 360.688   3
  18   4  -4 49.9984 292.538   2
 -18  22  -4 184.772 281.161   3
 -18  22  -4-364.343 430.680   4
 -18  22  -4-674.127 638.409   2
   4 -22  -4 700.846 436.560   1
  18   4  -4 229.376 564.041   1
   4 -22  -4 415.944 461.136   3
  -4 -18  -4 494.045 404.770   3
  22  -4  -4-5.74853 510.659   1
  18   4  -1 2203.52 541.280   2
 -18  22  -1 3119.82 492.702   3
 -22  18  -1 2348.85 476.098   3
 -22  18  -1 1634.30 557.643   4
 -18  22  -1 2290.88 650.148   4
 -18  22  -1 2061.67 594.740   2
  18   4  -1 3900.19 729.413   1
  18   4  -1 3227.17 704.882   4
   4 -22  -1 2273.07 327.814   3
  -4 -18  -1 2943.52 357.095   3
 -22  18  -1 3520.76 677.184   2
  22  -4  -1 3134.33 623.331   1
  18   4   2 3054.06 645.397   2
 -22  18   2 4032.18 680.083   3
 -22  18   2 5397.88 823.517   4
  18   4   2 4174.77 629.309   1
 -22  18   2 3771.05 573.641   2
 -18  22   2 3626.52 744.001   4
 -18  22   2 3994.85 602.102   2
  18   4   2 3485.48 742.451   4
  22  -4   2 3748.58 511.859   1
 -18  22   5 1890.59 579.139   4
 -22  18   5 1710.33 548.949   4
  18   4   5 1450.47 240.368   1
 -18  22   5 2730.27 450.224   2
 -18  22   8 1263.43 530.107   4
 -22  18   8 611.536 402.684   4
   3 -22  -8 7556.65 944.389   1
 -22  19  -8 6050.32 1200.77   2
 -19  22  -8 6666.51 992.090   4
 -19  22  -8 6349.93 1200.13   2
 -22  19  -8 4855.55 911.672   4
  19   3  -8 8322.16 1322.76   1
   3 -22  -8 7376.63 1170.51   3
  -3 -19  -8 6033.86 990.020   3
 -22  19  -8 6512.36 848.507   3
 -19  22  -8 8001.46 809.728   3
  22  -3  -8 4851.12 1089.42   1
 -22  19  -5-667.249 387.836   3
 -19  22  -5 59.1065 294.836   3
 -22  19  -5-566.228 547.713   4
  19   3  -5 378.584 326.476   2
 -22  19  -5 333.202 551.449   2
   3 -22  -5-75.1387 423.006   1
 -19  22  -5 183.868 456.213   4
 -19  22  -5-561.277 595.175   2
  19   3  -5 612.982 700.328   1
   3 -22  -5 645.996 475.858   3
  -3 -19  -5 640.081 488.192   3
  22  -3  -5 847.044 620.840   1
 -22  19  -2 16813.5 1018.88   3
 -19  22  -2 18002.6 990.029   3
  19   3  -2 15791.1 1355.92   1
 -22  19  -2 15347.9 1355.74   4
 -22  19  -2 14820.9 1282.36   2
 -19  22  -2 15505.5 1352.74   4
 -19  22  -2 18474.5 1435.88   2
  22  -3  -2 15421.6 1303.33   1
   3 -22  -2 16510.6 882.679   3
  -3 -19  -2 16519.5 875.204   3
  19   3  -2 16676.7 1109.89   2
  -3 -19   1 755.113 121.460   3
  19   3   1 1494.87 481.975   2
 -22  19   1 2395.04 593.331   3
 -19  22   1-60.6173 458.802   4
 -22  19   1 1100.57 419.761   2
 -19  22   1 1985.10 519.409   2
 -22  19   1 851.890 478.163   4
  19   3   1 1611.93 513.038   1
  22  -3   1 719.047 393.038   1
 -22  19   4 6254.51 868.480   4
 -19  22   4 7914.88 965.328   4
  19   3   4 6444.86 527.712   1
 -22  19   4 7108.60 541.770   2
 -19  22   4 8005.12 700.605   2
  19   3   4 6291.93 452.816   1
 -22  19   7 460.717 445.270   4
 -19  22   7 650.404 449.700   4
 -22  20  -9 1598.35 759.600   4
 -22  20  -9 1977.18 886.529   2
 -20  22  -9-7.67716 542.435   4
 -20  22  -9-338.261 785.418   2
   2 -22  -9 1013.63 778.985   3
  -2 -20  -9 2724.41 883.526   3
  20   2  -9 1232.10 838.131   1
  22  -2  -9 1026.51 720.337   1
 -22  20  -9 2051.12 642.774   3
 -20  22  -9 884.448 551.826   3
   2 -22  -9 1802.14 593.306   1
 -22  20  -6 1013.17 467.932   3
 -20  22  -6 1084.20 406.333   3
  20   2  -6 656.568 327.768   2
 -22  20  -6 227.627 541.419   4
 -22  20  -6 765.430 608.581   2
 -20  22  -6 451.053 504.215   4
 -20  22  -6 584.631 652.940   2
   2 -22  -6-387.360 450.261   1
  20   2  -6 1478.41 855.813   1
   2 -22  -6 1388.41 610.040   3
  -2 -20  -6 607.019 522.391   3
  22  -2  -6 1624.43 750.585   1
 -22  20  -3 3665.50 575.359   3
 -20  22  -3 3311.01 485.931   3
 -22  20  -3 3508.99 750.662   4
 -20  22  -3 2312.42 676.575   4
 -22  20  -3 2976.26 760.923   2
  20   2  -3 2647.45 762.800   1
  -2 -20  -3 3486.22 554.487   3
   2 -22  -3 2748.30 520.186   3
 -20  22  -3 3699.54 816.169   2
  22  -2  -3 3987.50 778.293   1
  20   2  -3 3449.72 550.568   2
   2 -22   0 1072.35 106.129   3
 -22  20   0 1967.43 527.250   3
  20   2   0 2913.04 595.828   2
 -20  22   0 1759.83 483.434   3
 -22  20   0 2179.16 650.630   4
 -22  20   0 1561.83 530.999   2
 -20  22   0 1129.16 570.125   4
  20   2   0 1322.62 536.415   1
 -20  22   0 2466.54 607.660   2
  22  -2   0 1083.27 452.282   1
  -2 -20   0 1764.69 230.958   3
 -20  22   3 3802.24 723.650   4
 -22  20   3 2853.74 653.025   4
 -22  20   3 3872.59 518.418   2
  20   2   3 3020.39 478.744   1
 -20  22   3 4212.80 581.341   2
  22  -2   3 2820.07 406.105   1
 -22  20   6 1960.20 598.693   4
 -20  22   6 1883.31 631.650   4
 -20  22   6 1196.26 325.349   2
 -22  21  -7 2434.13 761.644   4
 -21  22  -7 2745.28 745.119   4
 -22  21  -7 3507.46 936.940   2
 -21  22  -7 4161.54 992.441   2
   1 -22  -7 3796.17 836.782   3
  -1 -21  -7 2201.18 720.645   3
  21   1  -7 5381.73 1091.63   1
  22  -1  -7 4046.00 981.677   1
 -21  22  -7 3798.56 632.560   3
   1 -22  -7 3376.04 668.426   1
 -22  21  -7 2777.95 605.738   3
 -22  21  -4-0.99051 329.200   3
 -21  22  -4-182.048 339.489   3
  21   1  -4 618.995 397.158   2
 -21  22  -4-69.6411 492.230   4
 -22  21  -4 234.671 526.991   2
 -21  22  -4 205.579 543.300   2
 -22  21  -4 919.484 568.560   4
  21   1  -4-641.153 577.542   1
  22  -1  -4 357.732 589.086   1
   1 -22  -4-97.1037 407.292   3
  -1 -21  -4 250.108 391.454   3
  21   1  -1 7207.56 849.303   2
 -22  21  -1 8378.10 788.056   3
 -21  22  -1 9518.47 810.003   3
 -22  21  -1 7949.31 1025.83   4
 -21  22  -1 6977.68 970.432   4
 -22  21  -1 7454.26 966.514   2
 -21  22  -1 9141.44 1031.74   2
  21   1  -1 8904.36 1015.23   1
  22  -1  -1 7556.00 905.602   1
   1 -22  -1 8217.81 490.040   3
  -1 -21  -1 8247.51 508.972   3
 -22  21   2 2955.07 680.662   4
 -21  22   2 3239.35 709.849   4
 -21  22   2 3331.32 586.729   2
 -22  21   2 2862.33 525.432   2
  21   1   2 2819.87 503.035   1
  22  -1   2 2989.65 503.504   1
 -22  21   5 7531.83 984.708   4
 -21  22   5 6947.47 923.798   4
 -22  21   5 7003.75 520.731   2
 -21  22   5 7046.49 594.626   2
 -22  21   8 1313.16 553.173   4
 -21  22   8 375.997 456.085   4
 -22  22  -8 10271.2 1443.08   2
 -22  22  -8 7097.86 1139.13   4
  22   0  -8 6134.63 1314.52   1
   0 -22  -8 11194.2 1367.91   3
   0 -22  -8 10425.2 1039.28   1
 -22  22  -8 8012.54 900.044   3
 -22  22  -5-332.077 335.031   3
  22   0  -5 29.3805 299.576   2
 -22  22  -5 153.784 574.129   2
 -22  22  -5 109.005 557.073   4
  22   0  -5-706.438 640.027   1
   0 -22  -5 252.645 494.033   3
 -22  22  -2 7155.56 991.130   2
 -22  22  -2 6530.54 701.010   3
  22   0  -2 4413.00 658.981   2
 -22  22  -2 8604.82 1090.54   4
  22   0  -2 5252.55 893.773   1
   0 -22  -2 4722.15 504.246   3
 -22  22   1 494.983 517.301   4
 -22  22   1 745.284 512.062   2
  22   0   1 226.573 403.036   1
 -22  22   4 14946.6 1349.18   4
 -22  22   4 13702.1 840.364   2
 -22  22   7-371.053 480.604   4
  23 -23  -8 5146.30 988.576   1
   0  23  -8 8938.52 1103.62   4
   0  23  -8 8274.42 1200.08   2
 -23   0  -8 8208.38 1146.90   3
  23 -23  -5-227.115 598.641   1
   0  23  -5 281.613 525.412   4
   0  23  -5 113.155 439.210   2
 -23   0  -5 363.560 538.056   3
   0  23  -2 6889.82 1008.79   4
   0  23  -2 6359.56 878.358   2
  23 -23  -2 6982.41 936.788   1
 -23   0  -2 6464.59 797.453   3
 -23   0   1 260.159 404.333   3
   0  23   1 212.856 494.984   4
  23 -23   1 30.4792 378.689   1
   0  23   1 528.740 475.641   2
 -23   0   4 3486.87 705.653   3
   0  23   4 6004.40 1021.26   4
   0  23   4 4976.93 790.997   2
   0  23   7-227.603 536.508   2
   0  23   7 408.622 551.335   4
  23 -22  -6 492.137 560.706   1
  22 -23  -6 1843.20 696.711   1
  -1  23  -6 822.434 521.872   4
   1  22  -6 1364.41 669.006   4
  -1  23  -6 521.578 635.991   2
   1  22  -6 2170.15 663.437   2
 -22  -1  -6 1016.82 554.820   3
 -23   1  -6 1390.44 640.169   3
 -23   1  -3 2551.28 607.057   3
  23 -22  -3 3143.16 723.561   1
  -1  23  -3 5138.82 914.458   4
   1  22  -3 4806.56 869.012   4
  -1  23  -3 4027.52 753.127   2
   1  22  -3 3599.04 719.483   2
  22 -23  -3 3980.08 806.119   1
 -22  -1  -3 3391.98 708.776   3
 -22  -1   0 5694.70 711.277   3
 -23   1   0 5524.12 729.208   3
  23 -22   0 5985.61 782.196   1
  22 -23   0 5683.55 752.734   1
   1  22   0 6383.30 984.598   4
  -1  23   0 4394.12 822.633   4
  -1  23   0 4854.51 788.389   2
   1  22   0 5184.86 789.556   2
 -22  -1   3 2290.33 626.102   3
 -23   1   3 2150.67 629.027   3
  23 -22   3 2762.12 565.877   1
  -1  23   3 3214.14 793.858   4
   1  22   3 1698.83 632.669   4
  22 -23   3 1948.28 500.328   1
  -1  23   3 1420.89 549.956   2
   1  22   3 3128.00 665.903   2
  -1  23   6 313.679 503.697   2
   1  22   6 984.535 569.083   2
  -1  23   6 1836.38 729.804   4
   1  22   6 1620.90 754.963   4
  23 -21  -7 7685.65 1118.37   1
  -2  23  -7 5955.18 1000.40   4
   2  21  -7 6403.34 927.385   4
   2  21  -7 5432.01 891.224   2
  21 -23  -7 6406.92 1026.98   1
 -21  -2  -7 8117.44 1115.91   3
  -2  23  -7 9185.01 1139.61   2
 -23   2  -7 5442.26 883.639   3
  23 -21  -4 2454.42 683.453   1
  21 -23  -4 2871.30 747.755   1
  -2  23  -4 3697.09 761.984   4
   2  21  -4 2329.80 699.340   4
  -2  23  -4 2490.63 689.429   2
   2  21  -4 2765.66 626.274   2
 -21  -2  -4 1723.69 577.503   3
 -23   2  -4 2258.28 632.989   3
  21 -23  -1 12456.8 1088.11   1
  -2  23  -1 10054.0 1151.33   4
   2  21  -1 10775.2 1123.75   4
  -2  23  -1 11611.7 1110.64   2
   2  21  -1 10916.0 1048.57   2
  23 -21  -1 10093.0 1008.09   1
 -21  -2  -1 10906.7 964.657   3
 -23   2  -1 10397.6 927.638   3
  21 -23   2 4768.91 678.115   1
 -21  -2   2 4692.72 732.135   3
 -23   2   2 3168.73 657.710   3
  -2  23   2 3308.62 805.249   4
   2  21   2 3421.96 744.033   4
  23 -21   2 4350.31 652.908   1
  -2  23   2 5075.54 799.784   2
   2  21   2 3665.09 713.937   2
  -2  23   5 8056.73 1125.97   4
   2  21   5 9036.44 1146.73   4
  -2  23   5 8186.33 974.690   2
   2  21   5 9471.24 1098.28   2
  -2  23   8 220.989 560.158   2
   2  21   8-22.2856 571.490   2
  -2  23   8 201.182 567.437   4
   2  21   8-270.628 589.183   4
  20 -23  -8 1246.27 680.549   1
   3  20  -8 2395.90 933.800   1
  -3  23  -8 932.709 635.966   4
   3  20  -8 3342.24 710.374   4
  -3  23  -8 787.169 571.011   2
   3  20  -8 475.032 531.401   2
  23 -20  -8 2634.16 799.408   1
 -20  -3  -8 2218.47 820.894   3
 -23   3  -8 1971.87 772.670   3
  20 -23  -5 1943.52 717.992   1
  -3  23  -5 472.809 521.619   4
   3  20  -5 1369.72 594.694   4
  -3  23  -5 1273.42 626.561   2
   3  20  -5 1490.43 544.299   2
  23 -20  -5 775.930 548.524   1
 -20  -3  -5 811.083 555.816   3
 -23   3  -5 1475.47 644.259   3
  -3  23  -2 11603.3 1211.05   4
   3  20  -2 11190.5 1164.46   4
  -3  23  -2 12164.3 1128.67   2
  23 -20  -2 10850.0 1042.65   1
   3  20  -2 10714.5 1080.46   2
 -20  -3  -2 11769.5 973.293   3
 -23   3  -2 11928.0 992.453   3
  20 -23  -2 10732.5 1053.27   1
 -20  -3   1-62.5527 396.235   3
 -23   3   1 1011.02 446.394   3
  20 -23   1-246.467 405.523   1
  -3  23   1-43.5197 494.428   4
   3  20   1 489.220 582.290   4
  -3  23   1-144.193 391.085   2
   3  20   1 706.026 465.102   2
  23 -20   1 680.474 369.882   1
 -23   3   4 1218.38 520.128   3
 -20  -3   4 77.7661 465.778   3
  -3  23   4-30.4244 542.982   4
   3  20   4 431.021 503.829   4
  23 -20   4 523.386 348.217   1
  -3  23   4 714.524 448.969   2
   3  20   4 414.136 468.955   2
  -3  23   7 993.905 560.294   2
   3  20   7 115.167 617.556   2
  -3  23   7 2115.78 701.351   4
   3  20   7 807.186 611.003   4
  19 -23  -9 431.182 653.587   1
   4  19  -9 320.085 827.789   1
  -4  23  -9 3312.52 861.831   2
   4  19  -9 1537.08 639.862   2
  23 -19  -9 3451.98 958.737   1
 -19  -4  -9 684.381 783.370   3
 -23   4  -9 150.961 612.308   3
  23 -19  -6 5743.25 959.275   1
  19 -23  -6 4824.59 852.774   1
  -4  23  -6 5536.42 952.169   4
  -4  23  -6 6083.90 929.944   2
   4  19  -6 5497.18 843.741   4
   4  19  -6 5180.49 795.862   2
 -19  -4  -6 6273.14 963.821   3
 -23   4  -6 4319.52 840.330   3
 -23   4  -3 23.5811 427.540   3
  -4  23  -3 481.048 468.570   4
   4  19  -3 1517.55 574.010   4
  -4  23  -3 600.771 559.896   2
  19 -23  -3 2054.28 657.818   1
   4  19  -3 1396.70 542.096   2
  23 -19  -3 1749.85 599.669   1
 -19  -4  -3 932.927 472.160   3
 -23   4   0 10953.7 953.843   3
  -4  23   0 10740.4 1171.97   4
  19 -23   0 10256.8 950.043   1
   4  19   0 10425.9 1118.45   4
  -4  23   0 12518.9 1093.86   2
   4  19   0 11107.0 1043.53   2
  23 -19   0 10954.9 957.121   1
 -19  -4   0 10734.3 896.350   3
 -19  -4   3 244.956 427.906   3
 -23   4   3-107.386 438.566   3
  19 -23   3 647.399 393.252   1
  23 -19   3 110.995 333.983   1
  -4  23   3 534.617 468.084   4
   4  19   3-668.854 640.991   4
 -23   4   3-13.7456 291.597   2
  -4  23   3 162.143 374.676   2
   4  19   3 202.083 453.171   2
  -4  23   6 7748.89 1013.82   4
   4  19   6 7908.27 1155.81   4
  -4  23   6 5369.08 828.615   2
   4  19   6 8021.18 1049.63   2
  -4  23   9 221.498 635.135   2
   4  19   9 721.438 723.240   2
  -4  23   9 318.394 543.881   4
   4  19   9 60.4028 622.304   4
  23 -18  -7 6585.12 1012.69   1
  -5  23  -7 6744.24 988.368   4
  -5  23  -7 5303.62 929.017   2
   5  18  -7 6142.63 824.921   4
   5  18  -7 6105.46 900.733   2
  18 -23  -7 6717.94 1014.48   1
 -18  -5  -7 5370.70 946.529   3
 -23   5  -7 5178.25 868.477   3
  -5  23  -4 1276.25 604.562   4
   5  18  -4 1672.91 633.504   4
  18 -23  -4 1734.37 623.893   1
  -5  23  -4 1672.95 556.644   2
   5  18  -4 1801.94 563.415   2
  23 -18  -4 1132.90 556.141   1
 -18  -5  -4 692.796 533.702   3
 -23   5  -4 1259.11 497.367   3
  -5  23  -1 12763.1 1234.09   4
  18 -23  -1 12579.6 1026.99   1
   5  18  -1 10970.5 1133.53   4
  -5  23  -1 13114.3 1153.52   2
  23 -18  -1 12380.3 1062.39   1
   5  18  -1 10116.4 603.042   3
   5  18  -1 12504.1 1075.80   2
 -18  -5  -1 13503.7 940.078   3
 -23   5  -1 12570.4 991.762   3
 -18  -5   2 4420.15 654.714   3
 -23   5   2 4379.95 695.545   3
  23 -18   2 4924.08 624.977   1
  -5  23   2 4640.52 848.647   4
  18 -23   2 4538.10 663.777   1
   5  18   2 6146.49 956.850   4
  -5  23   2 4498.50 690.654   2
   5  18   2 4669.18 773.232   2
  -5  23   5 8849.65 1116.64   4
   5  18   5 8555.22 1102.42   4
  -5  23   5 8415.56 949.830   2
   5  18   5 10340.1 1096.32   2
  -5  23   8 986.734 656.756   2
   5  18   8 658.767 720.618   2
  -5  23   8 304.918 541.777   4
   5  18   8 33.5753 553.111   4
  17 -23  -8 821.347 608.768   1
   6  17  -8 1797.98 862.567   1
  -6  23  -8 1099.49 670.858   4
  -6  23  -8 1041.85 641.522   2
   6  17  -8 832.282 464.010   4
  23 -17  -8 568.670 635.092   1
   6  17  -8 953.237 503.860   2
 -17  -6  -8 1139.85 723.791   3
 -23   6  -8-838.034 623.015   3
  -6  23  -5 350.462 429.866   4
   6  17  -5 1116.50 548.873   4
  17 -23  -5 978.523 563.936   1
  -6  23  -5 184.094 444.099   2
  23 -17  -5 1255.99 600.813   1
   6  17  -5 1354.39 514.045   2
 -17  -6  -5 899.356 541.493   3
 -23   6  -5 942.266 506.161   3
 -23   6  -2 318.196 394.081   3
  17 -23  -2-61.3801 384.219   1
  -6  23  -2 76.0316 504.395   4
   6  17  -2-161.356 426.585   4
  -6  23  -2 228.399 472.568   2
   6  17  -2-172.083 217.715   3
   6  17  -2 607.068 402.869   2
  23 -17  -2 297.862 452.349   1
 -17  -6  -2 851.416 444.990   3
 -17  -6   1-117.229 306.646   3
 -23   6   1-85.3035 381.817   3
  -6  23   1 148.592 459.514   4
  23 -17   1 145.538 331.868   1
   6  17   1-294.014 479.292   4
   6  17   1-8.78039 397.216   3
  -6  23   1-240.322 351.133   2
  17 -23   1-152.310 395.995   1
   6  17   1 602.591 441.564   2
  17 -23   1 318.817 322.747   3
   6  17   4 2938.52 686.526   2
  23 -17   4 2507.71 431.927   1
  -6  23   4 2311.68 716.124   4
   6  17   4 2428.22 713.639   4
 -23   6   4 1592.62 323.245   2
  -6  23   4 2924.87 575.704   2
  -6  23   7 1325.00 649.357   2
   6  17   7 467.075 604.406   2
  -6  23   7 1189.99 538.821   4
   6  17   7 606.055 610.446   4
  16 -23  -9 1014.65 709.853   1
  -7  23  -9 920.604 620.294   4
   7  16  -9 1224.00 904.534   1
  -7  23  -9 1035.07 708.568   2
  23 -16  -9 152.245 726.660   1
   7  16  -9 241.792 443.462   2
 -16  -7  -9 1527.15 768.210   3
 -23   7  -9 1277.45 704.928   3
  23 -16  -6 11457.8 1260.85   1
  -7  23  -6 13924.5 1246.37   4
  -7  23  -6 11685.1 1232.32   2
   7  16  -6 12570.3 1103.71   4
   7  16  -6 13188.4 1137.60   2
  16 -23  -6 13782.4 1292.79   1
 -16  -7  -6 11950.2 1185.77   3
 -23   7  -6 11153.4 1077.35   3
 -23   7  -3-408.328 444.843   3
  -7  23  -3 352.122 515.887   4
   7  16  -3 657.669 493.824   4
  -7  23  -3 148.286 436.450   2
  23 -16  -3-402.553 530.748   1
   7  16  -3 423.337 463.399   2
   7  16  -3 528.855 246.997   3
 -16  -7  -3 937.658 454.919   3
  16 -23  -3 396.589 446.913   1
 -23   7   0 16279.4 1116.13   3
   7  16   0 17181.2 1368.24   4
  23 -16   0 16667.7 1123.92   1
  -7  23   0 17370.4 1244.98   2
  -7  23   0 17138.5 1355.44   4
   7  16   0 13616.7 869.124   3
   7  16   0 16816.2 1207.22   2
  16 -23   0 17132.8 1160.10   1
  16 -23   0 13407.3 754.360   3
 -16  -7   0 15139.6 946.502   3
   7  16   3 301.875 429.257   2
 -16  -7   3 511.183 386.489   3
   7  16   3 317.700 438.150   4
 -23   7   3 715.373 519.389   3
  -7  23   3 41.6161 452.632   4
  23 -16   3 532.277 311.289   1
  -7  23   3 640.816 407.226   2
 -23   7   3 392.911 293.052   2
  16 -23   3 368.950 331.301   3
  -7  23   6 7637.18 1008.36   4
   7  16   6 10525.0 1205.63   4
  -7  23   6 9210.10 989.280   2
   7  16   6 6919.88 1010.23   2
  -7  23   9 685.609 619.522   2
  -7  23   9 1427.76 659.579   4
   7  16   9 570.883 660.530   4
  23 -15  -7 7408.96 1117.01   1
  -8  23  -7 6711.00 925.081   4
  -8  23  -7 7808.35 1112.22   2
   8  15  -7 6027.04 1129.48   1
   8  15  -7 7112.10 832.885   4
   8  15  -7 6902.44 861.123   2
 -15  -8  -7 6700.37 982.456   3
  15 -23  -7 5036.67 848.846   1
 -23   8  -7 6652.95 942.002   3
  15 -23  -4 6218.39 837.550   1
  23 -15  -4 5968.37 900.050   1
  -8  23  -4 6947.93 913.708   4
  -8  23  -4 6670.86 973.447   2
   8  15  -4 8054.99 934.228   4
   8  15  -4 6879.89 798.174   2
   8  15  -4 6023.77 486.269   3
 -15  -8  -4 6875.70 817.082   3
 -23   8  -4 6829.96 811.580   3
  23 -15  -1 16313.8 1144.97   1
  -8  23  -1 17044.7 1358.16   4
  -8  23  -1 17350.2 1281.70   2
   8  15  -1 16499.5 1323.88   4
  15 -23  -1 16785.9 1183.29   1
   8  15  -1 13527.3 782.401   3
   8  15  -1 17994.9 1248.74   2
 -15  -8  -1 14611.0 929.367   3
  15 -23  -1 13724.8 766.341   3
 -23   8  -1 16449.2 1093.00   3
 -15  -8   2 75.2879 324.536   3
 -23   8   2 1081.07 525.962   3
  -8  23   2 1278.40 556.713   4
   8  15   2 310.698 464.376   4
  15 -23   2 251.316 312.227   1
  23 -15   2 573.661 309.791   1
  -8  23   2 241.757 358.131   2
  15 -23   2 609.379 296.649   3
 -23   8   2 722.517 328.921   2
   8  15   2 350.352 472.972   2
  -8  23   5 9342.52 1086.69   4
   8  15   5 8076.42 1063.15   4
  -8  23   5 10421.2 956.684   2
   8  15   5 9657.18 1105.71   2
  -8  23   8 1905.15 691.845   2
   8  15   8 1691.60 737.637   2
  -8  23   8 3441.68 754.815   4
   8  15   8 3182.02 776.432   4
  -9  23  -8 136.212 458.953   4
  23 -14  -8 2299.55 808.951   1
   9  14  -8 442.458 846.868   1
  -9  23  -8 2079.77 724.373   2
  14 -23  -8 1013.69 595.074   1
   9  14  -8 1079.49 430.609   4
   9  14  -8 284.861 438.447   2
 -14  -9  -8 145.761 606.978   3
 -23   9  -8 1301.72 640.914   3
  -9  23  -5 536.702 459.164   4
  23 -14  -5 2961.64 750.996   1
  -9  23  -5 1882.47 628.755   2
   9  14  -5 1332.86 470.231   4
   9  14  -5 1616.53 510.555   2
  14 -23  -5 2560.23 622.142   1
 -14  -9  -5 1064.26 540.407   3
 -23   9  -5 1425.44 494.436   3
  23 -14  -2 4584.78 771.300   1
 -23   9  -2 3464.47 624.966   1
  -9  23  -2 3132.54 686.296   4
  14 -23  -2 4238.84 700.913   1
   9  14  -2 3900.31 737.115   4
  -9  23  -2 3306.55 668.463   2
   9  14  -2 5344.52 731.758   2
   9  14  -2 2952.05 401.167   3
 -14  -9  -2 3254.62 502.491   3
 -23   9  -2 3810.51 616.448   3
 -14  -9   1 4759.43 556.768   3
 -23   9   1 3702.64 624.233   3
  -9  23   1 5034.62 813.716   4
   9  14   1 4290.38 746.953   4
  23 -14   1 4381.18 567.175   1
  14 -23   1 5077.45 664.954   1
  -9  23   1 4273.07 682.196   2
   9  14   1 3730.28 656.510   2
  14 -23   1 4210.23 442.221   3
   9  14   4 2077.21 630.225   2
  -9  23   4 530.012 474.370   4
   9  14   4 934.833 594.930   4
  23 -14   4 458.643 251.515   1
 -23   9   4 689.314 181.261   2
  14 -23   4 898.401 347.351   3
  -9  23   4 473.575 385.650   2
  -9  23   7 3096.80 718.416   2
   9  14   7 2913.06 833.385   2
 -23   9   7 2704.37 581.450   4
  -9  23   7 2257.08 682.864   4
   9  14   7 2573.97 739.592   4
  23 -13  -9 328.210 676.310   1
 -10  23  -9 23.0537 492.009   4
 -10  23  -9-64.3491 579.617   2
  10  13  -9-290.522 836.416   1
  13 -23  -9 1006.69 601.072   1
  10  13  -9 463.765 494.487   2
 -13 -10  -9 727.086 735.298   3
 -23  10  -9 1953.84 721.521   3
  10  13  -6 8152.36 1229.82   1
  23 -13  -6 4925.65 927.554   1
 -10  23  -6 8901.88 1125.61   2
  10  13  -6 6756.91 789.907   4
 -10  23  -6 7352.33 921.717   4
  10  13  -6 9271.61 915.341   2
 -13 -10  -6 8650.42 1037.41   3
 -23  10  -6 7423.87 897.385   3
 -10  23  -6 6216.45 365.835   3
  13 -23  -6 7165.76 945.550   1
 -23  10  -3 884.222 439.695   3
 -10  23  -3 1176.00 562.615   4
  23 -13  -3 1077.04 548.093   1
 -23  10  -3 683.783 397.206   1
  13 -23  -3 256.438 411.882   1
 -10  23  -3 504.265 465.032   2
  10  13  -3 1331.68 568.277   4
  10  13  -3-132.731 345.132   2
  10  13  -3 1178.06 341.207   3
 -13 -10  -3 377.028 347.690   3
 -23  10   0 7046.01 778.188   3
  13 -23   0 7794.20 820.731   1
 -10  23   0 5591.37 817.806   4
  23 -13   0 6413.71 717.575   1
 -10  23   0 8484.45 879.493   2
  10  13   0 7138.77 975.041   4
  10  13   0 4943.96 600.312   3
  10  13   0 6280.59 789.154   2
  13 -23   0 6067.66 456.328   3
 -13 -10   0 7788.74 664.440   3
  10  13   3 2371.10 673.502   2
 -13 -10   3 613.860 357.440   3
 -23  10   3 1359.38 520.290   3
 -10  23   3 1724.40 609.736   4
  10  13   3 1423.12 623.029   4
  13 -23   3 717.247 246.223   3
 -10  23   3 1163.42 425.573   2
 -23  10   3 1083.18 266.163   2
  23 -13   3 674.177 284.308   1
  10  13   6 6726.99 1002.65   2
 -10  23   6 6204.23 920.261   4
  10  13   6 4826.25 808.102   4
 -10  23   6 6393.97 793.126   2
 -10  23   9 477.167 545.659   2
 -10  23   9 111.297 488.703   4
  10  13   9 942.198 715.197   4
  12 -23  -7 8886.28 1069.79   1
 -11  23  -7 5483.55 893.623   4
 -11  23  -7 5279.81 938.285   2
  11  12  -7 7632.70 1189.69   1
  11  12  -7 6918.54 746.014   4
  11  12  -7 7752.35 825.786   2
 -12 -11  -7 6838.02 1011.47   3
 -23  11  -7 5325.59 824.601   3
  23 -12  -7 5637.08 1053.33   1
 -23  11  -4 2672.93 565.979   3
 -11  23  -4 1332.18 156.940   3
  11  12  -4 2448.76 721.981   1
 -11  23  -4 1982.50 604.646   4
  12 -23  -4 2675.66 630.546   1
 -23  11  -4 1790.86 407.889   1
 -11  23  -4 1440.87 578.894   2
  11  12  -4 3568.33 641.014   4
  11  12  -4 2648.44 544.746   2
 -12 -11  -4 2023.82 519.182   3
  23 -12  -4 3635.23 810.485   1
  11  12  -4 1896.02 389.975   3
 -23  11  -1 17299.4 1119.66   3
  12 -23  -1 14600.9 708.814   3
  23 -12  -1 12841.7 1054.68   1
 -11  23  -1 18439.3 1398.34   4
 -11  23  -1 15623.0 1233.20   2
  11  12  -1 15047.2 1253.08   4
  11  12  -1 15272.1 1115.55   2
  11  12  -1 13768.4 868.075   3
 -12 -11  -1 16960.9 907.262   3
  12 -23  -1 16633.6 1173.10   1
 -12 -11   2 8304.63 656.723   3
 -23  11   2 8950.36 934.370   3
 -11  23   2 8611.02 980.725   4
  11  12   2 6569.33 933.437   4
 -11  23   2 9672.44 901.592   2
  23 -12   2 8572.27 707.599   1
  12 -23   2 7177.58 417.517   3
  11  12   2 8493.90 933.140   2
 -23  11   2 6340.15 610.125   2
  11  12   5 5188.53 879.695   2
 -11  23   5 4979.55 837.938   4
  11  12   5 5439.27 849.347   4
 -11  23   5 6322.02 732.108   2
 -11  23   8-327.164 461.286   2
 -11  23   8 274.859 497.183   4
  23 -11  -8-461.220 645.684   1
 -12  23  -8 468.822 608.016   2
 -12  23  -8-512.155 472.643   4
  12  11  -8 383.805 759.228   1
  11 -23  -8 1371.06 816.277   3
  12  11  -8 41.1365 365.935   2
 -11 -12  -8 1616.96 747.026   3
 -23  12  -8 1204.98 574.019   3
  11 -23  -8 1454.07 650.907   1
 -12  23  -5 5572.08 384.709   3
  12  11  -5 7216.70 1105.00   1
  11 -23  -5 5089.39 806.740   1
 -12  23  -5 5760.17 888.055   4
 -12  23  -5 6388.09 958.269   2
  12  11  -5 6416.58 796.500   4
  12  11  -5 6297.31 747.638   2
 -11 -12  -5 7634.53 904.601   3
  23 -11  -5 5524.90 915.625   1
 -23  12  -5 5366.73 740.773   3
  11 -23  -2 8560.82 651.556   3
 -12  23  -2 8513.01 961.245   4
 -12  23  -2 6864.22 873.229   2
 -23  12  -2 8437.68 846.614   1
  12  11  -2 9724.25 1015.58   4
  12  11  -2 9737.30 908.639   2
  11 -23  -2 7860.99 857.805   1
  12  11  -2 6243.07 640.001   3
 -11 -12  -2 8237.77 682.998   3
  23 -11  -2 8644.04 972.367   1
 -23  12  -2 8539.73 831.164   3
 -11 -12   1 15664.3 850.700   3
 -23  12   1 17070.5 1157.36   3
  23 -11   1 13774.5 929.096   1
 -12  23   1 16964.4 1368.63   4
 -12  23   1 17123.7 1189.51   2
  12  11   1 17198.8 1372.82   4
  11 -23   1 16417.5 584.097   3
  12  11   1 17673.5 1270.35   2
  12  11   4 2998.24 740.239   2
 -23  12   4 1715.17 223.296   2
  23 -11   4 2038.31 303.256   1
  12  11   4 2446.79 695.547   4
 -12  23   4 2842.92 529.054   2
 -23  12   4 1049.94 182.760   2
 -12  23   4 2789.28 681.071   4
  12  11   7 6005.71 1029.93   2
 -23  12   7 5827.35 746.441   4
 -12  23   7 6982.55 968.543   4
  12  11   7 6361.29 1044.12   4
 -12  23   7 7433.23 880.264   2
  10 -23  -9 221.602 559.844   1
  23 -10  -9 470.968 719.584   1
 -13  23  -9 397.594 619.331   4
 -13  23  -9-249.987 607.208   2
  13  10  -9 154.219 871.561   1
  10 -23  -9 1004.75 930.385   3
 -10 -13  -9 646.239 752.160   3
 -23  13  -9 336.157 594.009   3
  13  10  -6 7381.89 1170.35   1
  10 -23  -6 5130.41 781.737   1
 -13  23  -6 6403.75 902.574   4
 -13  23  -6 5933.73 988.656   2
  13  10  -6 6555.02 759.055   4
  13  10  -6 6424.56 718.990   2
 -10 -13  -6 5226.64 871.130   3
  23 -10  -6 7300.38 1064.58   1
 -23  13  -6 7027.14 896.488   3
 -13  23  -6 4955.73 446.019   3
 -23  13  -3 1216.82 436.299   3
 -13  23  -3 882.060 238.700   3
  23 -10  -3 923.888 548.036   1
  13  10  -3 1257.52 609.777   1
 -13  23  -3 353.109 442.283   4
 -13  23  -3 476.246 509.495   2
  10 -23  -3 1115.87 496.360   1
  13  10  -3 1032.27 461.487   4
 -23  13  -3 615.693 448.557   1
  13  10  -3 515.619 356.768   2
 -10 -13  -3 636.073 340.150   3
  23 -10   0 6290.31 739.135   1
 -23  13   0 6795.31 764.182   3
 -13  23   0 5611.45 868.660   4
 -13  23   0 6572.38 831.917   2
  13  10   0 7454.56 952.157   4
  13  10   0 6443.12 792.824   2
  10 -23   0 7802.14 809.268   1
  10 -23   0 6924.53 401.012   3
 -10 -13   0 6975.65 574.787   3
 -23  13   3 674.432 280.420   2
  13  10   3 1112.65 516.275   2
 -23  13   3 562.645 420.360   3
  23 -10   3 979.306 289.309   1
 -23  13   3 496.565 286.814   2
 -13  23   3 1330.19 549.739   4
  13  10   3 655.970 493.205   4
 -13  23   3 1484.80 428.286   2
  13  10   6 9035.65 1178.92   2
 -23  13   6 5741.27 744.639   4
 -13  23   6 6703.95 906.186   4
  13  10   6 9393.27 1133.05   4
 -13  23   6 9279.22 867.939   2
 -13  23   9-46.8304 451.528   4
  23  -9  -7 1480.57 722.217   1
   9 -23  -7 4022.24 762.044   1
 -14  23  -7 2192.70 704.818   4
 -14  23  -7 2684.54 762.089   2
  14   9  -7 2034.14 775.108   1
  14   9  -7 2429.40 509.606   4
   9 -23  -7 3880.45 962.178   3
  14   9  -7 3546.02 579.442   2
  -9 -14  -7 2371.39 755.223   3
 -14  23  -7 2794.24 409.108   3
 -23  14  -7 2563.53 635.870   3
 -23  14  -4 1677.82 491.325   3
 -14  23  -4 962.919 245.716   3
  23  -9  -4 1728.31 700.400   1
   9 -23  -4 1165.22 509.507   1
 -14  23  -4 1293.95 587.769   4
  14   9  -4 726.298 623.967   1
 -14  23  -4 1100.56 531.483   2
  14   9  -4 1435.56 474.384   4
 -23  14  -4 118.063 370.247   1
  -9 -14  -4 654.279 437.412   3
  14   9  -4 757.464 359.489   2
 -23  14  -1 5503.91 688.037   3
   9 -23  -1 4012.80 381.051   3
 -14  23  -1 4021.58 727.383   4
 -14  23  -1 4440.06 722.828   2
  14   9  -1 5388.27 805.000   4
   9 -23  -1 3976.94 662.893   1
  14   9  -1 3742.70 636.229   2
  23  -9  -1 4816.07 704.948   1
  -9 -14  -1 4092.47 481.316   3
  -9 -14   2 2941.83 395.074   3
  14   9   2 2842.95 658.406   2
 -23  14   2 1897.06 429.226   2
 -23  14   2 3406.95 643.973   3
  23  -9   2 3642.17 485.023   1
 -23  14   2 3139.29 505.740   2
 -14  23   2 2517.67 652.842   4
 -14  23   2 2947.08 576.898   2
  14   9   2 3371.65 720.817   4
  14   9   5 1994.72 732.082   2
 -23  14   5 1373.06 535.853   4
 -14  23   5 1927.74 623.132   4
  14   9   5 2261.44 695.875   4
 -14  23   5 2128.42 449.228   2
 -14  23   8 430.034 389.583   2
 -14  23   8-464.942 491.846   4
  23  -8  -8 1864.06 927.624   1
 -15  23  -8 2479.65 702.605   4
 -15  23  -8 1221.89 767.094   2
   8 -23  -8 2306.79 636.534   1
  15   8  -8 1534.59 802.021   1
   8 -23  -8 2482.55 916.638   3
  -8 -15  -8 4381.63 917.640   3
  15   8  -8 2699.17 522.702   2
 -23  15  -8 2549.64 682.297   3
 -15  23  -8 2522.32 480.705   3
 -15  23  -5 8195.74 993.517   4
  15   8  -5 9461.54 1241.63   1
  15   8  -5 9544.85 899.938   4
 -15  23  -5 10060.8 1180.91   2
   8 -23  -5 10201.1 1098.79   3
   8 -23  -5 11307.7 1050.58   1
  23  -8  -5 10882.7 1225.03   1
  15   8  -5 10118.0 858.297   2
  -8 -15  -5 10045.4 1029.76   3
 -23  15  -5 9197.87 889.324   3
 -15  23  -5 9978.24 629.302   3
 -23  15  -2 902.299 395.310   3
  23  -8  -2 633.505 432.177   1
   8 -23  -2 327.727 266.809   3
 -15  23  -2 377.896 267.751   3
  15   8  -2 28.2992 491.339   1
   8 -23  -2 535.621 437.535   1
 -15  23  -2 1499.74 573.540   2
  15   8  -2-427.540 430.772   4
   8 -23  -2 406.252 354.731   3
  -8 -15  -2 87.2454 298.398   3
 -15  23  -2 255.018 436.460   4
  15   8  -2 733.010 457.403   2
  -8 -15   1 19703.0 806.299   3
 -23  15   1 18367.6 1201.70   3
 -23  15   1 16467.5 1113.43   2
 -15  23   1 17590.3 1360.50   4
  15   8   1 18543.2 1399.49   4
  15   8   1 19312.3 1333.54   2
  23  -8   1 18729.2 1083.27   1
 -15  23   1 19248.7 1261.46   2
  15   8   4 6825.48 949.101   2
  23  -8   4 3257.13 283.737   1
 -23  15   4 6704.43 884.905   4
  15   8   4 5519.65 539.406   1
 -23  15   4 4650.53 356.115   2
  15   8   4 6608.85 961.270   4
 -15  23   4 6010.15 902.872   4
 -15  23   4 6411.48 684.004   2
 -23  15   4 4791.95 347.556   2
 -23  15   7 5805.12 751.511   4
 -15  23   7 6598.16 888.579   4
  15   8   7 6886.16 1026.18   4
 -15  23   7 6036.48 739.365   2
  23  -7  -9-14.9954 645.020   1
 -23  16  -9 934.273 649.289   4
 -16  23  -9 244.125 539.651   4
 -16  23  -9 1212.73 793.871   2
  16   7  -9 440.570 744.593   1
   7 -23  -9-109.969 492.528   1
   7 -23  -9 363.269 717.762   3
  -7 -16  -9 428.328 743.013   3
 -23  16  -9 294.859 520.771   3
 -16  23  -6 6338.16 948.056   4
 -16  23  -6 7552.81 1151.34   2
  16   7  -6 8747.82 1272.87   1
   7 -23  -6 8827.85 966.854   1
   7 -23  -6 10337.0 1128.85   3
  23  -7  -6 9747.93 1245.62   1
  -7 -16  -6 7886.65 1001.12   3
  16   7  -6 8376.87 758.979   2
 -23  16  -6 7537.80 881.491   3
 -16  23  -6 8950.29 671.198   3
  23  -7  -3 504.960 556.390   1
 -23  16  -3 515.627 390.205   3
   7 -23  -3-227.202 375.648   1
 -16  23  -3 168.209 270.525   3
 -16  23  -3-279.035 443.452   4
  16   7  -3 166.548 513.841   1
 -16  23  -3 512.207 477.968   2
  16   7  -3-331.028 450.748   4
   7 -23  -3 326.518 403.576   3
  -7 -16  -3 604.067 382.844   3
  16   7  -3 849.357 418.484   2
 -23  16   0 16036.5 1107.03   3
 -23  16   0 14804.0 1158.26   2
  16   7   0 16434.7 1242.70   1
 -16  23   0 16661.0 1329.53   4
 -16  23   0 15589.4 1185.34   2
  16   7   0 16600.2 1344.24   4
   7 -23   0 14763.0 498.404   3
  23  -7   0 17959.8 1170.56   1
  16   7   0 15840.7 1183.70   2
   7 -23   0 15228.5 442.716   3
  -7 -16   0 17015.1 762.821   3
  16   7   3 21.0012 416.780   2
 -23  16   3 175.882 419.580   4
  16   7   3 328.285 277.712   1
  16   7   3-86.9723 329.222   1
 -16  23   3 73.8830 446.134   4
 -23  16   3 200.667 245.427   2
  16   7   3 524.869 456.182   4
 -16  23   3 907.499 408.462   2
  23  -7   3-6.23073 230.249   1
 -23  16   6 11498.0 1052.56   4
  16   7   6 10249.7 578.351   1
 -16  23   6 11513.5 1147.73   4
  16   7   6 11628.9 1281.27   4
 -16  23   6 13323.0 960.316   2
 -16  23   9 73.7759 465.038   4
  23  -6  -7-100.347 606.925   1
   6 -23  -7 1698.43 562.553   1
 -17  23  -7-160.250 494.074   4
 -17  23  -7-1876.89 825.207   2
  17   6  -7 1154.22 725.051   1
   6 -23  -7 895.255 637.183   3
  -6 -17  -7-530.182 618.402   3
  17   6  -7 627.291 345.578   2
 -23  17  -7 561.860 453.610   3
 -17  23  -7 533.747 325.043   3
   6 -23  -4 2762.49 628.432   1
 -17  23  -4 2103.42 391.719   3
 -23  17  -4 2808.30 544.273   3
 -17  23  -4 1444.84 553.386   4
 -17  23  -4 3524.82 804.952   2
  17   6  -4 3554.65 862.369   1
  17   6  -4 1862.54 535.699   4
   6 -23  -4 2441.92 609.654   3
  -6 -17  -4 2747.04 589.790   3
  23  -6  -4 2284.47 712.210   1
  17   6  -4 1881.50 443.639   2
  23  -6  -1 27.2703 456.784   1
  17   6  -1 621.319 426.235   2
 -23  17  -1-16.1644 338.431   3
   6 -23  -1-47.4146 178.110   3
 -23  17  -1 375.655 492.846   2
 -17  23  -1-109.002 444.178   4
 -17  23  -1 1098.10 539.984   2
  17   6  -1-766.495 521.660   4
   6 -23  -1 199.947 275.920   3
  17   6  -1 155.678 497.388   1
  -6 -17  -1 367.413 242.706   3
  17   6   2 718.605 492.835   2
 -23  17   2-95.3321 446.267   3
 -23  17   2 250.677 539.457   4
 -17  23   2 367.142 446.657   4
  23  -6   2 382.552 316.622   1
 -23  17   2 112.151 325.211   2
  17   6   2 517.856 433.290   1
 -17  23   2 661.473 396.500   2
  17   6   2-257.623 468.106   4
 -23  17   5 646.790 520.870   4
 -17  23   5 395.670 450.268   4
  17   6   5 820.669 293.901   1
  17   6   5 259.236 482.699   4
 -17  23   5 868.184 374.038   2
 -17  23   8 651.047 481.766   4
 -23  17   8 580.495 416.281   4
  23  -5  -8-712.160 775.743   1
 -18  23  -8-33.4972 550.615   4
   5 -23  -8 704.723 510.208   1
 -23  18  -8-89.5751 573.025   4
 -18  23  -8 614.140 767.188   2
  18   5  -8 536.254 739.269   1
   5 -23  -8 658.402 694.091   3
  -5 -18  -8-730.201 698.962   3
 -23  18  -8 107.970 447.507   3
 -18  23  -8 879.704 406.808   3
 -18  23  -5 9880.59 1245.51   2
   5 -23  -5 8988.74 945.073   1
 -18  23  -5 9591.40 1133.53   4
  18   5  -5 7701.97 1179.46   1
  23  -5  -5 7701.58 1111.46   1
   5 -23  -5 8365.88 959.497   3
  -5 -18  -5 8580.77 945.086   3
  18   5  -5 8305.99 755.092   2
 -23  18  -5 9179.88 845.682   3
 -18  23  -5 7851.85 639.405   3
 -23  18  -2 4793.83 608.094   3
 -18  23  -2 5533.00 583.758   3
 -18  23  -2 4316.73 802.324   4
 -23  18  -2 3878.36 776.837   2
 -18  23  -2 3772.41 754.143   2
  18   5  -2 4740.28 850.485   1
  18   5  -2 5550.03 833.968   4
  23  -5  -2 6135.18 850.489   1
   5 -23  -2 6125.80 599.697   3
  -5 -18  -2 4585.79 505.987   3
  18   5  -2 4285.88 657.381   2
  18   5   1 11500.2 1081.03   2
  -5 -18   1 12824.2 533.404   3
 -23  18   1 13565.5 1066.12   3
 -23  18   1 10921.6 1138.11   4
 -23  18   1 12844.4 1043.37   2
 -18  23   1 10165.0 1086.41   4
  18   5   1 12071.5 1058.56   1
 -18  23   1 11370.8 1004.38   2
  18   5   1 10830.7 1163.43   4
  23  -5   1 13474.5 955.784   1
  18   5   4 562.265 595.884   2
 -23  18   4 1542.29 577.608   4
  23  -5   4 233.056 149.003   1
 -18  23   4 1904.54 570.970   4
 -23  18   4 409.291 192.466   2
  18   5   4-177.297 467.836   4
 -18  23   4 604.812 346.082   2
  18   5   4 516.591 331.789   1
  18   5   4 561.548 259.028   1
 -23  18   7 4603.39 732.380   4
 -18  23   7 6735.88 896.079   4
  23  -4  -9 1458.10 807.598   1
 -23  19  -9-51.4515 632.986   4
 -23  19  -9 607.224 760.912   2
 -19  23  -9-386.848 645.740   4
 -19  23  -9-78.6220 667.788   2
   4 -23  -9 647.565 563.295   1
   4 -23  -9 1640.12 874.396   3
  19   4  -9 96.1835 748.374   1
  -4 -19  -9 112.580 682.674   3
 -23  19  -9 1908.43 638.619   3
 -19  23  -9 129.534 430.693   3
 -23  19  -6 6031.20 1089.47   2
 -23  19  -6 5674.04 928.151   4
 -19  23  -6 6883.97 1092.46   2
   4 -23  -6 7196.31 887.615   1
 -19  23  -6 5195.54 891.927   4
  19   4  -6 5215.05 1072.79   1
   4 -23  -6 6682.90 952.157   3
  -4 -19  -6 5411.65 855.817   3
  19   4  -6 6146.77 692.141   2
  23  -4  -6 5475.96 1059.12   1
 -23  19  -6 7506.12 827.872   3
 -19  23  -6 7114.68 674.320   3
 -23  19  -3 156.055 369.718   3
  19   4  -3 125.825 322.771   2
 -19  23  -3-73.2766 282.895   3
 -23  19  -3 945.976 567.025   4
 -23  19  -3-79.2165 521.704   2
 -19  23  -3 557.237 508.207   4
 -19  23  -3 1344.05 590.227   2
  19   4  -3 167.295 563.848   1
   4 -23  -3 201.134 356.060   3
   4 -23  -3 11.0988 392.543   1
  -4 -19  -3 386.657 367.391   3
  23  -4  -3-359.961 496.298   1
  19   4   0 10012.7 975.853   2
 -23  19   0 11490.3 964.075   3
 -23  19   0 10799.4 1184.40   4
 -23  19   0 9440.19 983.222   2
 -19  23   0 9492.80 1082.12   4
  19   4   0 10961.3 1080.79   1
 -19  23   0 12326.6 1104.33   2
  19   4   0 12704.7 1174.41   4
  23  -4   0 9848.54 919.194   1
  -4 -19   0 11410.8 548.890   3
 -19  23   3 976.504 517.229   4
  19   4   3 1764.05 622.253   2
 -23  19   3 1336.30 552.574   4
  23  -4   3 498.142 266.821   1
 -23  19   3 1237.66 389.705   2
  19   4   3 992.432 381.609   1
 -19  23   3 1502.61 415.693   2
 -23  19   6 5491.61 846.154   4
 -19  23   6 6998.53 950.099   4
 -19  23   6 6743.54 646.817   2
 -20  23  -7 7.84980 360.916   3
   3 -23  -7 474.168 497.724   1
 -23  20  -7-324.895 537.262   4
 -20  23  -7-753.042 696.768   2
 -20  23  -7 1435.24 715.590   4
  20   3  -7 493.282 696.893   1
   3 -23  -7 1774.68 750.542   3
  -3 -20  -7-229.565 643.452   3
 -23  20  -7 182.329 752.529   2
  23  -3  -7 182.820 668.674   1
 -23  20  -7-426.172 445.829   3
 -23  20  -4 656.646 345.236   3
 -20  23  -4 717.002 334.758   3
  20   3  -4 351.407 324.523   2
   3 -23  -4 1382.65 506.904   1
 -23  20  -4 612.285 583.067   4
 -23  20  -4 602.730 559.105   2
 -20  23  -4 1824.33 635.320   4
 -20  23  -4-547.192 597.192   2
  20   3  -4 191.000 559.981   1
   3 -23  -4 312.989 440.821   3
  -3 -20  -4 897.490 494.741   3
  23  -3  -4 2675.40 761.374   1
  20   3  -1 1011.35 485.588   2
 -23  20  -1 584.298 406.840   3
 -20  23  -1 521.674 347.973   3
 -23  20  -1 360.312 458.483   4
 -20  23  -1 127.658 468.397   4
 -23  20  -1 215.439 445.020   2
 -20  23  -1 1013.52 569.721   2
  20   3  -1 86.5668 481.453   1
   3 -23  -1 538.953 231.522   3
  23  -3  -1 92.3309 443.840   1
  -3 -20  -1 339.196 246.600   3
  20   3   2 11504.0 1189.51   2
 -23  20   2 13399.0 1267.60   4
 -20  23   2 9144.43 1071.17   4
 -23  20   2 11711.5 922.131   2
  20   3   2 11283.7 913.655   1
 -20  23   2 14670.4 1125.49   2
  23  -3   2 10615.1 804.371   1
 -23  20   5 529.706 522.602   4
 -20  23   5 1099.17 575.356   4
 -23  20   5 666.352 213.849   2
 -20  23   5 1028.09 340.756   2
 -23  20   8 1028.27 543.750   4
 -20  23   8 1011.96 542.329   4
 -23  21  -8 1471.57 864.670   2
 -21  23  -8 1069.45 681.055   4
 -21  23  -8 1096.41 809.669   2
   2 -23  -8 992.347 578.210   1
   2 -23  -8 1419.96 733.157   3
  -2 -21  -8 98.1664 598.343   3
  21   2  -8 666.102 839.291   1
  23  -2  -8 874.154 769.802   1
 -23  21  -8 1474.95 717.529   4
 -23  21  -8 523.361 508.635   3
 -21  23  -8 622.398 438.045   3
   2 -23  -5 8626.53 913.257   1
 -23  21  -5 7856.96 1121.71   4
 -23  21  -5 7765.64 1182.35   2
 -21  23  -5 8896.17 1120.89   4
  21   2  -5 9324.51 1262.60   1
  23  -2  -5 7023.90 1087.18   1
 -21  23  -5 8123.34 1213.89   2
   2 -23  -5 6326.14 877.659   3
  -2 -21  -5 8551.07 949.094   3
 -23  21  -5 8467.69 814.746   3
 -21  23  -5 8549.72 749.400   3
  21   2  -5 8178.39 746.311   2
  21   2  -2 3615.46 618.184   2
 -23  21  -2 4429.20 619.874   3
 -21  23  -2 4711.95 591.671   3
 -21  23  -2 4168.00 806.539   4
 -23  21  -2 3799.38 798.133   4
 -23  21  -2 3215.45 723.418   2
  23  -2  -2 4837.37 809.888   1
  21   2  -2 2965.96 797.742   1
   2 -23  -2 3284.78 445.550   3
  -2 -21  -2 3931.09 486.282   3
 -21  23  -2 3313.94 767.797   2
  21   2   1 10624.0 1083.41   2
 -23  21   1 10918.7 986.934   3
 -23  21   1 9621.60 1131.60   4
 -21  23   1 8604.31 1068.58   4
 -23  21   1 11037.5 1010.92   2
 -21  23   1 9941.12 964.426   2
  21   2   1 11311.8 998.745   1
  23  -2   1 9114.65 864.974   1
 -23  21   4 2433.37 669.777   4
 -21  23   4 3385.91 726.678   4
  23  -2   4 1561.10 242.755   1
 -21  23   4 3115.29 485.235   2
  21   2   4 1983.84 364.121   1
 -23  21   4 1733.01 378.710   2
 -21  23   7 6854.53 917.567   4
 -23  21   7 7000.31 921.065   4
 -23  22  -6 1205.78 481.781   3
 -22  23  -6 1445.01 464.897   3
   1 -23  -6 2142.75 596.483   1
 -23  22  -6 1578.88 636.323   4
 -22  23  -6 1671.96 667.291   4
 -22  23  -6 621.792 681.359   2
 -23  22  -6 1415.05 738.163   2
  22   1  -6 1441.66 755.141   1
   1 -23  -6 2586.71 710.055   3
  -1 -22  -6 2024.27 686.543   3
  23  -1  -6 2200.22 902.706   1
 -22  23  -3 2838.14 547.979   3
 -23  22  -3 2567.18 500.214   3
  22   1  -3 2371.98 492.292   2
 -23  22  -3 2458.47 673.550   4
 -22  23  -3 1958.06 670.593   4
 -23  22  -3 3413.51 799.944   2
 -22  23  -3 2161.84 710.613   2
  22   1  -3 2400.84 730.298   1
  23  -1  -3 1841.15 680.982   1
   1 -23  -3 2175.00 481.126   3
  -1 -22  -3 1892.25 469.740   3
 -23  22   0 5121.34 700.799   3
 -22  23   0 3858.79 641.310   3
  22   1   0 4543.18 781.781   2
 -23  22   0 5267.23 923.429   4
 -22  23   0 4488.71 869.755   4
 -23  22   0 4939.47 796.993   2
 -22  23   0 3874.47 736.090   2
  22   1   0 5303.93 802.766   1
  23  -1   0 4447.28 755.286   1
  -1 -22   0 3725.50 246.959   3
 -23  22   3 3456.43 847.116   4
 -22  23   3 3871.14 798.234   4
 -23  22   3 3215.99 532.371   2
 -22  23   3 3630.76 582.271   2
  22   1   3 3667.83 547.376   1
  23  -1   3 3344.80 573.072   1
 -23  22   6 538.407 482.048   4
 -22  23   6 1102.55 581.551   4
 -23  23  -7 177.442 395.930   3
 -23  23  -7 918.341 705.934   4
 -23  23  -7 719.920 731.334   2
   0 -23  -7 542.632 599.405   3
  23   0  -7-480.426 674.208   1
 -23  23  -4 5747.60 676.779   3
 -23  23  -4 4241.86 882.963   4
 -23  23  -4 4979.60 987.633   2
   0 -23  -4 3959.37 671.181   3
 -23  23  -1-130.014 388.996   3
 -23  23  -1 813.072 573.630   4
 -23  23  -1-297.293 496.424   2
  23   0  -1-102.564 489.495   1
   0 -23  -1-248.260 210.043   3
 -23  23   2 5326.71 925.679   4
 -23  23   2 6624.03 768.262   2
  23   0   2 5386.71 676.433   1
 -23  23   5 202.371 478.868   4
 -23  23   5 294.902 257.361   2
 -23  23   8 6618.61 932.940   4
   0  24  -6 6564.02 1047.89   4
   0  24  -6 5658.64 1003.78   2
  24 -24  -6 4845.47 1035.29   1
 -24   0  -6 4465.57 872.333   3
 -24   0  -3-190.148 454.122   3
  24 -24  -3-121.967 481.287   1
   0  24  -3-138.818 539.677   4
   0  24  -3-108.470 469.638   2
 -24   0   0 9287.69 916.355   3
  24 -24   0 9355.72 966.261   1
   0  24   0 10359.1 1258.37   4
   0  24   0 11788.7 1155.86   2
 -24   0   3-756.427 485.798   3
   0  24   3 121.053 573.335   4
  24 -24   3 2.60301 354.856   1
   0  24   3-232.701 505.728   2
   0  24   6-108.541 513.231   2
   0  24   6 607.818 648.786   4
  24 -23  -7 4661.55 967.433   1
  23 -24  -7 2671.01 759.677   1
  -1  24  -7 3714.67 893.913   4
  -1  24  -7 4762.47 937.003   2
   1  23  -7 4303.26 876.990   2
 -24   1  -7 5291.41 974.143   3
 -23  -1  -7 4518.98 903.750   3
   1  23  -7 4509.41 853.368   4
  24 -23  -4 921.264 579.500   1
  23 -24  -4 1428.57 657.876   1
  -1  24  -4 2667.97 745.679   4
   1  23  -4 1633.29 671.013   4
  -1  24  -4 2006.73 651.178   2
   1  23  -4 2671.20 704.916   2
 -23  -1  -4 1652.72 595.269   3
 -24   1  -4 1110.29 490.406   3
  23 -24  -1 10594.3 1073.96   1
  -1  24  -1 12087.2 1332.25   4
   1  23  -1 9424.65 1139.54   4
  -1  24  -1 11761.0 1183.10   2
   1  23  -1 9230.32 1048.49   2
  24 -23  -1 11360.8 1080.76   1
 -23  -1  -1 8778.77 890.783   3
 -24   1  -1 11404.2 997.408   3
 -23  -1   2 797.490 481.460   3
 -24   1   2 828.123 533.688   3
  24 -23   2 158.798 384.423   1
  -1  24   2 1192.75 664.450   4
   1  23   2 2382.52 748.935   4
  23 -24   2 521.981 433.160   1
  -1  24   2 871.651 464.034   2
   1  23   2 1070.32 496.250   2
  -1  24   5 9886.16 1243.64   4
   1  23   5 10270.2 1258.27   4
  -1  24   5 7782.44 996.714   2
   1  23   5 10082.0 1156.28   2
  -1  24   8 2777.65 927.316   2
   1  23   8 3095.88 940.409   2
  -1  24   8 3133.88 913.794   4
   1  23   8 3543.69 955.885   4
  22 -24  -8 3581.65 910.113   1
  -2  24  -8 980.629 627.572   4
   2  22  -8 2722.25 701.685   4
  -2  24  -8 2827.70 789.876   2
   2  22  -8 3463.38 792.345   2
 -22  -2  -8 3598.36 895.171   3
 -24   2  -8 2586.97 822.810   3
  24 -22  -8 1901.69 779.713   1
  -2  24  -5 3321.04 826.126   4
  24 -22  -5 3682.01 891.310   1
   2  22  -5 4007.47 841.805   4
  -2  24  -5 3301.63 803.679   2
   2  22  -5 2804.06 705.824   2
  22 -24  -5 4055.31 889.869   1
 -22  -2  -5 3850.16 783.198   3
 -24   2  -5 4228.95 774.719   3
 -22  -2  -2 2261.02 539.790   3
 -24   2  -2 1911.98 547.033   3
  24 -22  -2 2540.17 605.136   1
  -2  24  -2 3221.81 784.737   4
   2  22  -2 1971.85 644.124   4
   2  22  -2 3652.08 766.238   2
  -2  24  -2 2869.84 716.875   2
  22 -24  -2 2770.19 665.281   1
 -22  -2   1 7023.58 808.808   3
 -24   2   1 6328.56 819.359   3
  24 -22   1 8503.49 865.934   1
  -2  24   1 7766.25 1077.75   4
   2  22   1 8693.51 1133.76   4
  22 -24   1 8280.55 867.247   1
  -2  24   1 8003.98 965.467   2
   2  22   1 8459.41 971.716   2
 -24   2   4 1546.23 639.203   3
 -22  -2   4 2441.73 691.728   3
  24 -22   4 827.717 418.761   1
  -2  24   4 1643.92 640.565   4
   2  22   4 611.337 571.871   4
  -2  24   4 1552.94 570.764   2
   2  22   4 1598.65 622.593   2
  -2  24   7 6630.58 1022.45   4
   2  22   7 4471.45 929.223   4
  -2  24   7 6074.26 997.972   2
   2  22   7 5855.27 975.718   2
  21 -24  -6 1308.33 630.713   1
  -3  24  -6 2985.88 736.545   4
   3  21  -6 663.064 541.795   4
  -3  24  -6 2661.92 743.933   2
   3  21  -6 1995.15 684.295   2
  24 -21  -6 2349.19 761.227   1
 -21  -3  -6 2172.87 711.810   3
 -24   3  -6 1798.29 588.981   3
 -24   3  -3 306.839 475.937   3
  24 -21  -3 5.06016 446.434   1
  -3  24  -3 822.852 565.597   4
   3  21  -3 387.049 482.117   4
  21 -24  -3 1031.78 545.746   1
  -3  24  -3 433.048 496.194   2
   3  21  -3 919.200 551.910   2
 -21  -3  -3 451.032 452.709   3
 -21  -3   0 10682.8 898.389   3
 -24   3   0 10057.7 935.220   3
  21 -24   0 9662.93 957.515   1
  -3  24   0 10514.3 1206.96   4
   3  21   0 8827.56 1154.06   4
  -3  24   0 12812.7 1170.21   2
   3  21   0 11675.7 1126.69   2
  24 -21   0 12288.6 1038.19   1
 -21  -3   3 1218.55 534.595   3
 -24   3   3 709.380 534.912   3
  -3  24   3 1656.15 638.241   4
  21 -24   3 860.175 432.576   1
   3  21   3 1375.24 628.632   4
  24 -21   3 1827.68 468.721   1
  -3  24   3 618.602 421.154   2
   3  21   3 1454.06 477.413   2
  -3  24   6 3531.42 784.344   2
   3  21   6 4014.19 810.580   2
  -3  24   6 3138.42 802.380   4
   3  21   6 4189.65 929.925   4
  -4  24  -7 6298.37 1032.31   2
  20 -24  -7 4012.69 913.790   1
  -4  24  -7 4730.28 853.489   4
   4  20  -7 4038.75 757.425   4
   4  20  -7 5623.20 890.027   2
  24 -20  -7 3975.16 870.614   1
 -20  -4  -7 5497.86 997.060   3
 -24   4  -7 4588.02 880.422   3
  -4  24  -4 5378.95 925.625   4
   4  20  -4 3815.65 812.809   4
  20 -24  -4 3884.20 767.233   1
  -4  24  -4 3720.75 786.820   2
   4  20  -4 3131.54 743.255   2
 -20  -4  -4 4396.70 735.680   3
  24 -20  -4 4180.26 797.249   1
 -24   4  -4 3383.88 629.063   3
 -20  -4  -1 2744.32 564.880   3
 -24   4  -1 3440.00 613.660   3
  20 -24  -1 4272.10 679.254   1
  -4  24  -1 3573.03 833.711   4
   4  20  -1 4026.47 799.425   4
  -4  24  -1 5169.01 804.799   2
  24 -20  -1 3934.95 662.525   1
   4  20  -1 4289.12 726.824   2
  20 -24   2 81.0820 385.564   1
 -20  -4   2 668.258 466.342   3
 -24   4   2 1684.72 573.460   3
  -4  24   2 1361.03 628.244   4
   4  20   2 1638.65 740.671   4
  24 -20   2 280.542 356.554   1
  -4  24   2 1447.69 516.414   2
   4  20   2 1503.83 580.157   2
  -4  24   5 7162.81 1048.52   4
   4  20   5 5058.22 932.073   4
   4  20   5 5816.93 925.992   2
  -4  24   8 2585.85 728.821   2
   4  20   8 2842.90 850.651   2
  -4  24   8 3142.53 855.839   4
   4  20   8 1978.62 752.997   4
  -5  24  -8 732.385 589.957   4
  -5  24  -8 947.447 629.399   2
   5  19  -8 1755.35 599.768   4
  19 -24  -8 1581.24 748.302   1
   5  19  -8 762.742 548.132   2
  24 -19  -8 440.081 600.394   1
 -19  -5  -8 1869.30 707.687   3
 -24   5  -8 202.602 595.139   3
  -5  24  -5 3601.30 780.800   4
   5  19  -5 4735.76 848.678   4
  19 -24  -5 3368.17 746.867   1
  -5  24  -5 3448.65 794.489   2
   5  19  -5 2850.56 679.015   2
  24 -19  -5 4017.15 876.760   1
 -19  -5  -5 2863.12 693.314   3
 -24   5  -5 1908.38 622.828   3
  19 -24  -2 10967.8 1018.29   1
  -5  24  -2 11570.8 1227.97   4
  24 -19  -2 10422.3 1040.56   1
   5  19  -2 10151.4 1143.74   4
  -5  24  -2 10382.2 1100.68   2
   5  19  -2 11071.1 1047.92   2
 -19  -5  -2 7953.79 784.923   3
 -24   5  -2 10625.0 952.710   3
 -19  -5   1 3307.80 588.692   3
 -24   5   1 4190.22 695.575   3
  -5  24   1 2076.76 681.538   4
   5  19   1 3762.63 781.576   4
  -5  24   1 4614.01 713.077   2
   5  19   1 4306.66 708.119   2
  19 -24   1 3089.75 578.707   1
  24 -19   1 4104.64 641.570   1
   5  19   4 863.545 480.599   2
 -24   5   4 823.015 601.443   3
  -5  24   4 907.925 569.083   4
   5  19   4 97.6736 524.116   4
  24 -19   4 665.007 341.886   1
  -5  24   4 791.758 439.668   2
  -5  24   7 3174.92 722.513   2
   5  19   7 4036.00 887.191   2
  -5  24   7 5079.90 936.083   4
   5  19   7 4229.01 928.073   4
  18 -24  -9 2446.98 811.992   1
  -6  24  -9 1709.24 681.052   4
  -6  24  -9 528.476 590.042   2
  24 -18  -9 1729.87 788.240   1
   6  18  -9 2250.67 661.726   2
   6  18  -9-794.613 851.666   1
 -18  -6  -9 2927.46 883.441   3
 -24   6  -9-33.9694 603.869   3
  24 -18  -6 8998.17 1149.54   1
  -6  24  -6 8185.53 1053.46   4
  -6  24  -6 10287.6 1213.17   2
   6  18  -6 7814.15 963.377   4
   6  18  -6 9885.38 1051.01   2
  18 -24  -6 9250.53 1112.96   1
 -18  -6  -6 8993.76 1054.42   3
 -24   6  -6 7370.88 982.499   3
  24 -18  -3 5447.90 824.487   1
  -6  24  -3 4865.44 887.166   4
  -6  24  -3 4646.41 772.253   2
   6  18  -3 3836.59 756.481   4
   6  18  -3 3928.17 720.530   2
   6  18  -3 2900.95 297.978   3
  18 -24  -3 3380.42 671.948   1
 -18  -6  -3 4786.97 692.663   3
 -24   6  -3 3987.68 680.697   3
 -24   6   0 5593.29 712.875   3
  -6  24   0 5269.08 886.476   4
   6  18   0 5042.95 851.433   4
  -6  24   0 5881.86 826.168   2
  24 -18   0 4819.99 713.576   1
   6  18   0 4222.59 539.241   3
  18 -24   0 7173.35 813.588   1
   6  18   0 6644.49 841.364   2
 -18  -6   0 4393.65 613.092   3
 -18  -6   3 6135.52 780.349   3
 -24   6   3 5700.34 799.873   3
  -6  24   3 6628.79 1001.20   4
   6  18   3 5418.01 892.722   4
  24 -18   3 6382.67 656.395   1
 -24   6   3 4803.23 547.809   2
  -6  24   3 5710.41 779.226   2
   6  18   3 6459.52 883.874   2
   6  18   6 3846.82 787.443   2
  -6  24   6 4983.50 874.233   4
   6  18   6 3947.37 878.865   4
  -6  24   6 3036.33 701.818   2
  -6  24   9 4069.11 943.241   2
   6  18   9 3884.66 994.665   2
  -6  24   9 2057.23 756.844   4
   6  18   9 2837.35 813.744   4
   7  17  -7 2260.59 735.723   1
  -7  24  -7 2985.32 729.028   4
  17 -24  -7 4323.09 822.788   1
  -7  24  -7 2284.34 652.084   2
   7  17  -7 3014.24 636.851   4
  24 -17  -7 2259.25 842.268   1
   7  17  -7 2554.16 617.629   2
 -17  -7  -7 1579.00 669.817   3
 -24   7  -7 3206.36 719.297   3
  -7  24  -4 1826.32 646.674   4
   7  17  -4 1078.44 529.747   4
  -7  24  -4 2912.71 755.723   2
  24 -17  -4 1717.99 581.055   1
   7  17  -4 341.524 418.764   2
  17 -24  -4 2554.84 666.727   1
 -17  -7  -4 1670.23 552.218   3
 -24   7  -4 1362.93 555.100   3
  -7  24  -1 6514.43 937.462   4
  24 -17  -1 6167.92 773.780   1
  17 -24  -1 6341.73 763.769   1
   7  17  -1 6038.80 922.258   4
  -7  24  -1 7246.68 886.075   2
   7  17  -1 6150.95 561.588   3
   7  17  -1 8332.18 960.306   2
 -17  -7  -1 6379.95 696.861   3
 -24   7  -1 6284.43 805.463   3
  24 -17   2 3379.11 539.343   1
 -24   7   2 5354.99 788.093   3
 -17  -7   2 2676.85 547.723   3
  -7  24   2 4363.08 839.395   4
  17 -24   2 2679.52 541.730   1
   7  17   2 4034.37 850.142   4
  -7  24   2 3531.39 645.718   2
  17 -24   2 2630.51 467.611   3
 -24   7   2 2091.69 435.940   2
   7  17   2 3193.23 698.355   2
  -7  24   5 9732.73 1174.44   4
   7  17   5 8660.55 1143.71   4
  -7  24   5 9309.79 968.364   2
   7  17   5 9047.74 1134.36   2
  -7  24   8 3001.58 708.679   2
   7  17   8 4033.92 941.673   2
  -7  24   8 4418.55 890.973   4
   7  17   8 4413.07 946.892   4
  -8  24  -8 2009.58 664.004   4
   8  16  -8 2697.77 940.852   1
  -8  24  -8 2370.09 796.505   2
   8  16  -8 3858.71 658.653   4
  24 -16  -8 3702.59 909.685   1
   8  16  -8 4198.48 781.897   2
  16 -24  -8 5073.14 964.739   1
 -24   8  -8 5352.62 956.778   3
 -16  -8  -8 2562.96 834.933   3
  -8  24  -5 695.177 471.075   4
  -8  24  -5 1659.38 629.375   2
   8  16  -5 1714.77 584.260   4
  24 -16  -5 1705.33 670.202   1
   8  16  -5 963.469 458.280   2
  16 -24  -5 900.566 569.852   1
 -16  -8  -5 1036.01 516.310   3
 -24   8  -5 1577.77 593.378   3
 -24   8  -2 1268.49 449.982   3
   8  16  -2 1531.68 584.586   4
  16 -24  -2 3191.15 616.016   1
  -8  24  -2 2593.13 670.123   2
  24 -16  -2 3022.23 654.732   1
   8  16  -2 2288.44 375.706   3
   8  16  -2 1910.60 524.945   2
  -8  24  -2 3904.54 745.128   4
 -16  -8  -2 2300.11 480.546   3
 -16  -8   1 550.843 370.217   3
 -24   8   1 705.593 416.448   3
  24 -16   1 176.646 329.844   1
  16 -24   1-157.091 362.355   1
  -8  24   1 420.032 481.026   4
   8  16   1 5.44192 478.487   4
  -8  24   1 137.761 411.245   2
   8  16   1 821.078 453.204   3
   8  16   1 341.323 494.409   2
  16 -24   1 183.692 281.641   3
  24 -16   4 5269.30 545.457   1
  -8  24   4 5344.44 886.968   4
   8  16   4 6557.18 1017.24   4
 -24   8   4 4256.91 411.361   2
  16 -24   4 3851.92 544.195   3
  -8  24   4 3974.46 670.615   2
   8  16   4 6206.76 950.895   2
  -8  24   7 847.710 541.734   2
   8  16   7 71.6744 565.901   2
  -8  24   7 663.995 545.279   4
   8  16   7-126.519 521.204   4
  -9  24  -9 3339.81 808.043   4
  -9  24  -9 3893.57 904.066   2
  24 -15  -9 3539.40 955.891   1
   9  15  -9 3621.95 1133.69   1
   9  15  -9 4131.69 756.708   2
  15 -24  -9 3056.61 858.797   1
 -15  -9  -9 4725.06 1033.20   3
 -24   9  -9 4621.71 949.393   3
   9  15  -6 5610.97 1082.36   1
  -9  24  -6 5154.88 854.408   4
  -9  24  -6 5085.04 974.908   2
  24 -15  -6 4039.61 901.723   1
   9  15  -6 5431.40 767.009   4
   9  15  -6 5605.08 809.851   2
 -15  -9  -6 5874.82 912.936   3
  15 -24  -6 5423.23 895.998   1
 -24   9  -6 3958.27 768.365   3
  24 -15  -3 7721.94 978.844   1
  15 -24  -3 8905.16 957.404   1
  -9  24  -3 6654.87 921.663   4
  -9  24  -3 7640.89 981.017   2
   9  15  -3 6881.99 896.025   4
   9  15  -3 8171.30 898.541   2
   9  15  -3 6399.14 544.447   3
 -15  -9  -3 5987.92 711.869   3
 -24   9  -3 7035.16 822.781   3
 -15  -9   0 2150.12 436.888   3
  -9  24   0 1434.87 561.187   4
 -24   9   0 1738.93 503.221   3
   9  15   0 2738.48 731.942   4
  -9  24   0 1447.63 499.876   2
   9  15   0 1605.39 411.915   3
  15 -24   0 2364.20 521.542   1
   9  15   0 3103.46 663.208   2
  24 -15   0 1621.99 477.427   1
  15 -24   0 1784.68 339.664   3
 -15  -9   3 9592.72 824.185   3
 -24   9   3 8382.94 967.130   3
  24 -15   3 9123.74 693.223   1
  -9  24   3 9356.93 1081.12   4
   9  15   3 9050.70 1057.88   4
  -9  24   3 8388.03 854.198   2
  15 -24   3 6800.31 565.643   3
 -24   9   3 7824.81 612.148   2
   9  15   3 10174.2 1099.77   2
   9  15   6 3558.18 851.866   2
  -9  24   6 4820.54 913.699   4
   9  15   6 4618.69 911.968   4
  -9  24   6 3421.79 653.834   2
  -9  24   9 2327.22 733.227   2
  -9  24   9 1367.55 650.672   4
   9  15   9 2856.12 850.233   4
 -10  24  -7 3385.34 718.815   4
  24 -14  -7 1226.92 702.802   1
  10  14  -7 1303.16 781.417   1
 -10  24  -7 2442.37 807.294   2
  10  14  -7 3012.91 584.001   4
  10  14  -7 2427.62 568.128   2
 -14 -10  -7 2995.25 776.396   3
 -24  10  -7 3510.40 774.396   3
  14 -24  -7 3976.65 820.517   1
 -24  10  -4 1163.56 472.015   3
  14 -24  -4 1450.92 556.580   1
 -10  24  -4 1329.04 587.708   4
  24 -14  -4 1356.07 626.962   1
 -10  24  -4 1159.50 559.316   2
  10  14  -4 876.980 456.283   4
  10  14  -4 1219.87 512.921   2
 -14 -10  -4 1895.56 578.857   3
 -24  10  -1 6188.09 789.020   3
  24 -14  -1 5816.98 764.634   1
 -10  24  -1 7202.34 963.357   4
 -10  24  -1 6972.70 881.444   2
  10  14  -1 6332.34 956.073   4
  10  14  -1 5409.10 600.706   3
  10  14  -1 4932.37 726.820   2
  14 -24  -1 6501.88 846.865   1
 -14 -10  -1 6237.67 644.976   3
  14 -24  -1 4374.29 453.119   3
 -14 -10   2 9084.97 792.317   3
 -24  10   2 6796.23 851.376   3
 -10  24   2 8875.30 1021.23   4
  10  14   2 7337.19 989.441   4
 -10  24   2 8552.65 880.205   2
  24 -14   2 7536.55 699.832   1
  14 -24   2 7944.18 526.081   3
 -24  10   2 7200.68 659.491   2
  10  14   2 8646.80 993.763   2
 -10  24   5 9877.65 1112.01   4
  10  14   5 10234.3 1203.84   4
 -10  24   5 10273.7 974.080   2
  10  14   5 10656.0 1177.45   2
  10  14   8 3460.76 896.668   2
 -10  24   8 4225.09 871.760   4
  10  14   8 2936.78 806.337   4
 -10  24   8 4266.56 836.487   2
  24 -13  -8 2511.25 844.725   1
 -11  24  -8 1309.86 569.052   4
  11  13  -8 610.826 718.766   1
  11  13  -8 1665.43 513.680   2
  13 -24  -8 2032.06 662.769   1
 -13 -11  -8 1985.51 746.591   3
 -24  11  -8 1248.07 622.223   3
  13 -24  -5 549.468 441.019   1
 -11  24  -5 288.602 91.7261   3
  24 -13  -5 732.454 581.014   1
 -11  24  -5 1354.88 577.358   4
  11  13  -5 934.198 699.467   1
 -11  24  -5 1474.14 652.982   2
  11  13  -5-212.094 417.952   4
  11  13  -5 388.028 367.094   2
 -13 -11  -5 133.233 484.698   3
 -24  11  -5 387.867 424.764   3
  24 -13  -2 9340.57 1001.37   1
 -24  11  -2 8146.97 830.764   1
 -11  24  -2 8054.27 969.957   4
 -11  24  -2 9396.41 1046.76   2
  11  13  -2 10638.9 1102.12   4
  13 -24  -2 8030.10 874.097   1
  11  13  -2 8981.31 897.729   2
  11  13  -2 7455.79 648.374   3
 -13 -11  -2 9092.37 757.327   3
 -24  11  -2 11152.4 956.523   3
  13 -24   1 1428.74 477.551   1
 -13 -11   1 2352.21 427.687   3
 -24  11   1 2458.55 566.546   3
 -11  24   1 1759.59 568.910   4
 -11  24   1 3082.48 624.072   2
  11  13   1 1283.27 572.840   4
  24 -13   1 2443.63 510.061   1
  13 -24   1 1978.69 317.492   3
  11  13   1 2920.84 638.181   2
  11  13   4 3841.74 767.146   2
 -24  11   4 1940.16 276.078   2
 -11  24   4 3212.47 746.893   4
  11  13   4 4383.05 844.318   4
 -24  11   4 1483.21 225.017   2
 -11  24   4 3148.88 564.051   2
  24 -13   4 2579.69 383.690   1
 -11  24   7 1785.90 583.090   2
  11  13   7 1896.57 755.692   2
 -24  11   7 1653.38 507.594   4
 -11  24   7 202.421 456.647   4
  11  13   7 1396.29 669.292   4
  24 -12  -9 3304.81 1014.76   1
 -12  24  -9 3644.49 854.419   4
 -12  24  -9 4061.96 1002.32   2
  12  12  -9 5838.26 1266.96   1
  12 -24  -9 4801.49 1196.37   3
 -12 -12  -9 5422.21 1125.30   3
 -24  12  -9 3024.24 808.219   3
  12 -24  -9 3512.34 828.395   1
  12 -24  -6 2040.03 643.406   1
  24 -12  -6 2471.51 763.443   1
 -12  24  -6 1536.03 605.018   4
  12  12  -6 2622.22 879.396   1
 -12  24  -6 3847.47 839.753   2
  12  12  -6 2564.27 564.559   4
  12  12  -6 2281.15 537.942   2
 -12 -12  -6 1453.07 673.156   3
 -24  12  -6 2350.91 630.410   3
 -12  24  -6 2137.01 280.429   3
 -12  24  -3 4760.11 816.669   4
 -24  12  -3 4183.25 614.756   1
 -12  24  -3 5035.45 825.267   2
  12  12  -3 4236.50 744.570   4
  12 -24  -3 4182.98 704.284   1
  12  12  -3 4212.43 615.559   2
 -12 -12  -3 3884.19 581.547   3
  24 -12  -3 3871.57 784.107   1
 -24  12  -3 3810.13 625.130   3
 -24  12   0 5835.26 746.196   3
  24 -12   0 6601.95 748.689   1
 -12  24   0 6742.03 905.144   4
 -12  24   0 6834.13 842.871   2
  12  12   0 5521.95 841.386   4
  12 -24   0 6223.60 761.099   1
  12  12   0 7116.36 865.151   2
  12 -24   0 6262.11 434.081   3
 -12 -12   0 6201.81 575.727   3
 -12 -12   3 5154.34 573.585   3
 -24  12   3 4223.49 749.251   3
 -24  12   3 2928.81 438.899   2
 -12  24   3 5745.93 873.958   4
  12  12   3 6299.36 933.688   4
 -12  24   3 3651.13 621.415   2
  12 -24   3 2669.83 232.175   3
 -24  12   3 2753.22 390.210   2
  24 -12   3 3926.66 458.628   1
  12  12   3 4775.98 811.823   2
  12  12   6 2186.80 720.186   2
 -24  12   6 2755.95 584.319   4
 -12  24   6 1831.06 630.675   4
  12  12   6 3496.33 828.039   4
 -12  24   6 3772.42 665.860   2
 -12  24   9 4469.47 821.591   4
  12  12   9 4860.21 996.531   4
  11 -24  -7 1426.32 606.277   1
  24 -11  -7 1098.93 746.205   1
 -13  24  -7 1668.28 596.214   4
 -13  24  -7 577.949 668.652   2
  13  11  -7 2469.38 859.461   1
  13  11  -7 1790.67 532.626   4
  11 -24  -7 1409.87 728.107   3
  13  11  -7 1200.21 432.826   2
 -11 -13  -7 1965.53 751.972   3
 -24  13  -7 1041.44 581.605   3
 -24  13  -4 2643.71 552.996   3
 -13  24  -4 2555.47 279.363   3
 -13  24  -4 3408.90 724.953   4
  13  11  -4 4407.37 842.922   1
  24 -11  -4 2716.80 735.680   1
 -13  24  -4 3122.82 752.621   2
  11 -24  -4 3729.49 703.220   1
  13  11  -4 3627.72 698.662   4
  13  11  -4 3986.28 600.970   2
 -11 -13  -4 3145.07 622.932   3
  11 -24  -1 1536.11 283.253   3
 -24  13  -1 2336.10 538.954   3
  11 -24  -1 2692.53 578.107   1
 -13  24  -1 3358.18 748.498   4
  24 -11  -1 2289.77 571.251   1
 -13  24  -1 1989.26 549.081   2
  13  11  -1 2198.91 618.847   4
  13  11  -1 1948.98 568.137   2
 -11 -13  -1 2092.03 374.767   3
 -11 -13   2 8351.36 644.182   3
 -24  13   2 7358.58 868.576   3
 -13  24   2 7082.87 966.079   4
  24 -11   2 6318.60 617.166   1
 -13  24   2 8892.84 866.398   2
  13  11   2 7813.21 994.015   4
  13  11   2 9674.78 1040.82   2
 -24  13   2 5023.79 584.424   2
  13  11   5 202.840 493.202   2
 -24  13   5 91.6244 399.197   4
 -13  24   5 354.780 473.285   4
  13  11   5 695.652 562.522   4
 -13  24   5 241.604 337.741   2
 -13  24   8 635.992 445.084   2
 -13  24   8 1118.18 565.512   4
  13  11   8 513.343 586.021   4
  24 -10  -8 3242.60 899.436   1
  10 -24  -8 6288.32 948.336   1
 -14  24  -8 4056.78 835.093   4
 -14  24  -8 3897.96 908.760   2
  14  10  -8 4963.40 1171.91   1
  10 -24  -8 4514.97 1105.28   3
  14  10  -8 3802.44 630.156   2
 -10 -14  -8 3364.14 913.180   3
 -24  14  -8 4035.27 763.928   3
 -14  24  -5 10986.3 576.201   3
  14  10  -5 14004.2 1463.17   1
 -14  24  -5 9676.49 1083.41   4
 -14  24  -5 9032.01 1165.00   2
  10 -24  -5 10658.9 1081.22   1
  14  10  -5 9700.98 949.723   4
  14  10  -5 10470.9 913.041   2
 -10 -14  -5 11632.9 1089.02   3
  24 -10  -5 10137.5 1291.31   1
 -24  14  -5 9106.20 928.443   3
  10 -24  -2 6769.34 578.724   3
  10 -24  -2 8959.53 928.874   1
  14  10  -2 9231.35 1068.88   1
 -14  24  -2 8228.16 999.731   4
 -14  24  -2 9055.26 1012.84   2
  14  10  -2 7829.31 958.691   4
  14  10  -2 7231.71 802.303   2
 -10 -14  -2 7572.58 673.932   3
  24 -10  -2 8774.95 973.598   1
 -24  14  -2 8183.14 819.574   3
 -10 -14   1 7167.15 574.886   3
 -24  14   1 5884.30 770.938   3
  24 -10   1 6072.18 695.918   1
 -14  24   1 6650.84 935.349   4
 -14  24   1 5370.63 755.609   2
  14  10   1 7558.25 984.230   4
  10 -24   1 5077.00 242.343   3
  14  10   1 6918.06 895.347   2
  14  10   4 2585.33 744.185   2
 -14  24   4 1010.37 592.175   4
 -24  14   4 1345.59 221.539   2
  24 -10   4 1302.36 237.298   1
  14  10   4 2193.99 747.708   4
 -14  24   4 2218.27 489.776   2
 -24  14   4 1318.42 213.326   2
 -24  14   7 2873.98 609.394   4
 -14  24   7 3630.96 766.448   4
  14  10   7 1975.75 724.408   4
 -14  24   7 4424.02 736.780   2
  24  -9  -9 2695.57 916.333   1
 -15  24  -9 3532.29 827.914   4
 -15  24  -9 1322.48 796.847   2
   9 -24  -9 1964.34 647.571   1
  15   9  -9 2357.29 940.770   1
   9 -24  -9 4173.83 1128.65   3
  -9 -15  -9 2541.12 863.216   3
 -24  15  -9 2179.73 716.350   3
  24  -9  -6 2576.00 838.549   1
 -15  24  -6 4653.96 844.297   4
 -15  24  -6 4596.75 958.427   2
  15   9  -6 2068.51 840.094   1
  15   9  -6 3112.67 590.103   4
   9 -24  -6 3992.18 842.992   3
  15   9  -6 4184.80 638.704   2
  -9 -15  -6 4237.17 832.306   3
   9 -24  -6 3608.97 715.907   1
 -24  15  -6 3666.00 719.165   3
 -15  24  -6 2516.33 379.150   3
   9 -24  -3 10289.6 995.568   1
 -15  24  -3 8816.43 556.105   3
  15   9  -3 11226.7 1217.01   1
 -15  24  -3 10559.3 1127.15   4
 -15  24  -3 9740.87 1105.07   2
 -24  15  -3 8708.55 860.762   1
  15   9  -3 9381.31 1012.06   4
   9 -24  -3 10305.3 907.709   3
  15   9  -3 8156.34 823.403   2
  24  -9  -3 10356.8 1107.86   1
  -9 -15  -3 8771.23 782.231   3
 -24  15  -3 10728.3 895.264   3
  -9 -15   0 1297.76 313.497   3
  15   9   0 2829.02 588.068   2
 -24  15   0 1240.70 450.233   3
  24  -9   0 1839.22 549.191   1
 -15  24   0 1422.84 570.518   4
 -15  24   0 1440.53 510.843   2
  15   9   0 2273.26 626.585   4
   9 -24   0 1509.32 254.412   3
   9 -24   0 1843.52 215.163   3
 -24  15   3 6456.34 618.771   2
 -15  24   3 8178.80 997.463   4
  24  -9   3 7410.18 575.334   1
  15   9   3 8928.70 1092.36   4
 -15  24   3 7014.41 763.268   2
 -24  15   3 6631.47 592.095   2
  15   9   3 7571.19 969.154   2
  15   9   6 5484.30 987.202   2
 -24  15   6 4816.49 753.988   4
 -15  24   6 5548.25 908.644   4
  15   9   6 5667.93 963.794   4
 -15  24   6 5643.73 719.329   2
 -15  24   9 3916.12 770.377   4
 -16  24  -7 38.3686 302.406   3
  24  -8  -7 612.069 636.698   1
 -16  24  -7-77.6844 481.069   4
 -16  24  -7-352.283 611.714   2
  16   8  -7 824.543 692.859   1
   8 -24  -7-209.663 670.657   3
  -8 -16  -7 56.3183 555.594   3
  16   8  -7-75.5134 343.664   2
 -24  16  -7-388.680 503.936   3
   8 -24  -7 106.038 508.945   1
 -16  24  -4 5988.55 512.324   3
 -16  24  -4 4708.94 891.871   4
  16   8  -4 5960.15 993.421   1
 -16  24  -4 5442.28 960.140   2
  16   8  -4 5989.17 805.407   4
   8 -24  -4 5133.17 757.061   3
  24  -8  -4 6471.07 1020.73   1
  16   8  -4 6263.32 755.591   2
  -8 -16  -4 5539.94 739.143   3
   8 -24  -4 6926.72 859.058   1
 -24  16  -4 7342.69 807.373   3
 -16  24  -1 1005.88 579.766   4
  16   8  -1-13.8733 375.683   2
 -24  16  -1 896.912 406.796   3
   8 -24  -1 396.804 206.907   3
  24  -8  -1 34.3767 445.822   1
  16   8  -1 187.930 527.016   1
 -16  24  -1 57.1787 429.034   2
  16   8  -1 447.828 459.419   4
   8 -24  -1 205.849 280.949   3
   8 -24  -1 120.203 367.065   1
  -8 -16  -1 696.710 284.573   3
  -8 -16   2 2627.72 346.752   3
  24  -8   2 3036.98 488.807   1
  16   8   2 2629.42 683.599   2
 -24  16   2 3597.53 703.090   3
 -16  24   2 2391.96 676.463   4
 -16  24   2 3016.21 581.589   2
  16   8   2 3009.72 792.795   4
 -24  16   2 1650.92 468.371   2
  16   8   5 1293.16 564.260   2
 -24  16   5-149.806 461.407   4
 -16  24   5 1478.33 604.359   4
  16   8   5 1541.17 676.177   4
 -16  24   5 1691.52 469.369   2
 -16  24   8 4066.99 788.969   4
  24  -7  -8 3803.40 1087.53   1
 -17  24  -8 4098.63 890.890   4
 -17  24  -8 5252.74 1092.82   2
   7 -24  -8 5619.21 848.364   1
  17   7  -8 5800.80 1131.87   1
   7 -24  -8 5999.37 1116.70   3
  -7 -17  -8 4912.08 991.885   3
 -17  24  -8 4498.32 602.032   3
 -24  17  -8 2699.91 654.026   3
 -17  24  -5 8970.43 1112.08   4
 -17  24  -5 6744.75 1055.05   2
  17   7  -5 12633.6 1440.96   1
  17   7  -5 8058.10 892.326   4
   7 -24  -5 9719.98 1045.34   3
  24  -7  -5 7527.35 1115.06   1
  -7 -17  -5 9381.38 997.204   3
  17   7  -5 8968.00 824.094   2
   7 -24  -5 8150.56 948.032   1
 -24  17  -5 9612.98 882.370   3
 -17  24  -5 9850.92 669.811   3
  17   7  -2 2282.16 514.850   2
  24  -7  -2 3057.90 747.451   1
 -24  17  -2 1926.35 495.833   3
 -17  24  -2 2805.35 424.347   3
   7 -24  -2 2794.18 405.062   3
 -17  24  -2 4244.51 814.788   4
 -17  24  -2 4054.20 784.586   2
  17   7  -2 2205.38 687.003   1
  17   7  -2 3432.48 729.514   4
   7 -24  -2 4096.16 563.033   3
   7 -24  -2 3364.06 644.216   1
  -7 -17  -2 2218.66 430.713   3
  -7 -17   1 7976.43 508.646   3
 -24  17   1 8280.90 883.605   3
 -24  17   1 6522.92 819.334   2
  17   7   1 6818.61 850.643   1
 -17  24   1 6115.67 892.048   4
 -17  24   1 7243.16 856.392   2
  17   7   1 8887.52 1081.24   4
  24  -7   1 7128.60 729.192   1
  17   7   1 6782.95 856.944   2
  17   7   4 2104.55 620.760   2
 -24  17   4 2792.79 699.885   4
 -17  24   4 2171.98 624.816   4
  17   7   4 2155.09 481.800   1
 -24  17   4 1363.21 268.013   2
 -17  24   4 2770.81 530.560   2
  17   7   4 1510.69 629.349   4
  24  -7   4 678.308 175.104   1
 -17  24   7 1802.17 469.874   2
 -24  17   7 2958.18 645.848   4
 -17  24   7 2443.75 732.440   4
  24  -6  -9 2487.59 978.585   1
 -24  18  -9 1572.00 711.530   4
   6 -24  -9 3164.35 769.171   1
 -18  24  -9 1746.35 765.875   4
 -18  24  -9 2610.11 966.394   2
  18   6  -9 2049.67 931.196   1
   6 -24  -9 3144.77 982.259   3
  -6 -18  -9 1747.13 877.305   3
 -24  18  -9 3621.98 784.131   3
  24  -6  -6 3564.88 933.649   1
 -18  24  -6 2934.79 755.791   4
 -18  24  -6 2757.44 818.837   2
  18   6  -6 4188.18 1014.08   1
   6 -24  -6 4167.06 855.304   3
  -6 -18  -6 3511.00 755.032   3
  18   6  -6 4428.85 611.744   2
 -24  18  -6 3873.27 690.277   3
   6 -24  -6 4288.24 732.300   1
 -18  24  -6 3969.67 541.120   3
 -18  24  -3 8457.33 685.402   3
 -18  24  -3 6488.67 1004.70   4
  18   6  -3 8208.40 1074.62   1
 -18  24  -3 8017.95 1067.96   2
  18   6  -3 6177.23 874.241   4
   6 -24  -3 7203.75 770.448   3
  24  -6  -3 6813.25 954.238   1
   6 -24  -3 6103.52 800.228   1
  -6 -18  -3 6548.76 710.835   3
  18   6  -3 6546.20 783.889   2
 -24  18  -3 7011.02 768.938   3
 -24  18   0 6637.98 760.373   3
 -24  18   0 5413.61 795.814   2
  18   6   0 7913.26 956.893   1
 -18  24   0 6951.31 959.764   4
 -18  24   0 6855.54 936.077   2
  18   6   0 7118.94 964.723   4
  24  -6   0 5384.80 727.176   1
  -6 -18   0 6141.48 476.038   3
  18   6   0 6093.01 820.198   2
  18   6   3 3523.51 583.723   1
  24  -6   3 3630.92 446.054   1
 -24  18   3 3302.79 483.938   2
  18   6   3 3493.75 764.333   2
 -24  18   3 3864.96 764.963   4
 -18  24   3 3624.55 729.797   4
 -18  24   3 4680.93 667.819   2
  18   6   3 3723.55 801.078   4
 -24  18   6 6775.45 897.321   4
 -18  24   6 7120.25 978.171   4
 -18  24   6 9065.08 802.836   2
   5 -24  -7 4408.66 780.406   1
 -19  24  -7 1588.54 701.673   4
 -19  24  -7 2940.24 910.072   2
  19   5  -7 6021.01 1184.51   1
 -24  19  -7 2409.57 786.286   4
   5 -24  -7 5199.13 995.704   3
  -5 -19  -7 4056.17 853.887   3
 -24  19  -7 6448.32 839.717   3
 -19  24  -7 3849.10 562.203   3
  24  -5  -7 3742.27 977.616   1
 -24  19  -4 398.257 422.431   3
  19   5  -4 350.629 348.214   2
 -19  24  -4 943.847 322.633   3
 -19  24  -4 151.528 492.702   4
 -19  24  -4 444.106 558.163   2
  19   5  -4 523.826 585.054   1
   5 -24  -4 1356.47 502.872   3
  -5 -19  -4 312.870 423.596   3
   5 -24  -4 648.087 445.896   1
  24  -5  -4 567.080 615.442   1
 -24  19  -1 3758.21 624.144   3
   5 -24  -1 3083.23 310.500   3
 -19  24  -1 3007.15 506.501   3
 -24  19  -1 3875.36 786.328   2
 -24  19  -1 3241.89 760.445   4
 -19  24  -1 3409.75 766.138   4
 -19  24  -1 3581.32 759.437   2
  19   5  -1 2930.56 705.834   1
  19   5  -1 4445.46 787.609   4
  24  -5  -1 4388.60 722.568   1
   5 -24  -1 2678.40 318.283   3
  -5 -19  -1 3778.96 433.141   3
  19   5  -1 3848.43 679.836   2
  19   5   2 9911.50 1060.85   2
 -24  19   2 11334.9 1085.96   3
 -24  19   2 9412.43 1085.11   4
 -19  24   2 9736.65 1155.16   4
  19   5   2 9909.17 925.986   1
 -24  19   2 10461.4 908.861   2
 -19  24   2 13166.9 1054.25   2
  19   5   2 9873.46 1139.53   4
  24  -5   2 11436.5 836.515   1
  19   5   5 2476.54 347.211   1
 -24  19   5 2320.24 651.194   4
 -19  24   5 1856.40 587.201   4
 -19  24   5 2998.33 485.013   2
 -24  19   8 1502.67 572.913   4
 -19  24   8 1324.13 624.865   4
 -20  24  -8 1439.03 460.274   3
 -24  20  -8 303.447 606.612   4
 -24  20  -8 960.467 814.120   2
 -20  24  -8 1052.20 667.148   4
 -20  24  -8 1514.10 843.318   2
  20   4  -8 2546.45 963.785   1
   4 -24  -8 1553.25 824.480   3
  -4 -20  -8 897.526 626.058   3
   4 -24  -8 1878.79 605.338   1
 -24  20  -8 1525.91 592.035   3
  24  -4  -8 1104.64 732.589   1
 -24  20  -5 4949.80 939.930   4
 -20  24  -5 6465.26 989.755   4
 -20  24  -5 7018.25 1150.30   2
 -24  20  -5 4850.73 1040.34   2
  20   4  -5 7633.03 1248.08   1
  24  -4  -5 6695.97 1088.68   1
   4 -24  -5 7215.17 938.258   1
   4 -24  -5 6110.19 874.844   3
  -4 -20  -5 6743.56 886.489   3
  20   4  -5 6518.91 724.351   2
 -24  20  -5 7410.48 802.800   3
 -20  24  -5 5707.13 613.073   3
 -24  20  -2 169.355 378.208   3
  20   4  -2 599.242 430.362   2
 -20  24  -2 602.030 318.413   3
 -24  20  -2 459.599 492.205   4
 -24  20  -2 536.510 606.706   2
 -20  24  -2 1023.82 516.660   4
 -20  24  -2 397.905 491.927   2
  20   4  -2-126.568 595.258   1
   4 -24  -2 915.050 386.368   3
  -4 -20  -2 651.796 317.711   3
  24  -4  -2 1596.61 614.790   1
  20   4   1 4271.72 755.070   2
  -4 -20   1 2994.29 232.227   3
 -24  20   1 4895.90 773.270   3
 -24  20   1 3558.22 760.900   4
 -20  24   1 2966.70 715.053   4
 -24  20   1 3314.46 633.569   2
 -20  24   1 3800.70 731.261   2
  20   4   1 3996.78 678.399   1
  24  -4   1 3654.32 580.553   1
 -24  20   4 4323.25 829.814   4
 -20  24   4 5302.79 871.815   4
  20   4   4 3705.18 483.052   1
 -24  20   4 3620.70 448.139   2
 -20  24   4 4366.47 594.961   2
 -24  20   7 5148.45 814.726   4
 -20  24   7 4149.96 776.231   4
 -24  21  -6 2858.68 596.264   3
   3 -24  -6 3825.05 671.953   1
 -24  21  -6 3441.03 846.347   4
 -24  21  -6 3781.54 975.932   2
 -21  24  -6 4783.61 1073.73   2
 -21  24  -6 1848.09 727.636   4
  21   3  -6 2966.82 898.920   1
   3 -24  -6 2825.86 762.516   3
  -3 -21  -6 2217.70 675.050   3
  24  -3  -6 2169.92 856.245   1
 -21  24  -6 2771.23 518.761   3
  21   3  -6 3191.56 518.621   2
 -24  21  -3 764.550 375.658   3
  21   3  -3 1874.34 469.287   2
 -21  24  -3 1487.94 407.043   3
 -21  24  -3 2891.76 761.652   4
 -24  21  -3 1870.84 685.299   4
 -24  21  -3 1382.64 642.063   2
 -21  24  -3 2407.99 742.657   2
  21   3  -3 2664.49 784.588   1
   3 -24  -3 1904.86 488.772   3
  -3 -21  -3 910.782 404.433   3
  24  -3  -3 1370.86 641.506   1
  21   3   0 9107.10 996.656   2
 -24  21   0 9848.23 942.596   3
 -24  21   0 9895.43 1168.98   4
 -21  24   0 8892.28 1149.70   4
 -24  21   0 11218.2 1149.01   2
 -21  24   0 9455.51 1041.32   2
  21   3   0 9682.39 1028.45   1
  24  -3   0 9990.22 991.206   1
  -3 -21   0 9772.52 466.014   3
  24  -3   3 290.215 290.888   1
 -24  21   3 515.946 602.007   4
 -21  24   3 137.258 484.601   4
 -24  21   3-260.818 315.212   2
 -21  24   3 377.574 384.845   2
  21   3   3 741.252 401.861   1
 -24  21   6 2349.38 640.664   4
 -21  24   6 1748.72 605.159   4
 -24  22  -7 4792.94 1017.24   4
 -22  24  -7 5939.68 1221.96   2
 -22  24  -7 5087.31 995.427   4
 -24  22  -7 5987.11 1183.08   2
  22   2  -7 7062.24 1271.54   1
   2 -24  -7 4288.75 870.918   3
  -2 -22  -7 4813.37 933.915   3
   2 -24  -7 5654.89 844.011   1
  24  -2  -7 6492.51 1189.28   1
 -24  22  -7 5120.77 726.717   3
 -22  24  -7 5056.94 693.508   3
 -24  22  -4 1242.08 447.098   3
 -22  24  -4 1706.25 438.379   3
 -24  22  -4 1812.35 666.298   4
  22   2  -4 1680.30 460.803   2
 -22  24  -4 1638.12 725.535   4
 -24  22  -4 2342.36 818.190   2
 -22  24  -4 1221.29 701.881   2
  22   2  -4 1737.81 748.063   1
   2 -24  -4 800.422 465.739   3
  -2 -22  -4 1008.53 459.062   3
  24  -2  -4 4044.81 855.268   1
  22   2  -1 8072.30 899.409   2
 -24  22  -1 8080.58 821.066   3
 -22  24  -1 8669.88 827.689   3
 -24  22  -1 6965.48 1009.58   4
 -22  24  -1 6171.46 991.247   4
 -24  22  -1 5439.24 928.483   2
 -22  24  -1 8255.99 1048.57   2
  22   2  -1 8019.89 998.446   1
  24  -2  -1 7055.44 946.303   1
   2 -24  -1 7177.72 444.553   3
  -2 -22  -1 7547.21 493.716   3
 -24  22   2 1109.78 569.360   4
 -22  24   2 1855.14 674.993   4
 -24  22   2 1447.39 454.170   2
 -22  24   2 1475.80 471.050   2
  24  -2   2 2792.54 548.524   1
  22   2   2 1945.10 536.173   1
 -24  22   5 3720.94 787.401   4
 -22  24   5 3324.44 758.493   4
 -22  24   5 4425.95 559.846   2
 -24  22   8 1155.85 601.397   4
 -22  24   8 1637.53 575.532   4
 -24  23  -8 1903.45 583.249   3
 -23  24  -8 1962.43 599.244   3
   1 -24  -8 2089.57 621.490   1
 -24  23  -8 1724.49 761.882   4
 -23  24  -8 2392.07 869.544   4
 -24  23  -8 3869.04 1137.75   2
 -23  24  -8 3052.35 1101.58   2
   1 -24  -8 1766.71 764.233   3
  -1 -23  -8 2264.49 814.136   3
  23   1  -8-154.592 802.280   1
  24  -1  -8 890.317 874.113   1
  23   1  -5 6898.35 695.359   2
 -24  23  -5 6671.37 1093.55   4
 -23  24  -5 6748.17 1068.26   4
 -24  23  -5 7152.35 1137.94   2
 -23  24  -5 8579.89 1253.02   2
  23   1  -5 8201.07 1237.76   1
  24  -1  -5 8007.36 1203.92   1
   1 -24  -5 8086.04 923.525   3
  -1 -23  -5 6101.36 841.591   3
 -24  23  -5 8097.73 820.526   3
 -23  24  -5 7335.67 731.055   3
 -24  23  -2 571.331 389.276   3
 -23  24  -2 1060.88 481.264   3
  23   1  -2 351.466 360.383   2
 -24  23  -2 384.739 636.736   4
 -23  24  -2 991.308 691.287   4
 -24  23  -2 1256.35 603.659   2
 -23  24  -2 849.573 677.115   2
  23   1  -2 738.722 624.840   1
  24  -1  -2 277.878 553.294   1
   1 -24  -2 1259.49 376.349   3
  -1 -23  -2 406.422 278.616   3
 -24  23   1 8694.40 1119.78   4
 -23  24   1 10266.7 1169.39   4
 -24  23   1 9456.87 972.710   2
 -23  24   1 10464.2 1030.43   2
  23   1   1 10936.2 1009.08   1
  24  -1   1 10063.7 966.504   1
  23   1   4 888.957 287.356   1
 -24  23   4 2030.61 672.195   4
 -23  24   4 2180.18 714.578   4
  24  -1   4 980.286 248.018   1
 -24  23   4 1831.78 407.307   2
 -23  24   4 1589.76 400.554   2
 -23  24   7 2815.48 752.205   4
 -24  23   7 2056.94 689.223   4
 -24  24  -6 1033.07 457.641   3
 -24  24  -6 1844.74 781.773   4
 -24  24  -6 725.701 779.824   2
   0 -24  -6 2047.38 686.436   3
  24   0  -6 576.949 727.668   1
 -24  24  -3 148.448 347.763   3
 -24  24  -3 280.759 560.354   4
 -24  24  -3 517.524 625.068   2
  24   0  -3 358.581 619.466   1
   0 -24  -3 182.275 343.751   3
 -24  24   0 9579.50 934.709   3
 -24  24   0 10363.0 1207.99   4
 -24  24   0 8701.53 1023.56   2
  24   0   0 9623.96 1014.66   1
 -24  24   3 559.677 683.146   4
 -24  24   3 255.407 337.965   2
  24   0   3 257.418 337.741   1
 -24  24   6 6312.09 978.213   4
  25 -25  -7 56.7923 585.833   1
   0  25  -7 125.475 616.496   4
   0  25  -7-181.495 535.633   2
 -25   0  -7 799.356 624.369   3
   0  25  -4 7353.60 1117.77   4
   0  25  -4 7176.27 1050.33   2
  25 -25  -4 6639.20 956.756   1
 -25   0  -4 7243.86 912.536   3
 -25   0  -1-194.818 431.459   3
   0  25  -1-394.036 607.392   4
   0  25  -1 40.6473 450.431   2
  25 -25  -1 2.36316 482.676   1
 -25   0   2 4094.76 733.255   3
   0  25   2 4218.22 912.307   4
   0  25   2 4143.07 764.935   2
  25 -25   2 4927.67 727.535   1
   0  25   5 91.5845 628.269   4
   0  25   5-215.007 538.622   2
  25 -24  -5 1862.00 696.019   1
  24 -25  -5 3173.34 790.753   1
  -1  25  -5 3785.74 869.274   4
   1  24  -5 2977.24 838.991   4
  -1  25  -5 2999.51 748.291   2
   1  24  -5 3065.32 748.306   2
 -24  -1  -5 3275.93 755.943   3
 -25   1  -5 1989.04 685.903   3
 -24  -1  -2 1272.28 541.352   3
 -25   1  -2 567.258 420.223   3
  -1  25  -2 1318.26 639.883   4
   1  24  -2 358.187 548.489   4
  25 -24  -2 1053.48 524.902   1
  -1  25  -2 2308.14 696.447   2
   1  24  -2 1438.94 585.128   2
  24 -25  -2 2453.37 659.155   1
 -24  -1   1 7470.41 886.787   3
 -25   1   1 7868.13 903.930   3
  25 -24   1 8326.75 917.040   1
  -1  25   1 9748.92 1228.12   4
   1  24   1 10281.3 1239.92   4
  24 -25   1 8013.31 886.199   1
  -1  25   1 7451.51 993.845   2
   1  24   1 8768.26 1026.84   2
 -25   1   4 2726.15 775.940   3
 -24  -1   4 3213.53 792.107   3
  -1  25   4 3412.21 797.286   4
   1  24   4 2857.99 831.478   4
  -1  25   4 2815.20 755.880   2
   1  24   4 3486.70 753.350   2
  -1  25   7 3784.91 857.793   2
   1  24   7 4746.04 939.882   2
  -1  25   7 5429.02 1068.09   4
   1  24   7 5142.63 1046.00   4
  25 -23  -6 844.005 672.347   1
  23 -25  -6 2050.54 755.824   1
  -2  25  -6 265.089 531.885   4
   2  23  -6 1041.47 580.572   4
  -2  25  -6 1989.56 688.501   2
   2  23  -6 1559.23 667.317   2
 -23  -2  -6 1781.23 683.638   3
 -25   2  -6 1471.92 667.162   3
 -25   2  -3 4347.58 691.010   3
  -2  25  -3 5490.42 968.698   4
   2  23  -3 5933.89 986.587   4
  -2  25  -3 4791.55 852.786   2
   2  23  -3 3946.25 795.258   2
  25 -23  -3 5914.24 904.559   1
  23 -25  -3 6804.21 935.064   1
 -23  -2  -3 3919.43 736.088   3
 -23  -2   0 1944.71 579.840   3
 -25   2   0 1776.35 554.271   3
  -2  25   0 1281.30 624.362   4
   2  23   0 1049.68 594.434   4
  23 -25   0 614.390 425.531   1
  -2  25   0 1095.65 561.977   2
   2  23   0 1708.42 548.127   2
  25 -23   0 772.066 543.532   1
 -23  -2   3 3219.61 733.688   3
 -25   2   3 4226.23 808.052   3
  25 -23   3 4098.43 657.947   1
  -2  25   3 4874.91 970.271   4
   2  23   3 5680.93 985.910   4
  -2  25   3 4745.61 775.089   2
  23 -25   3 5599.25 748.015   1
   2  23   3 4616.98 828.491   2
  -2  25   6-355.383 550.505   2
   2  23   6 580.567 555.794   2
  -2  25   6 784.924 641.707   4
   2  23   6 508.858 644.332   4
  22 -25  -7 115.916 588.611   1
  -3  25  -7 221.052 525.085   4
   3  22  -7 79.2055 488.453   4
  -3  25  -7 242.876 572.002   2
   3  22  -7-1190.16 564.358   2
  25 -22  -7 894.069 640.670   1
 -22  -3  -7 428.170 642.817   3
 -25   3  -7-337.152 564.098   3
  -3  25  -4 6082.84 973.981   4
   3  22  -4 4354.86 896.227   4
  25 -22  -4 5329.00 913.937   1
  -3  25  -4 5675.32 913.730   2
  22 -25  -4 4326.82 809.850   1
   3  22  -4 4892.57 820.503   2
 -22  -3  -4 3808.02 769.406   3
 -25   3  -4 4136.40 771.067   3
 -22  -3  -1 1496.18 503.945   3
 -25   3  -1 540.802 415.927   3
  22 -25  -1 622.695 482.650   1
  -3  25  -1 1863.53 778.788   4
   3  22  -1 1553.05 593.924   4
  25 -22  -1 951.383 490.405   1
  -3  25  -1 957.355 451.219   2
   3  22  -1 477.691 408.705   2
  22 -25   2 3086.00 650.605   1
 -25   3   2 3627.60 734.799   3
 -22  -3   2 1483.10 501.955   3
  -3  25   2 2918.26 785.539   4
  25 -22   2 3758.89 621.291   1
   3  22   2 1691.20 734.677   4
   3  22   2 4641.90 787.217   2
  -3  25   2 3440.76 703.749   2
   3  22   5 1374.73 706.464   2
  -3  25   5 146.151 646.501   4
   3  22   5-297.689 640.580   4
  -3  25   5 328.381 532.322   2
  -3  25   8 4284.12 924.719   2
   3  22   8 1814.41 824.179   2
  -3  25   8 4585.92 1018.04   4
   3  22   8 3855.31 976.559   4
   4  21  -8 1823.64 914.567   1
  21 -25  -8-52.5954 629.328   1
  -4  25  -8 219.332 541.845   4
   4  21  -8 31.3498 503.461   4
  -4  25  -8 853.409 597.533   2
   4  21  -8 443.806 512.769   2
  25 -21  -8-90.0804 683.128   1
 -21  -4  -8 1265.41 788.310   3
 -25   4  -8 1480.23 729.017   3
  25 -21  -5 7039.26 1010.25   1
  -4  25  -5 5048.20 987.257   4
   4  21  -5 5561.79 915.647   4
   4  21  -5 5553.03 891.163   2
  -4  25  -5 3769.84 837.310   2
  21 -25  -5 4246.92 864.830   1
 -21  -4  -5 4501.73 800.352   3
 -25   4  -5 4975.09 822.107   3
 -21  -4  -2 336.122 433.701   3
 -25   4  -2 600.900 415.219   3
  25 -21  -2 1416.36 549.258   1
  -4  25  -2 1844.06 697.345   4
   4  21  -2 1591.76 666.437   4
  -4  25  -2 190.876 448.293   2
   4  21  -2 842.989 455.762   2
  21 -25  -2 539.982 487.752   1
 -21  -4   1 5499.64 765.545   3
 -25   4   1 6138.50 842.291   3
  25 -21   1 8295.63 854.144   1
   4  21   1 7992.01 1108.59   4
  -4  25   1 9979.84 1206.16   4
  -4  25   1 7225.32 929.773   2
   4  21   1 6724.00 909.943   2
  21 -25   1 7240.25 840.108   1
 -25   4   4 1040.23 543.033   3
 -21  -4   4 606.163 514.360   3
  25 -21   4 1431.29 448.350   1
  -4  25   4 3182.11 807.696   4
   4  21   4 1818.18 641.175   4
  -4  25   4 1738.37 578.415   2
   4  21   4 2047.99 632.276   2
  -4  25   7 5508.29 1052.91   4
   4  21   7 5652.60 1015.59   4
  -4  25   7 5863.20 971.813   2
   4  21   7 6453.58 1075.11   2
  -5  25  -6 309.542 500.256   4
  20 -25  -6 111.812 517.871   1
   5  20  -6 68.3995 515.994   4
  -5  25  -6 753.324 634.503   2
   5  20  -6 98.0957 486.810   2
  25 -20  -6 590.077 626.624   1
 -20  -5  -6-407.701 550.034   3
 -25   5  -6-90.8489 496.638   3
  20 -25  -3 5095.14 839.300   1
  -5  25  -3 4304.06 875.449   4
  25 -20  -3 5062.41 821.985   1
   5  20  -3 5135.97 898.682   4
  -5  25  -3 4988.01 805.321   2
   5  20  -3 6657.69 898.424   2
 -20  -5  -3 5011.30 731.474   3
 -25   5  -3 5112.19 748.012   3
 -20  -5   0 2442.32 530.640   3
 -25   5   0 1896.05 546.196   3
  20 -25   0 2047.55 539.567   1
  -5  25   0 2498.43 772.048   4
   5  20   0 2962.26 781.255   4
  -5  25   0 2909.46 652.634   2
  25 -20   0 3293.53 639.837   1
   5  20   0 3037.88 602.545   2
 -20  -5   3 6125.94 841.514   3
 -25   5   3 5740.90 869.153   3
  -5  25   3 8115.63 1102.24   4
   5  20   3 4610.67 856.590   4
  -5  25   3 5549.66 807.045   2
  25 -20   3 6557.31 708.184   1
   5  20   3 6539.87 950.343   2
  -5  25   6 1887.13 628.726   2
   5  20   6 2451.20 734.022   2
  -5  25   6 1291.19 644.409   4
   5  20   6 2455.47 821.371   4
   6  19  -7 422.908 650.712   1
  -6  25  -7 1128.01 626.491   4
  19 -25  -7 1377.45 598.659   1
   6  19  -7 480.939 538.154   4
  -6  25  -7 1536.93 701.705   2
   6  19  -7 974.961 522.948   2
  25 -19  -7 1026.85 696.371   1
 -19  -6  -7 143.159 593.901   3
 -25   6  -7 1035.43 554.472   3
  25 -19  -4 4278.68 849.740   1
  -6  25  -4 4054.25 819.343   4
   6  19  -4 4504.27 837.996   4
  -6  25  -4 2969.54 725.674   2
   6  19  -4 2662.68 652.612   2
 -25   6  -4 3866.53 699.555   3
 -19  -6  -4 3082.72 641.227   3
  19 -25  -4 4156.98 794.339   1
 -19  -6  -1-134.566 342.466   3
 -25   6  -1 384.948 431.225   3
  25 -19  -1 357.176 490.267   1
  -6  25  -1 111.943 527.044   4
   6  19  -1-212.985 484.478   4
  -6  25  -1 447.053 415.633   2
   6  19  -1 412.574 302.039   3
  19 -25  -1 1008.51 511.909   1
   6  19  -1 968.403 501.764   2
 -19  -6   2 5432.14 706.621   3
 -25   6   2 5732.24 842.105   3
  25 -19   2 4462.75 620.480   1
  -6  25   2 6493.48 990.915   4
   6  19   2 5195.76 884.703   4
  19 -25   2 5999.90 743.466   1
  -6  25   2 4971.42 768.691   2
   6  19   2 5293.21 850.829   2
   6  19   5 428.401 494.681   2
  -6  25   5 696.547 529.312   4
   6  19   5 424.149 592.625   4
  -6  25   5 1099.40 588.428   2
   6  19   8 3995.26 1033.33   2
  -6  25   8 6693.95 1063.16   4
   6  19   8 3496.32 881.641   4
  -6  25   8 7047.80 1064.30   2
   7  18  -8 2601.12 1038.40   1
  -7  25  -8 1750.28 698.554   4
  18 -25  -8 748.068 592.545   1
  -7  25  -8 1276.74 655.840   2
  25 -18  -8 1308.53 686.418   1
   7  18  -8 2285.11 658.593   2
 -18  -7  -8 889.286 713.534   3
 -25   7  -8 1056.19 656.785   3
  25 -18  -5 6690.62 1008.87   1
  -7  25  -5 7477.37 1005.70   4
  -7  25  -5 7604.19 1063.64   2
   7  18  -5 8411.23 1035.67   4
   7  18  -5 7482.92 935.826   2
 -18  -7  -5 7168.02 964.696   3
 -25   7  -5 6789.45 912.035   3
  18 -25  -5 7419.83 988.900   1
 -18  -7  -2 1027.62 415.203   3
 -25   7  -2 1521.71 510.315   3
  -7  25  -2 235.235 486.071   4
  18 -25  -2 1340.66 531.278   1
   7  18  -2 2478.60 720.860   4
  -7  25  -2 808.784 523.740   2
   7  18  -2 708.880 273.467   3
   7  18  -2 491.408 401.648   2
  25 -18  -2 1334.60 537.642   1
  18 -25   1 2465.71 599.422   1
 -25   7   1 3486.56 661.072   3
 -18  -7   1 2058.60 515.109   3
  -7  25   1 3063.64 732.867   4
   7  18   1 3364.61 791.574   4
   7  18   1 2401.78 570.322   3
  -7  25   1 2700.93 629.849   2
   7  18   1 4141.53 732.396   2
  25 -18   1 2799.15 575.257   1
   7  18   4 170.507 495.698   2
  25 -18   4 648.701 341.073   1
 -25   7   4 655.566 661.719   3
  -7  25   4 486.744 525.965   4
   7  18   4 376.660 557.313   4
  -7  25   4 636.035 432.277   2
  -7  25   7 3022.85 707.083   2
   7  18   7 1957.68 830.886   2
  -7  25   7 3133.01 791.423   4
   7  18   7 569.662 604.618   4
  -8  25  -6 756.857 526.761   4
  -8  25  -6 2386.52 759.103   2
   8  17  -6 1267.47 598.478   4
  25 -17  -6 1891.83 761.697   1
  17 -25  -6 2057.32 689.249   1
   8  17  -6 1174.51 450.619   2
 -17  -8  -6 2993.53 756.025   3
 -25   8  -6 1993.72 641.926   3
  17 -25  -3 4607.00 747.883   1
  25 -17  -3 4372.11 813.526   1
  -8  25  -3 2991.76 714.467   4
  -8  25  -3 6059.84 916.839   2
   8  17  -3 5900.01 899.918   4
   8  17  -3 4882.59 769.768   2
 -17  -8  -3 3674.80 671.125   3
 -25   8  -3 3209.98 664.916   3
 -25   8   0 3540.44 623.671   3
  -8  25   0 4690.49 809.724   4
   8  17   0 3990.84 864.983   4
  25 -17   0 4301.61 669.631   1
  -8  25   0 3539.75 686.167   2
   8  17   0 2745.17 541.181   3
  17 -25   0 4064.78 644.895   1
   8  17   0 4217.05 699.580   2
 -17  -8   0 3213.00 524.948   3
 -17  -8   3 8446.72 839.736   3
 -25   8   3 8285.43 1008.64   3
  -8  25   3 7264.64 1024.32   4
  25 -17   3 9022.17 760.106   1
   8  17   3 8880.28 1136.76   4
  -8  25   3 7021.31 844.138   2
 -25   8   3 5827.40 591.140   2
  17 -25   3 5132.72 564.419   3
   8  17   3 7298.63 948.914   2
   8  17   6 2059.93 747.238   2
  -8  25   6 1480.85 679.510   4
   8  17   6-84.2364 551.019   4
  -8  25   6 247.471 463.954   2
   9  16  -7 255.991 682.925   1
  -9  25  -7 834.507 612.494   4
  -9  25  -7 725.720 657.554   2
  25 -16  -7 1735.02 741.205   1
   9  16  -7-1.49428 388.250   4
   9  16  -7-32.6368 402.063   2
  16 -25  -7 945.643 594.936   1
 -16  -9  -7 522.855 607.993   3
 -25   9  -7 598.201 562.124   3
 -25   9  -4 1125.72 471.774   3
  16 -25  -4 1466.69 555.976   1
  -9  25  -4 3363.11 729.621   4
  -9  25  -4 1285.52 608.140   2
   9  16  -4 1672.14 563.383   4
  25 -16  -4 1970.23 680.144   1
   9  16  -4 1326.45 530.455   2
 -16  -9  -4 1907.06 568.070   3
 -16  -9  -1 2757.74 496.545   3
 -25   9  -1 1282.69 475.131   3
  25 -16  -1 3337.30 640.760   1
  -9  25  -1 2687.44 702.370   4
   9  16  -1 2760.83 696.387   4
  -9  25  -1 2687.21 658.349   2
  16 -25  -1 4467.03 733.752   1
   9  16  -1 2368.56 448.012   3
   9  16  -1 2394.64 638.856   2
 -16  -9   2 8160.80 810.804   3
 -25   9   2 6817.40 870.211   3
  -9  25   2 6412.90 958.760   4
  16 -25   2 6406.54 794.540   1
   9  16   2 4422.43 854.125   4
  -9  25   2 8756.38 944.182   2
  16 -25   2 5440.96 542.573   3
 -25   9   2 5181.34 637.664   2
   9  16   2 6685.89 898.922   2
  25 -16   2 7985.64 739.224   1
   9  16   5 288.767 550.960   2
  -9  25   5 657.420 564.424   4
   9  16   5 986.256 636.870   4
  -9  25   5 629.104 487.768   2
  -9  25   8 2090.91 694.168   2
   9  16   8 2359.63 785.793   2
  -9  25   8 3470.91 781.590   4
   9  16   8 2413.67 806.391   4
 -10  25  -8 972.282 590.956   4
  10  15  -8 982.760 893.955   1
  25 -15  -8 1619.83 785.529   1
 -10  25  -8 420.275 576.571   2
  10  15  -8 248.383 492.362   2
  15 -25  -8 557.057 649.900   1
 -15 -10  -8 567.247 634.741   3
 -25  10  -8 1249.62 669.446   3
  15 -25  -5 3365.39 718.441   1
 -10  25  -5 1527.18 607.583   4
  10  15  -5 2051.92 750.910   1
  25 -15  -5 3074.82 782.611   1
 -10  25  -5 3171.29 800.617   2
  10  15  -5 1342.00 523.458   4
  10  15  -5 1707.51 506.597   2
 -15 -10  -5 3253.29 723.603   3
 -25  10  -5 1916.70 536.081   3
  15 -25  -2 560.001 415.449   1
 -25  10  -2 1083.84 424.666   3
 -25  10  -2 1042.35 510.969   1
  10  15  -2 1732.22 601.968   4
 -10  25  -2 599.484 489.887   2
  25 -15  -2 1548.49 617.900   1
 -10  25  -2 2065.36 681.150   4
  10  15  -2 865.961 375.750   3
  10  15  -2 1670.96 520.947   2
 -15 -10  -2 381.719 340.945   3
 -15 -10   1 2142.71 462.372   3
 -25  10   1 2322.45 552.354   3
  15 -25   1 2204.27 537.601   1
 -10  25   1 1745.33 699.078   4
  25 -15   1 2776.81 551.357   1
  10  15   1 2497.35 693.611   4
 -10  25   1 2409.46 563.187   2
  15 -25   1 2086.57 374.299   3
  10  15   1 2723.92 633.796   2
  10  15   4 2214.92 735.513   2
 -10  25   4 2971.55 754.362   4
  25 -15   4 1780.13 366.140   1
  10  15   4 1956.68 705.311   4
 -10  25   4 1735.49 474.909   2
 -10  25   7 570.073 497.524   2
  10  15   7 1045.46 666.037   2
 -25  10   7 814.609 466.886   4
 -10  25   7 1592.78 659.687   4
  10  15   7 947.104 680.998   4
  25 -14  -9 3075.99 941.798   1
 -11  25  -9 6463.60 1175.93   2
 -11  25  -9 4796.89 880.099   4
  11  14  -9 5567.10 1377.28   1
  11  14  -9 5083.02 800.437   2
  14 -25  -9 6553.98 1356.96   3
 -14 -11  -9 5928.46 1088.73   3
 -25  11  -9 5593.60 943.182   3
  14 -25  -9 4068.99 894.275   1
  14 -25  -6 2860.60 788.130   1
 -11  25  -6 1961.24 644.958   4
  11  14  -6 2535.19 852.800   1
  25 -14  -6 1814.51 773.153   1
  11  14  -6 3366.47 702.583   4
 -11  25  -6 3648.49 870.952   2
  11  14  -6 1590.17 515.771   2
 -14 -11  -6 2087.21 705.009   3
 -25  11  -6 3263.29 703.046   3
  25 -14  -3 15835.8 1305.19   1
 -25  11  -3 13385.5 990.415   1
 -11  25  -3 12964.1 1271.17   4
 -11  25  -3 13332.4 1247.61   2
  14 -25  -3 17227.8 1289.97   1
  11  14  -3 17242.8 1376.89   4
  11  14  -3 14882.7 1138.77   2
 -14 -11  -3 13869.1 1018.86   3
 -25  11  -3 14611.7 1097.38   3
 -25  11   0 1478.21 487.425   3
  14 -25   0 1055.03 386.208   1
 -11  25   0 1547.50 589.104   4
  11  14   0 2564.87 656.666   4
 -11  25   0 1591.62 563.470   2
  25 -14   0 1237.63 425.279   1
  11  14   0 1169.04 480.932   2
 -14 -11   0 2522.75 460.924   3
  14 -25   0 1198.53 278.059   3
  25 -14   3 7363.89 635.891   1
 -14 -11   3 7162.50 731.733   3
 -25  11   3 6784.76 929.852   3
 -11  25   3 6612.99 979.832   4
  11  14   3 8698.98 1102.60   4
 -11  25   3 8069.62 862.559   2
  14 -25   3 5362.07 439.100   3
 -25  11   3 5648.39 537.495   2
  11  14   3 8109.04 1016.60   2
  11  14   6 4060.21 867.411   2
 -25  11   6 3302.63 667.502   4
 -11  25   6 2292.27 693.691   4
  11  14   6 3783.98 902.898   4
 -11  25   6 2555.61 599.547   2
 -11  25   9 4692.59 849.874   4
  11  14   9 5519.08 1046.18   4
  13 -25  -7 2683.24 674.849   1
  25 -13  -7 2600.26 841.640   1
 -12  25  -7 1070.22 552.589   4
  12  13  -7 3445.95 1020.14   1
 -12  25  -7 1658.90 693.923   2
  12  13  -7 2671.02 610.244   4
  12  13  -7 3156.69 653.752   2
 -13 -12  -7 3073.93 829.852   3
 -25  12  -7 1478.06 543.166   3
 -25  12  -4 2580.01 592.396   3
  12  13  -4 2764.46 852.723   1
 -12  25  -4 1351.75 587.138   4
  25 -13  -4 3432.59 776.075   1
 -12  25  -4 1635.22 582.821   2
  12  13  -4 3003.05 687.176   4
  13 -25  -4 2792.79 709.552   1
  12  13  -4 2099.49 549.818   2
 -13 -12  -4 2188.85 592.113   3
 -13 -12  -1 395.568 310.404   3
  13 -25  -1 646.235 270.798   3
 -25  12  -1 1394.20 442.010   3
 -12  25  -1 1187.41 507.956   4
  25 -13  -1 1155.88 486.669   1
 -12  25  -1 1293.37 550.164   2
  12  13  -1 1269.18 547.525   4
  13 -25  -1 1061.46 514.213   1
  12  13  -1 262.577 393.466   2
 -25  12   2 2213.49 439.151   2
 -13 -12   2 3707.19 526.018   3
 -25  12   2 4760.10 745.722   3
 -12  25   2 3958.39 798.841   4
  12  13   2 4116.97 835.043   4
 -12  25   2 3299.11 625.406   2
  25 -13   2 2986.73 502.605   1
  13 -25   2 2255.29 268.317   3
  12  13   2 4609.68 785.064   2
  12  13   5 581.182 531.473   2
 -12  25   5-280.739 541.555   4
  12  13   5-1075.07 658.789   4
 -12  25   5-388.787 349.339   2
 -12  25   8 1021.79 549.758   2
 -12  25   8 1183.32 608.088   4
  12  13   8 439.516 580.945   4
  12 -25  -8 1066.16 645.641   1
  25 -12  -8 333.358 637.001   1
 -13  25  -8 1976.25 671.881   4
 -13  25  -8 1575.91 791.474   2
  13  12  -8 1603.95 953.685   1
  12 -25  -8 1786.74 997.887   3
  13  12  -8 1885.05 562.518   2
 -12 -13  -8 1334.88 691.833   3
 -25  13  -8 702.698 575.128   3
 -25  13  -5-30.4899 431.540   3
 -13  25  -5 178.486 145.230   3
  25 -12  -5 251.524 572.071   1
 -13  25  -5 419.813 488.957   4
  13  12  -5 77.4208 587.157   1
 -13  25  -5-23.8663 464.821   2
  13  12  -5 82.0768 392.147   4
  12 -25  -5 159.451 430.721   1
  13  12  -5 273.908 374.762   2
 -12 -13  -5-491.713 475.456   3
 -25  13  -2 2256.28 522.510   3
  12 -25  -2 1809.46 366.545   3
 -13  25  -2 1485.80 628.734   4
  25 -12  -2 2867.89 620.109   1
 -13  25  -2 3301.89 728.577   2
  13  12  -2 3850.34 796.897   4
  12 -25  -2 1697.03 545.070   1
  13  12  -2 2580.06 560.132   2
 -12 -13  -2 1835.97 437.018   3
  13  12   1 1492.89 558.852   2
 -12 -13   1 714.653 297.254   3
 -25  13   1 972.253 453.325   3
 -13  25   1 1505.79 616.486   4
  13  12   1 2320.55 662.323   4
 -13  25   1 925.632 451.742   2
  25 -12   1 1565.80 449.525   1
  12 -25   1 703.166 200.210   3
  13  12   4 1445.79 655.749   2
 -25  13   4 836.064 204.865   2
 -13  25   4 2239.65 623.289   4
  25 -12   4 2104.46 333.056   1
  13  12   4 2722.66 733.616   4
 -13  25   4 1855.30 487.665   2
 -13  25   7 1642.32 598.120   2
  13  12   7 1716.07 764.112   2
 -25  13   7 1422.34 495.404   4
 -13  25   7 2002.76 692.002   4
  13  12   7 2148.65 743.250   4
  25 -11  -9 5286.48 1101.47   1
 -14  25  -9 3382.55 853.154   4
  14  11  -9 6577.56 1292.44   1
  11 -25  -9 4672.22 1196.60   3
  11 -25  -9 4634.83 882.355   1
 -14  25  -9 6702.87 1206.83   2
 -11 -14  -9 3021.34 875.069   3
 -25  14  -9 5989.35 960.862   3
  25 -11  -6 3848.85 945.059   1
 -14  25  -6 4454.92 828.180   4
  11 -25  -6 3687.53 755.984   1
 -14  25  -6 1600.16 708.014   2
  14  11  -6 2599.68 861.803   1
  14  11  -6 3094.63 636.720   4
  14  11  -6 4106.38 660.065   2
 -11 -14  -6 2790.65 690.320   3
 -25  14  -6 3096.15 684.349   3
  14  11  -3 5859.38 989.256   1
 -14  25  -3 6665.67 938.340   4
 -14  25  -3 6936.93 959.836   2
  14  11  -3 5834.75 883.036   4
  14  11  -3 5809.10 776.427   2
 -11 -14  -3 6669.06 731.037   3
  11 -25  -3 6251.79 829.216   1
  25 -11  -3 6424.11 952.768   1
 -25  14  -3 5600.10 747.975   3
  14  11   0 843.975 462.405   2
 -11 -14   0 1633.42 381.510   3
 -14  25   0 1686.84 611.406   4
  11 -25   0 713.143 397.350   1
  25 -11   0 1124.58 449.748   1
 -14  25   0 1952.43 536.080   2
  14  11   0 1187.97 487.088   4
  11 -25   0 1400.17 232.687   3
 -25  14   3 16033.4 1305.69   3
 -25  14   3 13002.9 842.423   2
 -14  25   3 17778.2 1419.60   4
  14  11   3 17355.8 1477.29   4
 -14  25   3 14632.3 1099.93   2
  25 -11   3 13275.8 785.132   1
 -25  14   3 12966.7 768.707   2
  14  11   3 15654.4 1367.33   2
  14  11   6 3190.37 861.611   2
 -25  14   6 1153.77 515.007   4
 -14  25   6 2596.81 662.424   4
  14  11   6 2561.65 758.512   4
 -14  25   6 2224.91 581.461   2
 -14  25   9 6238.86 948.007   4
  25 -10  -7 195.348 633.788   1
 -15  25  -7 1712.27 670.476   4
 -15  25  -7 1115.53 725.650   2
  15  10  -7-925.955 739.797   1
  15  10  -7 885.250 455.787   4
  10 -25  -7 1639.40 842.308   3
  10 -25  -7 914.000 589.827   1
 -10 -15  -7-93.9480 569.720   3
  15  10  -7 749.679 408.964   2
 -25  15  -7 1335.95 562.590   3
 -25  15  -4 2786.87 624.222   3
 -15  25  -4 2667.28 340.325   3
  25 -10  -4 2746.07 767.689   1
 -15  25  -4 3076.25 716.626   4
  15  10  -4 1041.05 614.675   1
  10 -25  -4 2666.97 633.020   1
 -15  25  -4 3085.07 763.724   2
  15  10  -4 2364.67 577.637   4
 -10 -15  -4 2860.35 641.266   3
  15  10  -4 2109.06 495.983   2
  10 -25  -1 2175.87 291.353   3
 -25  15  -1 2967.25 582.250   3
  15  10  -1 3554.37 731.104   1
 -15  25  -1 2601.79 726.266   4
 -15  25  -1 4208.77 772.792   2
  15  10  -1 2951.67 707.908   4
  10 -25  -1 3871.93 708.068   1
  15  10  -1 3506.21 640.523   2
  25 -10  -1 4679.40 746.475   1
 -10 -15  -1 2472.84 414.865   3
  15  10   2 1129.33 525.650   2
 -25  15   2 486.598 378.831   2
 -10 -15   2 1022.78 321.005   3
 -25  15   2 221.781 458.550   3
 -25  15   2 689.655 374.522   2
 -15  25   2-286.565 461.653   4
  15  10   2 1045.94 547.308   4
 -15  25   2 402.533 414.941   2
  25 -10   2 302.269 306.644   1
  15  10   5 2694.73 770.576   2
 -25  15   5 2459.61 646.942   4
 -15  25   5 2644.76 726.849   4
  15  10   5 1762.27 628.610   4
 -15  25   5 3013.34 559.969   2
 -15  25   8 518.623 496.557   4
  25  -9  -8 3734.20 961.987   1
 -16  25  -8 397.060 525.432   4
 -16  25  -8 3096.91 998.638   2
  16   9  -8 2946.08 1004.37   1
   9 -25  -8 1984.15 916.104   3
   9 -25  -8 2414.42 674.649   1
  -9 -16  -8 1672.07 740.319   3
 -25  16  -8 1267.65 609.790   3
 -25  16  -5-56.5987 400.452   3
 -16  25  -5 97.3609 238.162   3
  25  -9  -5 424.780 612.558   1
 -16  25  -5 57.9266 473.536   4
   9 -25  -5 55.6578 418.899   1
 -16  25  -5 1236.87 670.958   2
  16   9  -5-462.066 720.496   1
  16   9  -5-303.649 414.944   4
   9 -25  -5 1090.70 610.000   3
  -9 -16  -5-395.862 464.481   3
  16   9  -5 266.518 378.954   2
 -25  16  -2 7066.67 790.912   3
   9 -25  -2 5376.21 526.911   3
  16   9  -2 7446.00 1044.02   1
 -16  25  -2 5620.83 874.642   4
 -16  25  -2 6791.29 932.998   2
   9 -25  -2 7091.72 858.044   1
  16   9  -2 7993.79 1007.20   4
   9 -25  -2 7361.97 693.957   3
  25  -9  -2 7173.59 924.355   1
  16   9  -2 6478.84 812.007   2
  -9 -16  -2 6164.16 630.511   3
  16   9   1 2155.08 592.060   2
  -9 -16   1 2144.19 352.504   3
 -25  16   1 2258.91 562.462   3
 -25  16   1 3016.72 618.207   2
 -16  25   1 1481.52 643.936   4
  25  -9   1 1995.54 495.628   1
 -16  25   1 2432.65 635.208   2
  16   9   1 1993.87 703.381   4
  25  -9   4 780.609 208.135   1
  16   9   4 1495.75 630.865   2
 -25  16   4 2029.14 620.345   4
 -16  25   4 1355.14 582.728   4
 -25  16   4 1210.50 235.050   2
  16   9   4 2414.51 735.060   4
 -16  25   4 1465.23 467.793   2
 -16  25   7 562.467 467.953   2
 -25  16   7 193.459 416.331   4
 -16  25   7 939.543 553.147   4
  16   9   7 1799.31 689.642   4
 -25  17  -6 1604.38 565.447   3
 -17  25  -6 1070.37 357.991   3
  25  -8  -6 960.321 741.592   1
 -17  25  -6 1843.47 711.759   4
 -17  25  -6 926.045 668.694   2
   8 -25  -6 1149.16 530.594   1
  17   8  -6 1175.17 831.556   1
   8 -25  -6 1194.45 628.711   3
  -8 -17  -6 633.772 545.143   3
  17   8  -6 1117.88 449.129   2
 -17  25  -3 8681.22 641.666   3
  17   8  -3 8893.51 1187.78   1
 -17  25  -3 9667.68 1137.07   4
 -17  25  -3 10084.0 1153.24   2
   8 -25  -3 10580.2 1078.32   1
  17   8  -3 9212.24 1048.28   4
   8 -25  -3 9926.58 879.839   3
  25  -8  -3 8625.70 1082.53   1
  -8 -17  -3 8957.34 786.691   3
  17   8  -3 9401.66 897.123   2
 -25  17  -3 9264.07 857.168   3
 -25  17   0 4085.78 681.142   3
 -25  17   0 4532.20 731.748   2
  17   8   0 6993.66 978.125   1
 -17  25   0 5270.71 895.951   4
 -17  25   0 4440.07 787.854   2
  17   8   0 5389.13 893.807   4
  25  -8   0 3680.04 666.811   1
   8 -25   0 3858.14 229.444   3
  17   8   0 4361.42 780.651   2
  -8 -17   0 3893.30 434.428   3
  17   8   3 4908.44 905.046   2
 -25  17   3 2576.70 451.667   2
  17   8   3 5998.15 731.300   1
 -25  17   3 3625.00 753.260   4
 -25  17   3 3919.02 503.108   2
  25  -8   3 4059.58 445.304   1
 -17  25   3 3050.65 705.344   4
 -17  25   3 4433.38 643.034   2
  17   8   3 4497.21 880.900   4
 -25  17   6 1175.07 540.994   4
 -17  25   6 1617.49 641.951   4
  17   8   6 1164.75 668.049   4
 -17  25   6 1800.68 492.768   2
 -18  25  -7 2023.72 439.960   3
  25  -7  -7 1067.78 783.638   1
 -18  25  -7 3361.54 790.414   4
 -18  25  -7 2372.80 825.563   2
   7 -25  -7 2489.02 660.277   1
  18   7  -7 3127.78 955.823   1
   7 -25  -7 1827.09 842.816   3
  -7 -18  -7 3647.21 786.266   3
  18   7  -7 2127.41 487.295   2
 -25  18  -7 3140.48 690.567   3
  18   7  -4 902.139 456.410   2
  25  -7  -4 1414.28 634.340   1
 -25  18  -4 905.954 453.963   3
 -18  25  -4 1093.16 354.661   3
   7 -25  -4-134.137 388.881   1
 -18  25  -4 1258.38 580.442   4
 -18  25  -4-274.398 530.980   2
  18   7  -4-221.232 633.574   1
  18   7  -4 1021.50 495.956   4
   7 -25  -4 1118.34 535.596   3
  -7 -18  -4 245.385 416.760   3
   7 -25  -1 2892.06 301.612   3
  25  -7  -1 3080.53 699.321   1
 -25  18  -1 2770.54 561.895   3
 -25  18  -1 2817.13 687.735   2
 -18  25  -1 3209.85 745.304   4
 -18  25  -1 4048.00 765.219   2
  18   7  -1 3651.94 833.973   1
  18   7  -1 1803.29 592.402   4
   7 -25  -1 3162.42 388.073   3
  -7 -18  -1 2402.64 390.287   3
  18   7  -1 3099.28 654.732   2
  18   7   2 438.268 499.989   2
 -25  18   2 803.660 516.967   3
 -25  18   2 135.795 559.088   4
 -18  25   2 1264.94 618.833   4
 -25  18   2 894.989 418.256   2
  18   7   2 1177.30 524.480   1
  25  -7   2 981.660 376.910   1
 -18  25   2 972.093 453.102   2
  18   7   2 204.344 557.859   4
 -25  18   5 8870.43 1048.74   4
  18   7   5 6942.84 602.352   1
 -18  25   5 7507.04 1043.59   4
  18   7   5 7714.66 1124.15   4
 -18  25   5 8092.48 784.875   2
 -18  25   8 1919.22 653.886   4
  25  -6  -8 3317.50 988.446   1
 -25  19  -8 5606.24 1062.53   4
 -19  25  -8 2782.57 835.425   4
 -19  25  -8 4625.53 1036.10   2
  19   6  -8 4548.84 1112.16   1
   6 -25  -8 6211.24 1137.84   3
  -6 -19  -8 5546.81 1053.32   3
 -25  19  -8 4957.67 836.644   3
   6 -25  -8 6023.92 952.581   1
  25  -6  -5-321.950 621.192   1
 -25  19  -5 872.489 484.813   3
  19   6  -5 1.20153 356.197   2
 -19  25  -5 683.449 336.379   3
   6 -25  -5 229.767 442.976   1
 -19  25  -5 1779.54 717.008   4
 -19  25  -5 2389.53 826.502   2
  19   6  -5 215.967 715.210   1
   6 -25  -5 1299.10 620.256   3
  -6 -19  -5 1026.86 588.939   3
  25  -6  -2 4205.70 805.964   1
 -25  19  -2 3739.55 611.464   3
 -19  25  -2 4282.73 555.268   3
   6 -25  -2 3317.18 449.380   3
 -19  25  -2 4190.02 875.833   4
 -25  19  -2 4426.65 883.834   2
 -19  25  -2 4502.76 819.846   2
  19   6  -2 4211.93 854.735   1
  19   6  -2 4131.38 758.203   4
   6 -25  -2 4351.03 534.279   3
  -6 -19  -2 3857.80 488.693   3
  19   6  -2 3798.40 625.420   2
  19   6   1 23.8521 412.776   2
  -6 -19   1 4.36656 179.980   3
 -25  19   1 391.553 411.257   3
  25  -6   1 204.561 359.873   1
 -19  25   1 245.789 483.590   4
 -25  19   1-534.889 456.963   2
  19   6   1-24.7448 436.523   1
 -19  25   1-334.990 459.672   2
  19   6   1 505.304 639.223   4
  19   6   4 4212.06 882.672   2
 -25  19   4 3757.46 831.492   4
  19   6   4 3420.47 568.846   1
 -19  25   4 4365.97 817.859   4
 -25  19   4 2802.38 374.962   2
 -19  25   4 3565.71 570.154   2
  19   6   4 4759.22 947.062   4
  25  -6   4 2344.83 256.305   1
 -25  19   7 176.567 445.164   4
 -19  25   7 196.629 509.859   4
 -25  20  -6 1655.58 527.550   3
 -20  25  -6 952.356 388.354   3
  20   5  -6 1184.29 412.580   2
 -25  20  -6 593.742 651.575   4
 -25  20  -6 2886.55 812.456   2
   5 -25  -6 1909.72 635.151   1
 -20  25  -6 585.315 603.877   2
 -20  25  -6 1026.20 623.210   4
  20   5  -6 603.697 708.136   1
   5 -25  -6 959.246 659.579   3
  -5 -20  -6 2226.58 659.658   3
  25  -5  -6 1098.06 696.317   1
 -25  20  -3 6308.76 740.774   3
 -20  25  -3 7616.94 708.234   3
 -25  20  -3 6135.39 991.158   4
 -25  20  -3 5801.50 992.585   2
 -20  25  -3 6295.08 1025.98   4
 -20  25  -3 9323.21 1181.32   2
  20   5  -3 6832.08 1029.08   1
  25  -5  -3 7429.29 1039.30   1
   5 -25  -3 7493.58 748.172   3
  -5 -20  -3 6910.38 703.242   3
  20   5  -3 6803.23 796.305   2
  25  -5   0 3067.52 642.188   1
  20   5   0 2871.48 628.307   2
 -25  20   0 2669.89 584.534   3
 -25  20   0 2696.68 649.727   2
 -25  20   0 3227.20 772.176   4
 -20  25   0 2125.34 659.538   4
 -20  25   0 2610.18 638.946   2
  20   5   0 3141.37 702.810   1
  20   5   0 3642.18 758.553   4
  -5 -20   0 2667.87 322.600   3
  25  -5   3 3342.30 461.406   1
  20   5   3 6767.79 952.543   2
 -25  20   3 5279.34 924.538   4
 -20  25   3 4414.84 864.651   4
  20   5   3 5019.87 666.102   1
 -25  20   3 5044.51 587.918   2
 -20  25   3 5659.24 707.065   2
 -25  20   6 184.649 461.508   4
 -20  25   6 434.064 487.607   4
 -20  25   6-38.9151 348.168   2
 -21  25  -7 8436.10 1324.26   2
 -25  21  -7 4581.38 948.685   4
 -25  21  -7 5826.19 1148.92   2
 -21  25  -7 5424.96 984.581   4
   4 -25  -7 8598.06 1033.95   1
  21   4  -7 7125.18 1268.55   1
  25  -4  -7 6509.20 1218.40   1
   4 -25  -7 5619.72 1012.91   3
  -4 -21  -7 4403.80 893.700   3
 -25  21  -7 5788.27 789.868   3
 -21  25  -7 5669.88 686.499   3
 -25  21  -4 2541.46 558.840   3
  21   4  -4 2206.95 543.121   2
 -21  25  -4 2060.92 456.014   3
   4 -25  -4 1321.92 500.815   1
 -25  21  -4 2573.68 771.842   4
 -25  21  -4 1328.12 715.494   2
 -21  25  -4 2881.89 782.549   4
 -21  25  -4 2868.85 862.573   2
  21   4  -4 2101.74 770.435   1
   4 -25  -4 1863.82 535.349   3
  -4 -21  -4 1648.23 570.126   3
  25  -4  -4 3100.24 813.883   1
  21   4  -1 6418.75 841.895   2
 -25  21  -1 7374.57 820.072   3
 -21  25  -1 7692.18 781.710   3
 -25  21  -1 5611.30 938.944   4
 -25  21  -1 7099.48 972.921   2
 -21  25  -1 6014.10 991.284   4
  21   4  -1 6906.91 1027.17   1
 -21  25  -1 8316.78 1019.19   2
  25  -4  -1 5318.95 810.677   1
   4 -25  -1 5758.20 400.380   3
  -4 -21  -1 6544.88 508.198   3
  25  -4   2 844.083 384.655   1
  21   4   2-228.809 523.722   2
 -25  21   2 624.880 535.321   4
 -21  25   2-58.1107 550.107   4
 -25  21   2 593.984 386.896   2
 -21  25   2 590.263 431.777   2
  21   4   2 439.894 463.667   1
 -25  21   5 6087.56 915.160   4
 -21  25   5 5747.59 969.948   4
 -21  25   5 4472.43 602.107   2
 -21  25   8 1021.19 654.965   4
 -25  22  -8 3144.83 717.624   3
 -22  25  -8 2683.11 615.109   3
 -25  22  -8 2140.89 766.270   4
 -25  22  -8 547.476 793.390   2
 -22  25  -8 2707.00 874.494   4
 -22  25  -8 3598.44 1067.07   2
   3 -25  -8 5110.72 825.203   1
   3 -25  -8 1562.25 813.606   3
  22   3  -8 4121.29 1100.29   1
  -3 -22  -8 4547.50 952.851   3
  25  -3  -8 1329.75 934.770   1
 -25  22  -5 754.203 477.704   3
 -22  25  -5 525.836 399.674   3
  22   3  -5 74.6122 343.046   2
 -25  22  -5 192.572 579.655   4
 -25  22  -5-590.818 706.125   2
 -22  25  -5-652.106 608.743   4
 -22  25  -5 2206.45 781.557   2
  22   3  -5-344.512 727.559   1
   3 -25  -5 141.276 428.220   1
   3 -25  -5-28.1065 470.015   3
  -3 -22  -5 698.283 564.036   3
  25  -3  -5-465.762 634.346   1
  22   3  -2 3497.27 676.960   2
 -25  22  -2 3295.46 601.556   3
 -22  25  -2 4046.83 586.575   3
 -25  22  -2 5073.62 913.528   2
 -25  22  -2 3089.53 822.144   4
 -22  25  -2 4799.73 897.445   2
 -22  25  -2 3492.56 827.097   4
  22   3  -2 4888.37 900.543   1
   3 -25  -2 3363.86 469.792   3
  -3 -22  -2 3389.89 493.161   3
  25  -3  -2 2277.68 708.932   1
  22   3   1 1338.74 552.549   2
 -25  22   1 1348.85 599.658   3
 -25  22   1 1383.60 604.463   4
 -22  25   1-341.928 585.030   4
 -25  22   1 1355.03 527.416   2
 -22  25   1 827.766 469.662   2
  22   3   1 1206.32 517.605   1
  25  -3   1 342.562 421.932   1
 -25  22   4 4262.62 904.711   4
 -22  25   4 4942.86 894.709   4
 -25  22   4 5125.49 550.186   2
  22   3   4 3802.28 493.160   1
 -22  25   4 5698.84 662.522   2
 -25  22   7 820.595 564.336   4
 -22  25   7 495.687 600.274   4
 -25  23  -6 74.4886 393.645   3
 -23  25  -6 508.667 396.781   3
 -25  23  -6 776.484 746.898   4
 -23  25  -6-1268.11 667.305   4
 -25  23  -6-982.010 745.576   2
 -23  25  -6 1756.82 888.208   2
  23   2  -6 693.009 741.594   1
   2 -25  -6-85.3615 538.399   3
  -2 -23  -6 221.072 556.057   3
  25  -2  -6 662.096 857.185   1
 -25  23  -3 3995.68 623.707   3
  23   2  -3 4938.96 706.101   2
 -23  25  -3 4783.11 643.408   3
 -23  25  -3 5683.31 1007.56   4
 -25  23  -3 4089.75 881.312   4
 -25  23  -3 3283.48 846.834   2
 -23  25  -3 5133.42 987.581   2
  25  -2  -3 5287.94 991.770   1
  23   2  -3 4801.52 989.561   1
   2 -25  -3 4497.79 589.131   3
  -2 -23  -3 4542.79 590.520   3
  -2 -23   0 818.057 148.660   3
 -25  23   0 1314.78 527.559   3
  23   2   0 877.353 519.262   2
 -25  23   0 1062.69 628.305   4
 -23  25   0 1226.83 527.697   4
 -25  23   0 1819.65 615.104   2
 -23  25   0 1397.62 566.086   2
  23   2   0 1210.13 620.036   1
  25  -2   0 1680.09 601.402   1
 -25  23   3 4525.78 888.323   4
 -23  25   3 3728.19 833.345   4
 -23  25   3 4737.51 676.072   2
  23   2   3 3376.12 549.813   1
 -25  23   3 2928.28 531.493   2
  25  -2   3 3179.98 506.741   1
 -25  23   6-545.171 597.696   4
 -23  25   6 197.658 510.175   4
 -25  24  -7 3802.67 710.395   3
 -25  24  -7 3155.12 888.994   4
 -25  24  -7 2537.37 988.831   2
 -24  25  -7 3452.04 880.928   4
   1 -25  -7 4877.77 938.105   3
  -1 -24  -7 4997.16 928.828   3
  24   1  -7 3884.14 1052.73   1
  25  -1  -7 5127.76 1182.89   1
 -24  25  -7 4234.53 657.907   3
 -24  25  -7 4639.07 1072.97   2
 -24  25  -4 3841.12 587.034   3
  24   1  -4 2995.22 602.338   2
 -25  24  -4 3348.03 578.340   3
 -25  24  -4 4923.71 921.209   4
 -24  25  -4 1556.64 678.802   4
 -25  24  -4 2153.61 808.655   2
 -24  25  -4 3219.46 943.184   2
   1 -25  -4 3583.54 651.630   3
  24   1  -4 4113.60 953.940   1
  25  -1  -4 4770.91 977.717   1
  -1 -24  -4 2103.16 571.748   3
 -25  24  -1 8448.81 910.641   3
 -24  25  -1 10712.9 970.051   3
 -25  24  -1 7545.85 1163.56   4
 -24  25  -1 10438.6 1247.52   4
 -25  24  -1 7643.77 1074.23   2
  24   1  -1 8986.27 1082.35   1
 -24  25  -1 7900.61 1072.82   2
  25  -1  -1 7606.92 994.120   1
   1 -25  -1 7415.90 419.880   3
  -1 -24  -1 8043.37 475.289   3
 -25  24   2 1684.86 685.831   4
 -24  25   2 2177.02 749.391   4
 -25  24   2 1079.92 485.649   2
 -24  25   2 1121.13 453.977   2
  24   1   2 1059.37 481.360   1
  25  -1   2 807.619 402.624   1
 -25  24   5 5157.79 960.517   4
 -24  25   5 3364.87 791.232   4
 -25  25  -5 1268.43 466.444   3
 -25  25  -5-839.802 598.369   4
 -25  25  -5-499.370 739.509   2
  25   0  -5 165.434 732.371   1
   0 -25  -5 411.794 550.073   3
 -25  25  -2 5346.32 706.522   3
 -25  25  -2 3564.66 864.224   4
  25   0  -2 5269.08 973.263   1
 -25  25  -2 4842.52 989.878   2
   0 -25  -2 4674.18 479.190   3
 -25  25   1-148.430 464.530   2
  25   0   1 850.643 482.023   1
 -25  25   4 6259.56 1045.59   4
 -25  25   4 5179.28 633.478   2
 -25  25   7-478.183 581.041   4
  26 -26  -5-115.587 554.871   1
   0  26  -5 711.889 695.738   4
   0  26  -5 819.841 599.094   2
 -26   0  -5-151.857 539.675   3
   0  26  -2 12772.7 1424.28   4
   0  26  -2 13812.7 1307.94   2
  26 -26  -2 10695.2 1146.59   1
 -26   0  -2 11444.5 1128.24   3
  26 -26   1 506.235 440.377   1
 -26   0   1 1023.13 608.423   3
   0  26   1-57.7434 572.794   4
   0  26   1-258.142 511.121   2
 -26   0   4 11995.1 1292.10   3
   0  26   4 11563.5 1366.28   4
   0  26   4 9724.26 1176.65   2
  26 -25  -6 1459.68 763.294   1
  25 -26  -6 666.341 643.656   1
  -1  26  -6 998.504 684.961   4
   1  25  -6 739.947 642.431   4
  -1  26  -6 649.360 617.023   2
   1  25  -6 987.317 600.217   2
 -25  -1  -6 451.566 630.495   3
 -26   1  -6 1749.79 656.835   3
 -25  -1  -3 2665.66 628.191   3
 -26   1  -3 2171.82 653.201   3
  26 -25  -3 3882.62 745.021   1
  -1  26  -3 2670.11 786.425   4
   1  25  -3 2332.77 801.310   4
  25 -26  -3 2689.47 746.593   1
  -1  26  -3 3132.81 695.529   2
   1  25  -3 3793.57 816.103   2
 -26   1   0 4205.72 708.412   3
 -25  -1   0 3550.34 652.887   3
  26 -25   0 2618.34 614.311   1
  -1  26   0 1935.31 761.950   4
   1  25   0 2889.12 821.663   4
  25 -26   0 3269.73 677.364   1
  -1  26   0 2619.49 734.332   2
   1  25   0 3465.78 716.273   2
 -25  -1   3 3721.01 792.286   3
 -26   1   3 2896.42 787.161   3
  26 -25   3 4695.70 791.458   1
  -1  26   3 4125.88 929.160   4
   1  25   3 3446.51 920.140   4
  -1  26   3 3628.95 809.321   2
  25 -26   3 2354.45 597.344   1
   1  25   3 3869.70 778.270   2
  -1  26   6 428.027 575.422   2
   1  25   6-134.404 540.990   2
  -1  26   6 1453.48 763.518   4
   1  25   6 747.509 664.798   4
  26 -24  -7 900.331 734.078   1
  24 -26  -7 616.884 669.403   1
  -2  26  -7 1227.03 652.605   4
   2  24  -7 2690.28 830.445   4
  -2  26  -7 1914.70 701.923   2
   2  24  -7 1448.45 705.406   2
 -24  -2  -7 266.759 597.391   3
 -26   2  -7 1611.34 678.905   3
 -26   2  -4 1078.98 502.866   3
  26 -24  -4 2929.42 791.463   1
  -2  26  -4 2805.63 749.910   4
   2  24  -4 2588.72 761.690   4
  24 -26  -4 3367.25 778.307   1
  -2  26  -4 1805.65 682.836   2
   2  24  -4 1893.78 681.594   2
 -24  -2  -4 1986.07 630.791   3
 -26   2  -1 3274.46 655.965   3
  24 -26  -1 2950.66 661.481   1
  -2  26  -1 2363.68 752.705   4
   2  24  -1 1635.53 632.801   4
   2  24  -1 4052.96 833.128   2
  26 -24  -1 3581.63 688.599   1
  -2  26  -1 2203.81 670.869   2
 -24  -2  -1 3635.25 680.005   3
 -24  -2   2 1185.86 567.111   3
 -26   2   2 1157.17 553.008   3
  26 -24   2 1938.53 559.702   1
  -2  26   2 1173.67 686.316   4
   2  24   2 2080.99 755.484   4
  -2  26   2 943.976 536.898   2
  24 -26   2 1795.88 629.937   1
   2  24   2 1575.17 632.591   2
   2  24   5 2670.65 759.686   2
   2  24   5 5406.79 1054.00   4
  -2  26   5 3752.52 901.947   4
  -2  26   5 3651.86 802.583   2
  26 -23  -5-362.735 625.212   1
  -3  26  -5-272.809 571.291   4
   3  23  -5-323.357 575.171   4
  23 -26  -5-425.196 538.552   1
  -3  26  -5 347.491 543.751   2
   3  23  -5 165.005 547.137   2
 -23  -3  -5 167.483 497.996   3
 -26   3  -5 653.157 561.280   3
  23 -26  -2 6221.65 917.794   1
  -3  26  -2 5311.94 961.292   4
   3  23  -2 5562.30 978.137   4
  -3  26  -2 5166.37 901.812   2
   3  23  -2 6303.17 936.220   2
  26 -23  -2 6478.52 933.434   1
 -23  -3  -2 5516.94 793.321   3
 -26   3  -2 6490.25 856.993   3
 -23  -3   1 1361.83 514.574   3
 -26   3   1 1282.19 524.560   3
  26 -23   1 1824.86 505.381   1
  23 -26   1 563.245 405.411   1
  -3  26   1 2253.19 796.129   4
   3  23   1 1381.66 666.765   4
  -3  26   1 858.046 528.006   2
   3  23   1 1876.75 658.284   2
 -26   3   4 5694.87 973.727   3
 -23  -3   4 6159.08 978.137   3
  -3  26   4 5994.62 1068.47   4
   3  23   4 7480.68 1164.00   4
  -3  26   4 6959.88 959.254   2
   3  23   4 6272.85 1006.18   2
  26 -23   4 7664.56 789.250   1
  -3  26   7 29.8000 543.101   2
   3  23   7 44.4320 565.656   2
  -3  26   7 1779.06 786.608   4
   3  23   7 1150.65 743.563   4
  -4  26  -6 2597.03 777.515   4
  22 -26  -6 1425.83 703.229   1
   4  22  -6 1730.46 699.886   4
  -4  26  -6 2277.09 775.573   2
   4  22  -6 1752.27 646.412   2
  26 -22  -6 1949.66 707.915   1
 -22  -4  -6 607.702 550.754   3
 -26   4  -6 545.141 578.421   3
 -22  -4  -3 1493.72 566.114   3
 -26   4  -3 1515.99 596.924   3
  26 -22  -3 1828.80 648.985   1
  -4  26  -3 1772.71 678.084   4
   4  22  -3 3285.02 821.040   4
  -4  26  -3 2471.12 712.638   2
   4  22  -3 2749.14 708.781   2
  22 -26  -3 1641.37 691.625   1
 -22  -4   0 8769.91 897.092   3
 -26   4   0 7012.04 874.359   3
  -4  26   0 7917.96 1089.01   4
   4  22   0 7202.36 1067.46   4
  22 -26   0 7506.26 898.777   1
  -4  26   0 8459.40 1018.83   2
   4  22   0 8928.68 1018.62   2
  26 -22   0 7166.27 901.112   1
 -22  -4   3 2372.36 717.140   3
 -26   4   3 1523.10 652.934   3
  22 -26   3 1985.99 519.319   1
  -4  26   3 3705.41 840.872   4
   4  22   3 2277.19 754.099   4
  26 -22   3 2097.80 504.140   1
  -4  26   3 2325.05 637.099   2
   4  22   3 652.436 529.721   2
  -4  26   6 3097.24 732.047   2
   4  22   6 3516.24 871.344   2
  -4  26   6 2690.16 839.861   4
   4  22   6 3582.56 882.835   4
  -5  26  -7 133.825 544.583   4
  21 -26  -7 438.162 643.524   1
   5  21  -7 1973.82 669.395   4
  -5  26  -7 1056.68 681.994   2
   5  21  -7 1407.39 590.773   2
  26 -21  -7 751.153 656.594   1
 -21  -5  -7 1048.03 649.181   3
 -26   5  -7 1274.17 610.417   3
 -26   5  -4 1465.51 596.970   3
  -5  26  -4-404.681 621.559   4
   5  21  -4 1729.84 673.994   4
  -5  26  -4 1068.19 590.161   2
   5  21  -4 387.819 478.384   2
  21 -26  -4 1791.59 674.292   1
  26 -21  -4 1510.51 644.399   1
 -21  -5  -4-463.006 486.957   3
 -21  -5  -1 1865.41 485.402   3
 -26   5  -1 1715.59 552.875   3
  26 -21  -1 2454.27 611.876   1
  -5  26  -1 2515.48 732.448   4
   5  21  -1 1635.41 600.274   4
  21 -26  -1 1860.55 569.286   1
  -5  26  -1 1840.54 595.319   2
   5  21  -1 1842.38 602.387   2
 -21  -5   2 810.188 480.743   3
 -26   5   2 1922.59 607.105   3
  -5  26   2 883.874 616.713   4
  21 -26   2 27.4694 395.015   1
  26 -21   2 1108.62 490.211   1
   5  21   2 756.414 618.861   4
  -5  26   2 1106.59 491.768   2
   5  21   2 626.580 474.771   2
   5  21   5 4960.29 896.694   2
  -5  26   5 4499.22 951.587   4
   5  21   5 6817.83 1095.66   4
  -5  26   5 3719.01 727.271   2
  -5  26   8 1395.03 695.413   2
   5  21   8 1525.35 853.307   2
  -5  26   8 1499.98 750.590   4
   5  21   8 1436.21 788.298   4
   6  20  -8 1903.79 1019.18   1
  -6  26  -8 482.192 638.623   4
  20 -26  -8 167.393 595.200   1
  -6  26  -8 1314.25 651.561   2
   6  20  -8 1829.34 676.766   2
  26 -20  -8 2463.41 853.880   1
 -20  -6  -8 301.581 704.763   3
 -26   6  -8 2859.71 871.733   3
  -6  26  -5 1389.19 709.867   4
   6  20  -5 1185.96 655.130   4
  -6  26  -5 1622.07 665.369   2
  20 -26  -5 1882.95 710.741   1
   6  20  -5 1084.74 544.913   2
  26 -20  -5 1360.28 745.065   1
 -20  -6  -5 1264.56 609.459   3
 -26   6  -5 950.963 545.697   3
  20 -26  -2 8115.66 957.628   1
  -6  26  -2 9299.03 1121.73   4
   6  20  -2 8347.60 1113.22   4
  26 -20  -2 9156.57 1022.01   1
  -6  26  -2 8034.85 1007.93   2
   6  20  -2 9009.45 1021.20   2
 -20  -6  -2 7383.18 810.589   3
 -26   6  -2 7769.70 898.262   3
 -20  -6   1 2649.99 552.641   3
 -26   6   1 2879.86 638.298   3
  -6  26   1 1438.44 688.831   4
   6  20   1 2993.10 794.948   4
  -6  26   1 2518.68 678.089   2
  26 -20   1 3108.85 588.807   1
  20 -26   1 3527.07 615.044   1
   6  20   1 2952.21 667.519   2
   6  20   4 3588.96 766.419   2
 -26   6   4 2432.75 702.796   3
  26 -20   4 3938.53 590.625   1
   6  20   4 3806.38 875.265   4
  -6  26   4 4055.01 763.241   2
  -6  26   7 2122.33 714.919   2
   6  20   7 1309.11 715.535   2
  -6  26   7 1684.57 719.604   4
   6  20   7 2209.90 793.445   4
  26 -19  -6 9166.27 1202.91   1
  -7  26  -6 10988.9 1303.30   4
  -7  26  -6 12183.2 1347.90   2
   7  19  -6 11979.0 1248.12   4
   7  19  -6 11609.3 1183.82   2
 -19  -7  -6 10397.2 1157.94   3
  19 -26  -6 10655.7 1200.28   1
 -26   7  -6 13267.6 1229.89   3
 -26   7  -3 1583.16 570.221   3
  19 -26  -3 1764.95 605.916   1
  -7  26  -3 1820.41 696.832   4
   7  19  -3 1377.84 666.083   4
  -7  26  -3 1155.38 607.927   2
   7  19  -3 2160.33 652.660   2
  26 -19  -3 1666.76 603.289   1
 -19  -7  -3 1858.79 546.406   3
 -26   7   0 9512.39 935.927   3
  -7  26   0 9320.70 1161.62   4
   7  19   0 10708.1 1213.38   4
  -7  26   0 10648.8 1080.95   2
  26 -19   0 11520.7 1001.48   1
   7  19   0 10274.9 1081.92   2
  19 -26   0 10958.6 1046.65   1
 -19  -7   0 10789.9 899.933   3
 -19  -7   3 3287.06 661.530   3
 -26   7   3 3289.52 753.122   3
  -7  26   3 2182.24 720.729   4
   7  19   3 2874.30 760.088   4
  26 -19   3 3046.89 528.987   1
  -7  26   3 4016.17 691.279   2
   7  19   3 2731.63 701.540   2
  -7  26   6 9270.12 1190.52   4
   7  19   6 8938.39 1270.99   4
  -7  26   6 7563.16 968.179   2
   7  19   6 7684.44 1122.28   2
   8  18  -7 1686.19 797.083   1
  -8  26  -7 2007.75 715.310   4
  -8  26  -7 1720.82 695.677   2
   8  18  -7 765.464 507.775   4
  26 -18  -7 1955.34 786.000   1
  18 -26  -7 2805.86 724.939   1
   8  18  -7 657.917 518.743   2
 -18  -8  -7 2555.66 786.166   3
 -26   8  -7 673.465 569.229   3
 -26   8  -4 580.134 449.876   3
  18 -26  -4 966.046 544.502   1
  -8  26  -4 1434.88 595.947   4
   8  18  -4 82.4223 488.158   4
  -8  26  -4 117.361 484.160   2
  26 -18  -4 1131.66 606.057   1
   8  18  -4 912.255 472.616   2
 -18  -8  -4 686.709 499.329   3
 -18  -8  -1 2409.44 512.939   3
 -26   8  -1 2781.63 634.707   3
  18 -26  -1 1901.05 541.605   1
  -8  26  -1 1805.79 622.647   4
  26 -18  -1 3995.69 777.648   1
   8  18  -1 1332.81 601.409   4
  -8  26  -1 3276.31 708.615   2
   8  18  -1 2209.18 589.069   2
  26 -18   2 4532.17 642.333   1
  18 -26   2 5043.95 754.229   1
 -18  -8   2 3508.73 617.233   3
 -26   8   2 3272.20 671.413   3
  -8  26   2 4456.61 868.254   4
   8  18   2 4874.54 899.340   4
  -8  26   2 5266.37 785.032   2
   8  18   2 4596.78 830.657   2
   8  18   5 3918.09 828.901   2
  -8  26   5 5541.63 963.488   4
   8  18   5 4044.15 875.079   4
  -8  26   5 3982.37 698.706   2
  -8  26   8 543.786 564.834   2
   8  18   8 1382.89 805.545   2
  -8  26   8 302.803 550.162   4
   8  18   8 805.250 768.669   4
  -9  26  -8 716.912 616.595   4
   9  17  -8 134.025 783.063   1
  -9  26  -8 519.875 723.213   2
  26 -17  -8 98.3816 662.584   1
   9  17  -8 349.000 471.519   2
  17 -26  -8 1780.54 740.171   1
 -17  -9  -8 311.867 648.597   3
 -26   9  -8 1185.85 643.083   3
  -9  26  -5 2489.43 716.778   4
   9  17  -5 4226.52 848.792   4
  -9  26  -5 4156.10 874.325   2
  26 -17  -5 2536.17 735.149   1
   9  17  -5 2700.83 611.667   2
 -17  -9  -5 2236.22 673.271   3
  17 -26  -5 1891.79 620.519   1
 -26   9  -5 2723.77 687.522   3
 -17  -9  -2 2056.03 490.295   3
 -26   9  -2 3125.42 630.192   3
  -9  26  -2 2985.41 723.033   4
   9  17  -2 2598.70 666.290   4
  -9  26  -2 3236.68 731.077   2
  26 -17  -2 3412.10 746.951   1
   9  17  -2 3217.34 639.713   2
  17 -26  -2 3639.42 666.558   1
 -17  -9   1 286.019 344.230   3
 -26   9   1 1750.10 597.418   3
  26 -17   1 45.9397 357.539   1
  -9  26   1 90.5820 495.276   4
   9  17   1-84.6483 518.590   4
  17 -26   1-153.994 475.475   1
  -9  26   1 785.195 468.841   2
  17 -26   1 333.525 306.742   3
   9  17   1 480.861 457.310   2
   9  17   4 868.019 580.583   2
  -9  26   4-439.721 563.608   4
   9  17   4 511.233 541.253   4
  26 -17   4 784.103 332.151   1
  -9  26   4 776.143 475.742   2
  -9  26   7 124.263 534.435   2
   9  17   7 1568.78 661.674   2
 -26   9   7 1389.21 557.584   4
  -9  26   7 1050.97 662.977   4
   9  17   7 873.277 667.012   4
  26 -16  -6 8431.38 1206.42   1
  16 -26  -6 8749.44 1104.05   1
  10  16  -6 11615.7 1455.72   1
 -10  26  -6 7301.46 1042.63   4
 -10  26  -6 9816.24 1307.49   2
  10  16  -6 8347.62 1019.75   4
  10  16  -6 9527.09 994.766   2
 -16 -10  -6 7152.54 986.728   3
 -26  10  -6 7487.24 965.125   3
 -10  26  -3 4178.95 861.754   4
  16 -26  -3 5180.89 797.666   1
 -10  26  -3 5023.04 863.626   2
  10  16  -3 6384.17 921.004   4
  26 -16  -3 4411.60 780.177   1
  10  16  -3 5441.28 766.258   2
 -16 -10  -3 4126.07 647.578   3
 -26  10  -3 4102.37 690.954   3
 -26  10   0 12459.1 1076.95   3
  16 -26   0 15683.7 1194.32   1
 -10  26   0 14362.8 1415.07   4
  26 -16   0 15572.2 1133.20   1
  10  16   0 13728.7 1333.93   4
 -10  26   0 16592.3 1295.28   2
  10  16   0 16334.3 1310.19   2
  16 -26   0 11695.1 720.042   3
 -16 -10   0 14095.6 970.754   3
  10  16   3-128.544 462.433   2
 -16 -10   3 936.614 391.304   3
 -26  10   3 896.353 566.791   3
  26 -16   3 1181.75 384.269   1
 -10  26   3 389.922 512.758   4
  10  16   3 394.144 592.237   4
 -10  26   3 587.666 370.536   2
  10  16   6 11730.1 1335.84   2
 -10  26   6 13942.1 1394.02   4
  10  16   6 12920.6 1413.32   4
 -10  26   6 11369.4 1118.90   2
  15 -26  -7 6066.81 951.747   1
 -11  26  -7 5129.89 918.368   4
  11  15  -7 6206.57 1170.63   1
  26 -15  -7 3483.79 876.474   1
 -11  26  -7 4145.43 960.275   2
  11  15  -7 5143.08 784.647   4
  11  15  -7 5919.01 840.780   2
 -15 -11  -7 6219.26 975.380   3
 -26  11  -7 3556.68 759.591   3
 -26  11  -4 2138.01 593.522   3
 -11  26  -4 2063.61 720.478   4
  26 -15  -4 2068.02 769.853   1
 -11  26  -4 2023.43 620.029   2
  15 -26  -4 1737.68 575.614   1
  11  15  -4 2953.28 696.439   4
  11  15  -4 1508.73 478.197   2
 -15 -11  -4 2723.87 649.496   3
  15 -26  -1 8770.78 978.217   1
 -26  11  -1 7493.34 871.114   3
  26 -15  -1 6620.54 866.857   1
 -11  26  -1 6739.21 969.531   4
 -11  26  -1 7292.17 931.117   2
  11  15  -1 7779.85 973.357   4
  11  15  -1 9233.87 960.776   2
 -15 -11  -1 8061.94 752.086   3
  11  15   2 1894.30 592.361   2
 -15 -11   2 2791.20 535.935   3
 -26  11   2 1422.14 614.386   3
 -11  26   2 3753.21 793.641   4
  26 -15   2 2408.54 464.137   1
  11  15   2 1987.82 732.311   4
 -11  26   2 2519.01 595.713   2
  15 -26   2 2185.41 354.930   3
  11  15   5 1972.55 684.087   2
 -11  26   5 1792.98 673.494   4
  11  15   5 1219.54 689.137   4
 -11  26   5 2512.70 584.466   2
 -11  26   8 965.929 616.762   2
  11  15   8 1258.81 675.319   2
 -11  26   8 1812.69 690.770   4
  11  15   8 2297.71 855.975   4
  14 -26  -8 961.692 642.630   1
 -12  26  -8-31.7846 556.598   4
  26 -14  -8 691.989 620.673   1
 -12  26  -8 2250.72 872.452   2
  12  14  -8-932.794 863.277   1
  12  14  -8 638.099 452.958   2
 -14 -12  -8-437.448 643.063   3
 -26  12  -8-17.5377 534.867   3
 -26  12  -5 2458.02 620.566   3
  12  14  -5 3008.54 848.080   1
 -12  26  -5 2584.19 662.138   4
  26 -14  -5 1542.46 735.718   1
  14 -26  -5 2790.75 696.350   1
 -12  26  -5 2535.53 724.663   2
  12  14  -5 1694.16 549.654   4
  12  14  -5 2690.23 568.736   2
 -14 -12  -5 2075.53 649.367   3
 -26  12  -2-78.7902 380.959   3
 -12  26  -2 607.680 610.868   4
  14 -26  -2 100.480 424.459   1
  26 -14  -2 223.555 477.621   1
 -12  26  -2 658.115 532.116   2
  12  14  -2 106.870 449.030   4
  12  14  -2 246.222 451.193   2
 -14 -12  -2 655.769 419.250   3
  12  14   1 1725.65 577.748   2
 -14 -12   1 1538.43 425.417   3
 -26  12   1 2070.81 589.133   3
  14 -26   1 2025.42 535.057   1
 -12  26   1 745.497 558.451   4
  12  14   1 2561.26 672.092   4
 -12  26   1 2003.47 591.657   2
  14 -26   1 1403.32 314.635   3
  26 -14   1 1205.28 411.870   1
  12  14   4 2001.97 726.106   2
  26 -14   4 1717.57 360.670   1
 -26  12   4 689.327 237.788   2
 -12  26   4 2206.55 742.954   4
  12  14   4 489.351 579.833   4
 -12  26   4 1909.42 551.445   2
 -12  26   7 1707.68 590.170   2
  12  14   7 2219.51 753.908   2
 -26  12   7 708.843 478.401   4
 -12  26   7 2421.32 724.132   4
  12  14   7 2978.57 846.292   4
  13  13  -6 12391.4 1472.25   1
 -13  26  -6 11431.4 1270.89   4
  13 -26  -6 12655.5 1233.43   1
 -13  26  -6 13720.5 1444.15   2
  13  13  -6 10690.5 1067.72   4
  13  13  -6 11930.8 1050.09   2
 -13 -13  -6 10817.2 1180.68   3
 -26  13  -6 10867.3 1113.64   3
  26 -13  -6 10815.7 1349.97   1
 -26  13  -3 1339.84 495.732   3
  13 -26  -3 1463.60 520.223   1
 -13  26  -3 161.090 507.424   4
  26 -13  -3 1686.28 668.830   1
 -13  26  -3 1492.14 579.091   2
  13  13  -3 529.309 482.240   4
  13  13  -3 1560.78 516.875   2
 -13 -13  -3-185.327 404.722   3
 -26  13   0 7917.07 843.752   3
  26 -13   0 10075.0 933.812   1
 -13  26   0 7577.09 1007.20   4
 -13  26   0 11366.0 1110.40   2
  13  13   0 9887.76 1144.90   4
  13 -26   0 11551.7 1040.19   1
  13  13   0 7903.86 939.438   2
  13 -26   0 8236.41 517.847   3
 -13 -13   0 8976.33 710.822   3
  13  13   3 1070.91 575.292   2
 -13 -13   3 946.845 368.245   3
 -26  13   3 746.751 525.133   3
 -26  13   3 884.982 389.541   2
 -13  26   3 1555.41 633.070   4
  13  13   3 1539.12 589.815   4
  26 -13   3 1047.51 336.059   1
 -13  26   3 989.897 450.854   2
  13  13   6 13100.9 1410.91   2
 -26  13   6 10640.5 1098.04   4
 -13  26   6 8859.72 1158.05   4
  13  13   6 8677.68 1181.27   4
 -13  26   6 11334.0 1074.03   2
  26 -12  -7 2863.53 894.774   1
 -14  26  -7 3129.25 813.380   4
 -14  26  -7 1624.57 704.319   2
  14  12  -7 4881.57 1157.60   1
  12 -26  -7 1673.19 621.859   1
  14  12  -7 2617.22 594.697   4
  12 -26  -7 1572.15 823.489   3
  14  12  -7 2457.92 566.506   2
 -12 -14  -7 2613.24 742.300   3
 -26  14  -7 2436.67 720.517   3
 -26  14  -4 2044.79 570.066   3
  12 -26  -4 1280.76 558.088   1
  26 -12  -4 327.006 603.974   1
 -14  26  -4 1579.86 604.608   4
  14  12  -4 2651.94 830.965   1
 -14  26  -4 1999.36 657.237   2
  14  12  -4 1170.30 552.862   4
  14  12  -4 1171.81 463.143   2
 -12 -14  -4 352.362 448.451   3
 -12 -14  -1 1569.52 375.433   3
  12 -26  -1 871.484 273.823   3
 -26  14  -1 1316.55 453.312   3
 -14  26  -1 1632.78 661.789   4
  26 -12  -1 1001.79 522.934   1
 -14  26  -1 1407.28 532.212   2
  12 -26  -1 896.798 471.015   1
  14  12  -1 1257.56 587.899   4
  14  12  -1 1025.39 493.156   2
  14  12   2-851.193 499.348   2
 -12 -14   2-270.043 320.227   3
 -26  14   2-414.685 476.935   3
 -14  26   2 633.153 542.523   4
  14  12   2 288.687 475.035   4
 -14  26   2-211.783 364.344   2
  26 -12   2 556.637 356.919   1
  14  12   5 1823.67 709.289   2
 -14  26   5 4230.85 835.383   4
  14  12   5 4109.17 891.551   4
 -14  26   5 3258.92 632.730   2
 -14  26   8 828.504 572.990   2
 -14  26   8 23.2795 517.746   4
  26 -11  -8 2236.83 831.733   1
 -15  26  -8 731.867 572.913   4
 -15  26  -8 2623.23 907.198   2
  15  11  -8 2659.60 1003.42   1
  11 -26  -8 2650.56 763.001   1
  11 -26  -8 1419.56 891.944   3
 -11 -15  -8 1386.46 733.161   3
  15  11  -8 1659.68 513.818   2
 -26  15  -8 1260.33 633.991   3
 -26  15  -5 2068.67 594.889   3
  26 -11  -5 2840.20 797.534   1
 -15  26  -5 2840.18 749.085   4
  15  11  -5 2352.47 851.278   1
 -15  26  -5 2790.04 849.488   2
  15  11  -5 2681.66 620.327   4
  11 -26  -5 3475.66 752.724   1
  11 -26  -5 2588.45 761.784   3
 -11 -15  -5 1942.82 617.438   3
  15  11  -5 3167.32 610.476   2
 -26  15  -2 1963.38 533.126   3
  11 -26  -2 2364.73 645.445   1
  26 -11  -2 2165.84 647.650   1
  15  11  -2 2471.83 781.442   1
 -15  26  -2 2928.62 771.341   4
 -15  26  -2 2903.06 742.286   2
  15  11  -2 2176.15 664.835   4
 -11 -15  -2 1270.30 393.111   3
  15  11  -2 2387.05 593.905   2
 -11 -15   1 9272.84 687.817   3
 -26  15   1 8444.47 895.078   3
  26 -11   1 8715.66 822.930   1
 -15  26   1 9145.91 1135.70   4
 -15  26   1 8021.42 919.864   2
  15  11   1 8003.97 1033.48   4
  15  11   1 9568.88 1078.14   2
  15  11   4 1910.11 685.437   2
 -26  15   4 1356.66 566.194   4
 -15  26   4 2505.27 698.369   4
  26 -11   4 1521.22 287.425   1
 -26  15   4 1373.21 262.138   2
  15  11   4 2035.80 732.761   4
 -15  26   4 1139.28 428.156   2
 -26  15   7 2469.50 653.640   4
 -15  26   7 5299.19 924.595   4
  15  11   7 4599.19 980.893   4
 -15  26   7 4499.80 726.445   2
 -16  26  -6 14638.6 1521.08   2
 -16  26  -6 11649.9 1315.79   4
  16  10  -6 8995.60 1366.60   1
  16  10  -6 11615.2 1069.52   4
  10 -26  -6 12289.1 1301.91   3
  10 -26  -6 10506.7 1123.91   1
  16  10  -6 11162.2 959.238   2
 -10 -16  -6 12339.1 1193.72   3
  26 -10  -6 11872.4 1356.47   1
 -26  16  -6 10367.4 1007.84   3
  10 -26  -3 845.148 485.750   1
 -26  16  -3 510.661 419.769   3
  26 -10  -3 881.056 568.007   1
 -16  26  -3 1107.58 676.049   4
  16  10  -3 677.772 621.687   1
 -16  26  -3 1939.28 639.172   2
  16  10  -3 452.739 565.508   4
  10 -26  -3 501.683 437.603   3
 -10 -16  -3 497.623 370.706   3
  16  10  -3 941.620 411.464   2
  26 -10   0 14845.2 1132.28   1
 -26  16   0 14900.0 1155.77   3
  16  10   0 16616.4 1343.08   1
 -16  26   0 13761.5 1361.66   4
 -16  26   0 16549.6 1313.38   2
  16  10   0 13940.9 1321.63   4
  10 -26   0 11848.8 552.167   3
  16  10   0 13411.1 1199.64   2
  10 -26   0 13360.6 488.709   3
 -10 -16   0 13985.5 801.303   3
 -26  16   3 3166.56 486.014   2
 -16  26   3 5332.87 887.689   4
  26 -10   3 3880.46 489.027   1
 -16  26   3 6628.93 822.875   2
  16  10   3 4417.08 834.697   4
  16  10   3 6649.26 949.805   2
  16  10   6 7131.10 1162.22   2
 -26  16   6 7166.33 958.406   4
 -16  26   6 6864.44 1004.97   4
  16  10   6 7379.48 1127.89   4
 -16  26   6 8974.57 881.205   2
  26  -9  -7-442.323 786.093   1
   9 -26  -7 555.513 505.398   1
 -17  26  -7 356.171 517.408   4
 -17  26  -7 1290.50 733.098   2
  17   9  -7 1216.59 966.192   1
   9 -26  -7-339.062 662.558   3
  -9 -17  -7 419.471 579.421   3
  17   9  -7 1819.86 519.200   2
 -26  17  -7 905.696 532.480   3
 -26  17  -4 748.322 471.037   3
  26  -9  -4 954.396 617.740   1
 -17  26  -4 661.548 314.030   3
 -17  26  -4 805.271 559.348   4
 -17  26  -4 1094.60 640.065   2
  17   9  -4 650.617 681.946   1
  17   9  -4 1032.59 532.675   4
   9 -26  -4 1103.18 549.470   3
  -9 -17  -4 573.527 416.384   3
   9 -26  -4 1552.30 561.568   1
  17   9  -4 1327.49 501.749   2
  17   9  -1 918.292 509.003   2
   9 -26  -1 656.846 215.607   3
 -26  17  -1 949.502 441.947   3
  26  -9  -1 1123.02 577.251   1
   9 -26  -1 1072.23 473.781   1
 -17  26  -1 187.542 468.480   4
  17   9  -1 749.737 538.226   1
 -17  26  -1 1214.53 523.825   2
  17   9  -1 651.470 506.415   4
   9 -26  -1 827.350 292.897   3
  -9 -17  -1 713.603 314.066   3
  -9 -17   2 4689.78 453.626   3
  26  -9   2 4642.40 585.114   1
 -26  17   2 3187.60 675.434   3
  17   9   2 3449.67 671.740   1
 -26  17   2 2726.33 536.475   2
 -17  26   2 3715.81 828.746   4
 -17  26   2 4618.99 736.926   2
  17   9   2 4871.13 901.471   4
  17   9   2 5749.63 903.270   2
  17   9   5 3186.10 816.174   2
 -26  17   5 2011.74 646.612   4
  17   9   5 2125.32 458.148   1
 -17  26   5 2516.26 725.420   4
  17   9   5 2382.73 796.938   4
 -17  26   5 2674.71 564.791   2
 -17  26   8 1234.64 590.054   4
  26  -8  -8 642.711 820.682   1
 -18  26  -8 751.769 713.232   2
 -18  26  -8 206.011 605.166   4
   8 -26  -8-102.616 477.731   1
  18   8  -8 2405.20 1032.96   1
   8 -26  -8 389.083 738.544   3
  -8 -18  -8-321.105 638.640   3
 -26  18  -8 157.975 502.595   3
 -18  26  -5 3474.18 442.911   3
  26  -8  -5 3088.41 921.350   1
   8 -26  -5 6794.09 897.772   1
 -18  26  -5 3258.62 844.255   4
 -18  26  -5 4943.87 963.368   2
  18   8  -5 4231.40 982.350   1
  18   8  -5 3038.52 667.285   4
   8 -26  -5 4351.58 787.701   3
  18   8  -5 4923.41 692.843   2
  -8 -18  -5 2747.85 604.584   3
 -26  18  -5 4090.94 680.901   3
 -26  18  -2 4083.56 676.815   3
  18   8  -2 2348.83 573.355   2
  26  -8  -2 4216.51 759.207   1
   8 -26  -2 3503.90 646.291   1
 -18  26  -2 4323.56 937.194   4
  18   8  -2 3989.56 841.476   1
 -18  26  -2 4127.81 782.950   2
  18   8  -2 4009.02 769.691   4
   8 -26  -2 3855.23 560.736   3
  -8 -18  -2 3480.22 489.823   3
  -8 -18   1 3580.91 406.684   3
 -26  18   1 2301.44 631.813   3
 -26  18   1 2660.21 593.078   2
 -18  26   1 2722.09 775.614   4
  26  -8   1 2531.74 564.160   1
  18   8   1 3955.45 728.224   1
 -18  26   1 3650.71 703.536   2
  18   8   1 2687.89 707.906   4
  18   8   1 3962.05 764.937   2
  18   8   4 1065.02 581.045   2
 -26  18   4 733.306 512.849   4
 -18  26   4 1533.61 601.785   4
  18   8   4 736.901 433.173   1
 -26  18   4 362.416 202.569   2
  18   8   4 1147.72 624.495   4
  26  -8   4 648.299 201.332   1
 -18  26   4 1111.28 428.445   2
 -26  18   7 1340.71 564.257   4
 -18  26   7 1444.04 618.240   4
   7 -26  -6 8397.31 1059.17   1
 -19  26  -6 8013.98 1166.91   4
 -19  26  -6 7510.03 1225.30   2
  19   7  -6 7799.32 1264.83   1
   7 -26  -6 8407.12 1049.27   3
  26  -7  -6 7369.45 1168.72   1
  -7 -19  -6 6031.41 909.578   3
  19   7  -6 7110.77 789.218   2
 -26  19  -6 6749.07 869.110   3
 -19  26  -6 6721.24 653.571   3
  26  -7  -3 4560.69 880.678   1
  19   7  -3 3057.25 615.023   2
 -26  19  -3 3020.60 602.018   3
 -19  26  -3 3500.22 496.289   3
 -19  26  -3 2886.73 795.461   4
 -19  26  -3 2373.97 719.758   2
  19   7  -3 3416.25 905.016   1
   7 -26  -3 3758.83 721.280   1
  19   7  -3 2978.77 711.978   4
   7 -26  -3 3221.60 570.617   3
  -7 -19  -3 2292.16 504.186   3
 -26  19   0 12874.6 1075.81   3
 -26  19   0 8395.90 1133.65   4
 -26  19   0 9845.26 1082.71   2
  19   7   0 11637.8 1216.88   1
 -19  26   0 12573.1 1303.68   4
 -19  26   0 13464.8 1218.87   2
  19   7   0 12620.7 1288.16   4
  26  -7   0 11211.4 1013.18   1
  19   7   0 10872.1 1079.21   2
  -7 -19   0 11832.3 652.604   3
  19   7   3 1122.37 620.992   2
 -26  19   3 1770.98 657.549   4
 -19  26   3 1648.30 695.414   4
  19   7   3 1047.58 482.914   1
 -26  19   3 1481.59 398.316   2
  19   7   3 2387.75 765.721   4
 -19  26   3 963.959 401.191   2
  26  -7   3 620.287 300.714   1
 -26  19   6 10854.9 1171.80   4
 -19  26   6 10851.0 1217.42   4
 -19  26   6 12625.8 982.365   2
 -26  20  -7 1332.84 531.742   3
  26  -6  -7 1125.12 770.737   1
   6 -26  -7 1803.83 647.827   1
 -26  20  -7 983.093 620.167   4
 -26  20  -7 1173.96 886.833   2
 -20  26  -7 727.858 617.628   4
 -20  26  -7 1188.21 726.415   2
  20   6  -7 1452.45 859.944   1
   6 -26  -7 1454.57 739.665   3
  -6 -20  -7 1449.43 660.592   3
 -20  26  -4 4852.53 567.745   3
 -26  20  -4 5519.32 971.194   4
 -26  20  -4 3024.43 833.281   2
 -20  26  -4 2745.19 760.177   4
 -20  26  -4 4572.22 977.542   2
  20   6  -4 5717.04 1060.61   1
   6 -26  -4 4730.21 737.362   3
  26  -6  -4 5800.05 1007.62   1
  -6 -20  -4 3646.52 625.541   3
   6 -26  -4 5492.21 815.644   1
  20   6  -4 6123.94 758.609   2
 -26  20  -4 5100.57 727.696   3
  26  -6  -1 3113.51 703.232   1
  20   6  -1 2997.54 654.046   2
 -26  20  -1 2247.53 576.932   3
 -26  20  -1 2940.94 816.265   4
 -26  20  -1 3461.87 751.894   2
 -20  26  -1 2690.55 789.624   4
 -20  26  -1 3291.08 757.195   2
  20   6  -1 1906.48 700.841   1
  20   6  -1 1930.95 635.909   4
   6 -26  -1 1691.68 271.680   3
  -6 -20  -1 2502.55 407.697   3
  20   6   2 6782.39 977.845   2
 -26  20   2 7122.25 933.102   3
 -26  20   2 5532.83 938.426   4
 -20  26   2 7338.89 1039.31   4
  20   6   2 6982.34 869.095   1
 -26  20   2 8738.71 877.361   2
 -20  26   2 7757.76 888.387   2
  20   6   2 8349.34 1139.90   4
  26  -6   2 5799.01 660.569   1
 -26  20   5 1552.99 647.192   4
 -20  26   5 254.317 526.803   4
 -20  26   5 922.762 385.391   2
 -20  26   8 1407.20 619.687   4
 -26  21  -8 1419.53 595.425   3
  26  -5  -8 1282.51 915.916   1
   5 -26  -8 2574.46 693.863   1
 -26  21  -8 1011.82 766.238   4
 -26  21  -8 1227.36 949.696   2
 -21  26  -8 1735.74 758.747   4
 -21  26  -8 1710.23 847.841   2
  21   5  -8 1020.79 890.503   1
   5 -26  -8 1776.60 834.283   3
  -5 -21  -8 1035.77 730.510   3
 -21  26  -5 4916.73 593.207   3
 -26  21  -5 3754.26 833.453   4
 -21  26  -5 3784.44 888.407   4
 -21  26  -5 4992.62 1049.31   2
 -26  21  -5 4303.01 1031.86   2
  21   5  -5 5041.14 1101.76   1
   5 -26  -5 5787.69 804.646   3
  -5 -21  -5 4584.92 796.458   3
   5 -26  -5 5865.44 850.863   1
  21   5  -5 5235.23 705.578   2
 -26  21  -5 6202.53 777.689   3
  26  -5  -5 4858.90 1019.22   1
  21   5  -2 1457.79 502.784   2
 -26  21  -2 1050.90 458.824   3
 -21  26  -2 690.908 400.278   3
 -26  21  -2 1107.33 657.983   4
 -26  21  -2 1209.13 612.125   2
 -21  26  -2 601.710 536.694   4
 -21  26  -2 519.338 509.874   2
  21   5  -2 1214.43 721.314   1
   5 -26  -2 552.346 304.914   3
  -5 -21  -2 695.773 304.973   3
  26  -5  -2 2596.77 764.537   1
  -5 -21   1 1928.71 210.434   3
  26  -5   1 2109.61 552.921   1
  21   5   1 1469.20 591.031   2
 -26  21   1 3739.09 727.697   3
 -26  21   1 2032.32 675.853   4
 -21  26   1 2488.88 727.045   4
 -26  21   1 1904.30 559.631   2
 -21  26   1 3148.29 653.181   2
  21   5   1 2239.84 605.190   1
 -26  21   4 935.407 538.048   4
 -21  26   4 1033.09 601.276   4
 -26  21   4 917.928 323.381   2
  21   5   4 352.283 350.503   1
 -21  26   4 1219.15 434.286   2
 -26  21   7 114.314 503.087   4
 -21  26   7 1455.52 648.242   4
 -26  22  -6 1542.49 559.285   3
 -22  26  -6 2477.51 526.675   3
 -22  26  -6 2816.00 822.381   4
 -26  22  -6 3827.30 921.029   4
 -26  22  -6 759.670 776.800   2
 -22  26  -6 2035.79 800.406   2
   4 -26  -6 3161.69 722.077   1
  22   4  -6 2147.14 904.664   1
   4 -26  -6 2564.10 718.678   3
  -4 -22  -6 2995.70 724.945   3
  26  -4  -6 3305.66 978.151   1
 -22  26  -3 3301.81 574.828   3
 -26  22  -3 1314.56 464.227   3
  22   4  -3 1055.89 483.121   2
 -26  22  -3 1363.40 671.067   4
 -26  22  -3 453.830 583.587   2
 -22  26  -3 735.475 564.479   4
 -22  26  -3 506.980 658.979   2
  22   4  -3 3294.26 855.336   1
   4 -26  -3 1587.51 460.418   3
  -4 -22  -3 1638.25 460.656   3
  26  -4  -3 1965.86 696.251   1
  22   4   0 8878.35 1063.12   2
 -26  22   0 8288.88 950.529   3
 -26  22   0 8555.62 1154.63   4
 -26  22   0 7321.50 949.255   2
 -22  26   0 8867.40 1241.58   4
  22   4   0 7665.56 991.195   1
 -22  26   0 9376.05 1056.15   2
  26  -4   0 7605.54 902.510   1
  -4 -22   0 8000.20 447.172   3
 -26  22   3 1023.14 601.636   4
 -22  26   3 1384.25 688.421   4
  26  -4   3 742.398 327.818   1
 -26  22   3 857.442 388.617   2
 -22  26   3 2413.05 551.816   2
  22   4   3 1394.96 472.633   1
 -26  22   6 1734.15 703.264   4
 -22  26   6 339.511 553.343   4
 -26  23  -7 413.252 507.397   3
 -23  26  -7-237.517 397.795   3
   3 -26  -7 1138.85 613.566   1
 -26  23  -7 525.423 637.612   4
 -26  23  -7 574.305 697.087   2
 -23  26  -7-43.9996 646.043   4
 -23  26  -7-614.836 766.747   2
  23   3  -7 592.256 763.276   1
   3 -26  -7 1045.59 646.540   3
  -3 -23  -7-38.5102 653.648   3
  26  -3  -7 1432.57 888.215   1
 -26  23  -4 8806.59 885.117   3
  23   3  -4 7806.12 883.080   2
 -23  26  -4 7355.68 718.981   3
 -26  23  -4 6816.92 1099.77   4
 -26  23  -4 6468.49 1083.65   2
 -23  26  -4 6100.49 1134.89   2
 -23  26  -4 4126.65 876.546   4
  26  -3  -4 6173.64 1073.37   1
  23   3  -4 4825.56 1007.83   1
   3 -26  -4 8100.24 877.365   3
  -3 -23  -4 5678.78 758.170   3
 -26  23  -1 1131.09 489.658   3
  23   3  -1 814.434 521.800   2
 -23  26  -1 850.229 497.257   3
 -26  23  -1 1931.45 700.545   4
 -23  26  -1 927.523 652.722   4
 -26  23  -1 1022.50 693.450   2
 -23  26  -1 1172.77 571.899   2
  23   3  -1-769.699 553.369   1
   3 -26  -1 754.705 188.040   3
  26  -3  -1 666.809 578.675   1
  -3 -23  -1 767.553 272.199   3
 -26  23   2 5766.65 989.595   4
 -23  26   2 5273.82 1000.34   4
 -26  23   2 4954.38 719.540   2
 -23  26   2 7097.19 848.883   2
  23   3   2 5448.37 739.817   1
  26  -3   2 4274.45 620.957   1
 -26  23   5 304.102 554.265   4
 -23  26   5-141.261 597.196   4
 -23  26   5 10.4171 304.460   2
  24   2  -5 2956.68 586.965   2
 -26  24  -5 3780.65 609.992   3
 -24  26  -5 2844.21 573.512   3
 -26  24  -5 4679.93 1020.61   4
 -24  26  -5 3499.32 896.294   4
 -26  24  -5 1668.12 789.681   2
 -24  26  -5 3571.03 1004.62   2
  24   2  -5 3656.76 1100.67   1
   2 -26  -5 1384.28 545.862   3
  -2 -24  -5 3341.91 722.573   3
  26  -2  -5 2548.50 850.875   1
 -26  24  -2 2146.98 526.568   3
 -24  26  -2 1095.41 424.789   3
  24   2  -2 2001.50 541.570   2
 -26  24  -2 477.094 604.156   4
 -24  26  -2 1786.40 711.840   4
 -26  24  -2 1946.73 724.556   2
 -24  26  -2 1892.20 769.410   2
  24   2  -2-401.121 692.029   1
   2 -26  -2 1441.52 363.793   3
  26  -2  -2 1791.83 716.392   1
  -2 -24  -2 1278.93 344.264   3
 -26  24   1 2715.91 807.053   4
 -24  26   1 3762.92 887.143   4
 -26  24   1 2225.15 647.573   2
 -24  26   1 3492.89 736.706   2
  24   2   1 2457.71 633.899   1
  26  -2   1 2319.28 572.195   1
 -26  24   4 2944.52 833.263   4
 -24  26   4 1455.52 629.373   4
 -26  24   4 2174.86 454.318   2
 -24  26   4 2217.24 481.001   2
 -26  24   7 1868.24 707.304   4
 -24  26   7 1750.72 724.482   4
 -26  25  -6 304.587 437.153   3
 -25  26  -6 1001.56 471.163   3
 -26  25  -6 1042.60 689.650   4
 -25  26  -6 853.576 689.332   4
 -26  25  -6 104.605 776.138   2
 -25  26  -6-98.4349 688.278   2
   1 -26  -6 541.527 646.060   3
  25   1  -6-35.4068 748.002   1
  -1 -25  -6 500.289 556.249   3
  26  -1  -6-250.860 806.075   1
 -26  25  -3 3115.47 629.201   3
 -25  26  -3 3375.67 597.531   3
 -26  25  -3 2150.50 786.220   4
 -25  26  -3 1157.70 655.766   4
 -26  25  -3 2890.62 828.164   2
 -25  26  -3 3199.33 889.775   2
  25   1  -3 3215.28 882.270   1
  26  -1  -3 2835.09 905.779   1
   1 -26  -3 2551.98 479.068   3
  -1 -25  -3 2531.72 477.102   3
 -26  25   0 4075.76 751.689   3
 -26  25   0 3041.90 845.213   4
 -25  26   0 2745.81 805.194   4
 -26  25   0 1204.18 625.285   2
 -25  26   0 3179.16 802.504   2
  25   1   0 1739.24 667.442   1
  26  -1   0 2654.02 747.227   1
  26  -1   3 2011.81 455.311   1
 -26  25   3 2642.82 841.376   4
 -25  26   3 1965.69 800.204   4
 -26  25   3 2718.31 576.458   2
 -25  26   3 2552.44 558.566   2
  25   1   3 1112.27 392.541   1
 -26  25   6-443.108 605.035   4
 -25  26   6 276.933 643.129   4
 -26  26  -4 10441.0 935.467   3
 -26  26  -4 10077.5 1363.12   4
 -26  26  -4 9456.71 1310.78   2
   0 -26  -4 7929.72 843.289   3
 -26  26  -1-895.883 505.474   3
 -26  26  -1 794.156 619.245   4
 -26  26  -1 2018.96 729.189   2
  26   0  -1 263.209 588.473   1
 -26  26   2 9480.10 1278.69   4
 -26  26   2 10094.6 1027.91   2
  26   0   2 8075.96 880.770   1
 -26  26   5 488.000 640.566   4
  27 -27  -6 1875.16 772.057   1
   0  27  -6 2069.54 837.997   4
   0  27  -6 778.541 621.217   2
 -27   0  -6 1352.10 674.459   3
 -27   0  -3 288.229 483.908   3
  27 -27  -3-451.180 587.891   1
   0  27  -3 576.258 534.190   2
 -27   0   0 4652.02 794.651   3
  27 -27   0 6274.08 878.218   1
   0  27   0 5293.79 1057.79   4
   0  27   0 5982.16 959.331   2
 -27   0   3-436.051 617.014   3
   0  27   3 661.832 716.449   4
  27 -27   3-62.4952 469.356   1
   0  27   3-30.1373 544.571   2
   0  27   6 1859.77 709.280   2
   0  27   6 1799.27 846.475   4
 -26  -1  -4-578.492 521.369   3
 -27   1  -4 349.301 470.370   3
  27 -26  -4-20.5559 512.152   1
  -1  27  -4 2529.98 855.112   4
   1  26  -4 1721.45 746.254   4
  26 -27  -4 536.786 581.276   1
  -1  27  -4 605.392 517.401   2
   1  26  -4 645.096 613.927   2
 -26  -1  -1 1856.58 607.561   3
 -27   1  -1 3353.77 700.841   3
  26 -27  -1 1603.23 618.421   1
  -1  27  -1 2970.75 837.931   4
   1  26  -1 1511.02 716.953   4
  -1  27  -1 2357.06 643.702   2
   1  26  -1 2200.92 655.606   2
  27 -26  -1 1382.37 542.919   1
  26 -27   2 3498.77 687.972   1
 -26  -1   2 1266.17 574.937   3
 -27   1   2 2196.90 672.735   3
  -1  27   2 3022.44 894.413   4
   1  26   2 2137.37 812.083   4
  27 -26   2 1464.84 567.841   1
  -1  27   2 1781.03 642.040   2
   1  26   2 2985.13 692.275   2
   1  26   5 1728.98 774.502   2
  -1  27   5 570.751 694.972   4
   1  26   5 1498.30 731.344   4
  -1  27   5 2600.47 769.949   2
 -27   2  -5 3864.23 758.726   3
  -2  27  -5 6167.95 1051.53   4
   2  25  -5 4046.80 908.757   4
  25 -27  -5 3127.86 835.092   1
   2  25  -5 4640.61 911.552   2
  27 -25  -5 6597.01 1073.55   1
  -2  27  -5 4485.56 893.696   2
 -25  -2  -5 3258.89 798.456   3
 -25  -2  -2 3400.83 675.099   3
 -27   2  -2 4037.66 749.413   3
  -2  27  -2 5469.89 972.979   4
   2  25  -2 4253.29 984.907   4
  -2  27  -2 4885.22 929.245   2
   2  25  -2 4203.65 836.405   2
  27 -25  -2 4966.79 826.804   1
  25 -27  -2 4419.42 784.319   1
 -25  -2   1 6680.69 916.496   3
 -27   2   1 6651.16 929.557   3
  27 -25   1 7786.98 911.066   1
  -2  27   1 7161.54 1129.96   4
   2  25   1 6483.78 1092.66   4
  -2  27   1 6860.66 966.825   2
   2  25   1 8823.96 1066.51   2
  25 -27   1 7049.34 909.595   1
 -27   2   4 1759.25 749.219   3
 -25  -2   4 2354.50 798.976   3
  -2  27   4 1540.21 710.112   4
   2  25   4 2995.24 879.341   4
  -2  27   4 2205.04 719.453   2
   2  25   4 2480.32 740.302   2
  27 -24  -6 2314.99 842.448   1
  -3  27  -6 2748.89 805.667   4
  24 -27  -6 1.10082 625.198   1
   3  24  -6 2768.33 842.881   4
  -3  27  -6 3117.15 857.186   2
   3  24  -6 1055.41 657.470   2
 -24  -3  -6 2594.69 751.477   3
 -27   3  -6 1854.97 674.103   3
 -24  -3  -3 1148.21 581.813   3
 -27   3  -3-160.482 507.128   3
  27 -24  -3 259.767 541.343   1
  -3  27  -3 952.807 694.936   4
   3  24  -3-548.838 670.584   4
  -3  27  -3 967.673 617.415   2
   3  24  -3-31.3432 493.322   2
  24 -27  -3 531.440 616.425   1
 -24  -3   0 7420.28 889.165   3
 -27   3   0 8536.93 933.602   3
  27 -24   0 7081.51 892.300   1
  -3  27   0 6352.02 1081.98   4
   3  24   0 7110.39 1123.50   4
  24 -27   0 7518.25 927.585   1
  -3  27   0 8427.91 1038.41   2
   3  24   0 6828.11 980.737   2
 -24  -3   3 716.303 532.883   3
 -27   3   3 2079.41 695.771   3
  -3  27   3 11.9205 586.297   4
   3  24   3 1241.95 671.437   4
  -3  27   3 1224.03 597.556   2
  27 -24   3 1112.49 498.322   1
  24 -27   3 851.187 497.547   1
   3  24   3 710.850 579.740   2
  -3  27   6 2093.60 723.895   2
   3  24   6 2295.95 785.795   2
  -3  27   6 2361.61 841.025   4
   3  24   6 2439.45 938.033   4
  -4  27  -7 1575.82 728.217   4
  23 -27  -7 2523.03 843.399   1
   4  23  -7 927.882 661.142   4
  -4  27  -7 1000.30 676.197   2
   4  23  -7 982.813 586.623   2
 -23  -4  -7 1558.81 674.050   3
  27 -23  -7 2491.35 829.229   1
 -27   4  -7-112.795 599.641   3
 -27   4  -4-242.368 510.418   3
  27 -23  -4 1174.98 632.452   1
  -4  27  -4 142.573 605.404   4
   4  23  -4 488.435 572.044   4
  -4  27  -4-794.532 554.085   2
   4  23  -4 391.294 503.588   2
  23 -27  -4-238.256 487.669   1
 -23  -4  -4 651.682 575.930   3
 -27   4  -1 3200.85 715.072   3
 -23  -4  -1 2042.71 580.180   3
  23 -27  -1 3946.38 751.225   1
  -4  27  -1 2589.29 751.016   4
   4  23  -1 2541.88 740.600   4
  27 -23  -1 1480.57 556.906   1
  -4  27  -1 2775.86 680.168   2
   4  23  -1 2824.94 697.920   2
 -23  -4   2 1250.69 556.515   3
 -27   4   2 1527.49 622.018   3
  23 -27   2 1798.98 589.353   1
  -4  27   2 603.909 611.938   4
   4  23   2 3337.72 828.019   4
  -4  27   2 484.466 498.902   2
  27 -23   2 1256.07 454.624   1
   4  23   2 2243.00 669.075   2
   4  23   5 2642.15 742.364   2
  -4  27   5 5965.43 1080.98   4
   4  23   5 4250.12 929.311   4
  -4  27   5 4353.92 850.553   2
 -27   5  -5 3118.36 744.787   3
  -5  27  -5 4802.17 989.376   4
   5  22  -5 3477.85 787.958   4
  -5  27  -5 3367.02 865.660   2
  22 -27  -5 2718.91 695.114   1
   5  22  -5 3542.38 775.438   2
  27 -22  -5 3559.37 828.494   1
 -22  -5  -5 2256.48 642.826   3
  22 -27  -2 4069.32 761.905   1
  -5  27  -2 6258.79 1063.43   4
   5  22  -2 5897.90 996.269   4
  -5  27  -2 4681.83 853.728   2
  27 -22  -2 4623.22 850.614   1
   5  22  -2 5713.96 874.396   2
 -22  -5  -2 6436.35 808.713   3
 -27   5  -2 5492.63 842.224   3
  22 -27   1 7123.64 861.427   1
 -22  -5   1 6989.36 856.715   3
 -27   5   1 8175.70 975.515   3
  27 -22   1 6330.40 787.410   1
  -5  27   1 4439.67 959.553   4
   5  22   1 5120.91 978.202   4
  -5  27   1 6376.05 923.747   2
   5  22   1 6648.07 979.059   2
 -27   5   4 1553.04 696.016   3
 -22  -5   4 2416.30 723.980   3
  -5  27   4 1540.83 731.678   4
   5  22   4 1922.71 773.798   4
  -5  27   4 2771.14 690.194   2
  27 -22   4 2588.62 553.386   1
  -5  27   7 3312.65 792.187   2
   5  22   7 3161.64 876.168   2
  -5  27   7 3324.43 908.761   4
   5  22   7 4238.87 960.979   4
  27 -21  -6 4656.28 999.800   1
  -6  27  -6 3636.08 836.634   4
  -6  27  -6 5910.03 1051.72   2
   6  21  -6 3914.35 830.433   4
   6  21  -6 4002.48 829.023   2
  21 -27  -6 5871.33 991.234   1
 -21  -6  -6 3929.76 827.119   3
 -27   6  -6 4638.49 843.536   3
 -21  -6  -3 2260.87 609.456   3
 -27   6  -3 2409.20 638.727   3
  21 -27  -3 3176.84 701.065   1
  -6  27  -3 2750.53 752.629   4
   6  21  -3 2530.32 778.625   4
  -6  27  -3 2535.16 728.135   2
   6  21  -3 2674.80 703.291   2
  27 -21  -3 2535.95 725.654   1
 -21  -6   0 3063.19 620.660   3
 -27   6   0 3799.01 725.667   3
  21 -27   0 2522.83 655.609   1
  -6  27   0 3036.51 835.379   4
  27 -21   0 3195.74 670.222   1
   6  21   0 3395.19 847.453   4
  -6  27   0 1964.68 665.849   2
   6  21   0 3707.18 729.021   2
 -21  -6   3 2052.07 613.754   3
 -27   6   3 2410.89 688.315   3
  27 -21   3 2125.07 501.839   1
  -6  27   3 2823.11 804.379   4
   6  21   3 2705.95 830.551   4
  -6  27   3 1552.46 554.027   2
   6  21   3 1652.94 608.813   2
   6  21   6 3415.16 867.984   2
  -6  27   6 3483.49 867.229   4
   6  21   6 2230.06 842.473   4
  -6  27   6 1024.76 592.705   2
   7  20  -7 376.435 698.741   1
  -7  27  -7 1926.75 724.481   4
   7  20  -7 1417.41 647.174   4
  -7  27  -7 1720.70 769.576   2
  20 -27  -7 2616.57 782.879   1
   7  20  -7 1427.06 578.980   2
  27 -20  -7 1740.24 817.233   1
 -20  -7  -7 1624.82 763.185   3
 -27   7  -7 883.817 595.182   3
 -27   7  -4 49.1386 512.751   3
  -7  27  -4 1893.47 693.015   4
   7  20  -4 426.231 516.848   4
  -7  27  -4 20.5886 518.850   2
   7  20  -4 847.393 504.103   2
  27 -20  -4 1464.30 629.493   1
 -20  -7  -4-150.352 479.908   3
  20 -27  -4 1576.55 648.618   1
 -27   7  -1 2864.31 636.433   3
  -7  27  -1 5563.66 945.575   4
   7  20  -1 4201.61 871.527   4
  -7  27  -1 5561.21 866.014   2
  27 -20  -1 5195.15 803.504   1
  20 -27  -1 3871.01 728.722   1
   7  20  -1 3568.79 743.949   2
 -20  -7  -1 3594.76 627.185   3
 -20  -7   2 947.693 517.980   3
 -27   7   2 518.145 503.924   3
  27 -20   2 614.408 377.051   1
  20 -27   2 2010.28 541.887   1
  -7  27   2 1374.64 624.120   4
   7  20   2 1535.24 703.513   4
  -7  27   2 308.235 417.865   2
   7  20   2 1404.11 576.339   2
   7  20   5 1355.66 601.477   2
  -7  27   5 3849.67 908.125   4
   7  20   5 1718.48 694.205   4
  -7  27   5 2043.91 642.556   2
   8  19  -8 3034.57 1019.23   1
  -8  27  -8-74.9146 561.936   4
  -8  27  -8-938.891 654.098   2
  27 -19  -8 1108.16 767.102   1
  19 -27  -8 698.950 683.623   1
   8  19  -8 977.170 582.840   2
 -19  -8  -8 1848.68 819.260   3
 -27   8  -8 1829.44 690.280   3
 -27   8  -5 2976.26 692.242   3
  -8  27  -5 3036.71 819.150   4
   8  19  -5 3995.14 825.686   4
  -8  27  -5 3647.06 848.251   2
  27 -19  -5 3008.50 779.668   1
   8  19  -5 2944.46 718.307   2
 -19  -8  -5 2700.34 690.575   3
  19 -27  -5 3130.58 790.315   1
 -19  -8  -2 2812.93 571.213   3
 -27   8  -2 1529.56 550.613   3
  -8  27  -2 1732.73 679.037   4
   8  19  -2 2878.99 751.381   4
  -8  27  -2 3138.90 763.466   2
  19 -27  -2 2260.61 635.787   1
   8  19  -2 3077.50 661.102   2
  27 -19  -2 2173.65 662.571   1
 -19  -8   1 2211.84 546.593   3
 -27   8   1 711.672 430.625   3
  19 -27   1 2711.93 599.073   1
  -8  27   1 1725.14 617.807   4
  27 -19   1 1289.81 442.883   1
   8  19   1 2377.98 768.687   4
  -8  27   1 1908.49 607.607   2
   8  19   1 3140.86 691.749   2
 -27   8   4 1922.08 719.510   3
  27 -19   4 2908.35 502.439   1
  -8  27   4 3175.03 838.652   4
   8  19   4 2275.96 794.280   4
  -8  27   4 3457.08 693.577   2
   8  19   4 3692.27 883.417   2
  -8  27   7 3282.21 771.215   2
   8  19   7 2632.01 831.154   2
  -8  27   7 3222.37 876.383   4
   8  19   7 3589.16 980.699   4
   9  18  -6 943.018 734.419   1
  -9  27  -6 2316.08 731.804   4
  -9  27  -6 2534.82 768.704   2
   9  18  -6 1610.04 631.216   4
  27 -18  -6 2241.19 748.384   1
   9  18  -6 2513.66 674.726   2
  18 -27  -6 1091.03 594.193   1
 -18  -9  -6 1147.65 608.986   3
 -27   9  -6 1453.59 612.312   3
 -27   9  -3 2184.07 560.820   3
  18 -27  -3 4580.54 835.472   1
  -9  27  -3 3551.32 769.225   4
   9  18  -3 4167.23 854.628   4
  -9  27  -3 3534.06 796.982   2
  27 -18  -3 4007.28 773.390   1
   9  18  -3 3004.13 634.303   2
 -18  -9  -3 2717.69 614.128   3
 -27   9   0 4198.38 738.395   3
  18 -27   0 4677.45 754.688   1
  -9  27   0 4142.42 860.293   4
   9  18   0 5382.26 973.340   4
  -9  27   0 4020.42 809.452   2
  27 -18   0 3973.35 682.031   1
   9  18   0 5070.15 801.224   2
 -18  -9   0 4113.70 608.514   3
 -18  -9   3 6266.12 834.382   3
 -27   9   3 6362.89 969.001   3
  -9  27   3 7827.82 1104.74   4
  27 -18   3 7697.87 750.874   1
   9  18   3 5485.84 938.708   4
  -9  27   3 7764.63 930.137   2
   9  18   3 7299.54 1031.65   2
  -9  27   6 3859.48 891.850   4
   9  18   6 6120.03 1122.96   4
  -9  27   6 6690.27 898.572   2
   9  18   6 6078.66 1059.72   2
  10  17  -7 355.277 798.650   1
 -10  27  -7 1827.84 812.502   2
  27 -17  -7 1098.34 775.966   1
  10  17  -7 785.595 474.696   4
  10  17  -7 2069.40 653.752   2
 -10  27  -7 1956.91 720.695   4
 -17 -10  -7 958.788 655.073   3
  17 -27  -7 1491.02 676.076   1
 -27  10  -7 1182.48 620.319   3
 -27  10  -4 333.801 477.265   3
 -10  27  -4 998.798 606.962   4
  17 -27  -4 178.157 486.446   1
 -10  27  -4-104.169 511.327   2
  10  17  -4 476.110 521.135   4
  27 -17  -4-191.672 613.053   1
  10  17  -4 1160.02 514.525   2
 -17 -10  -4 856.242 514.542   3
 -27  10  -1 2734.75 675.360   3
 -17 -10  -1 2132.14 452.767   3
  27 -17  -1 3791.73 745.824   1
 -10  27  -1 2453.01 752.149   4
  17 -27  -1 3408.41 650.977   1
  10  17  -1 2276.32 664.828   4
 -10  27  -1 3034.85 663.220   2
  10  17  -1 3110.95 635.126   2
  10  17   2 2839.09 700.061   2
 -17 -10   2 2295.21 531.801   3
 -27  10   2 2917.06 702.599   3
 -10  27   2 3551.44 825.294   4
  10  17   2 2659.58 761.101   4
 -10  27   2 2936.72 622.565   2
  27 -17   2 3420.28 602.600   1
  10  17   5 1086.29 634.936   2
 -10  27   5 1505.07 659.314   4
  10  17   5 447.041 534.279   4
 -10  27   5 616.598 479.917   2
 -10  27   8-186.602 604.976   2
  10  17   8 2228.63 860.378   2
 -10  27   8 1039.59 685.434   4
  10  17   8 707.991 737.956   4
 -11  27  -8 699.335 620.354   4
  11  16  -8 145.067 885.784   1
 -11  27  -8 1083.79 691.106   2
  27 -16  -8 2134.49 858.583   1
  11  16  -8 408.343 516.424   2
 -16 -11  -8 377.209 693.234   3
 -27  11  -8 1448.36 681.165   3
  16 -27  -8 978.116 626.144   1
 -27  11  -5 876.705 528.265   3
  11  16  -5 2053.87 847.302   1
  16 -27  -5-34.0660 500.877   1
 -11  27  -5 236.852 513.650   4
  27 -16  -5 503.878 596.892   1
 -11  27  -5 505.931 595.761   2
  11  16  -5 2432.22 734.203   4
  11  16  -5 409.107 409.009   2
 -16 -11  -5 851.255 565.641   3
 -27  11  -2 1501.72 516.996   3
  16 -27  -2 2991.80 654.682   1
 -11  27  -2 2396.46 723.986   4
  11  16  -2 2834.57 733.030   4
 -11  27  -2 2370.08 742.449   2
  27 -16  -2 3790.20 728.039   1
  11  16  -2 2857.91 581.795   2
 -16 -11  -2 3179.18 563.106   3
 -16 -11   1 1623.00 452.373   3
  27 -16   1 726.186 426.676   1
 -27  11   1 965.474 595.416   3
 -11  27   1 1257.71 634.171   4
  11  16   1 984.000 705.903   4
 -11  27   1 1108.76 497.271   2
  16 -27   1 1874.30 604.578   1
  11  16   1 1876.83 612.783   2
  11  16   4 3997.62 836.056   2
 -27  11   4 1057.74 307.879   2
 -11  27   4 4466.10 919.938   4
  27 -16   4 2125.67 418.730   1
  11  16   4 3054.82 808.816   4
 -11  27   4 3147.12 636.494   2
 -11  27   7 202.039 491.742   2
  11  16   7-673.874 713.513   2
 -27  11   7 190.014 451.458   4
 -11  27   7-434.186 579.963   4
  11  16   7-56.7685 572.279   4
  15 -27  -6 2766.16 783.896   1
 -12  27  -6 1935.89 658.872   4
  12  15  -6 2129.40 938.092   1
  27 -15  -6 1453.72 698.914   1
 -12  27  -6 3705.11 907.043   2
  12  15  -6 2632.16 680.615   4
  12  15  -6 2513.97 582.505   2
 -15 -12  -6 1946.71 706.979   3
 -27  12  -6 3171.14 762.868   3
  27 -15  -3 9059.38 1103.47   1
 -12  27  -3 8713.29 1125.43   4
  12  15  -3 11947.6 1231.14   4
 -12  27  -3 8720.97 1091.60   2
  15 -27  -3 9737.98 1050.61   1
  12  15  -3 9476.15 1019.01   2
 -15 -12  -3 8962.70 865.788   3
 -27  12  -3 9602.99 974.540   3
 -15 -12   0 1402.06 411.910   3
 -27  12   0 578.246 475.088   3
 -12  27   0 736.979 588.172   4
  12  15   0 1632.74 642.819   4
 -12  27   0 1018.05 519.877   2
  15 -27   0 1190.58 507.506   1
  27 -15   0 1142.14 528.420   1
  12  15   0 2072.34 613.733   2
  27 -15   3 10733.8 786.912   1
 -15 -12   3 9920.78 847.128   3
 -27  12   3 8986.78 1063.75   3
 -12  27   3 13338.5 1350.36   4
  12  15   3 11258.6 1310.06   4
 -12  27   3 10558.1 1038.25   2
  12  15   3 11315.7 1241.13   2
  12  15   6 3998.91 909.877   2
 -27  12   6 4480.52 795.778   4
 -12  27   6 4710.66 926.360   4
  12  15   6 4694.19 1038.62   4
 -12  27   6 3096.84 663.747   2
  14 -27  -7 1471.21 652.608   1
 -13  27  -7 540.272 606.693   4
  27 -14  -7-655.972 758.698   1
  13  14  -7-198.632 800.775   1
 -13  27  -7 916.418 659.612   2
  13  14  -7 342.499 495.933   4
  13  14  -7 183.323 386.317   2
 -14 -13  -7-322.318 657.742   3
 -27  13  -7 676.411 540.180   3
 -27  13  -4 866.361 516.800   3
  14 -27  -4 1579.74 566.100   1
  13  14  -4 1062.11 635.175   1
 -13  27  -4 1153.38 588.558   4
  27 -14  -4 2775.50 750.821   1
 -13  27  -4 2224.46 750.847   2
  13  14  -4 2996.09 742.864   4
  13  14  -4 2045.53 529.189   2
 -14 -13  -4 2263.18 590.591   3
 -14 -13  -1 795.076 370.610   3
 -27  13  -1-66.6140 425.503   3
  14 -27  -1 481.777 508.991   1
 -13  27  -1 889.772 542.996   4
 -13  27  -1 870.267 526.927   2
  13  14  -1 783.312 626.744   4
  27 -14  -1 420.615 470.775   1
  13  14  -1 203.390 412.352   2
  13  14   2-115.956 478.991   2
 -14 -13   2 201.263 368.293   3
 -27  13   2 759.270 572.158   3
  27 -14   2-198.868 348.393   1
 -13  27   2 154.111 500.507   4
  13  14   2 1017.89 620.825   4
 -13  27   2-229.658 406.892   2
  13  14   5 1370.33 720.185   2
 -13  27   5 1100.91 582.729   4
  13  14   5 1680.97 715.769   4
 -13  27   5 480.961 433.680   2
 -13  27   8 1796.46 677.698   2
 -13  27   8 1836.48 743.756   4
  13  14   8 904.560 660.835   4
  27 -13  -8 1206.43 829.888   1
 -14  27  -8 794.905 618.484   4
 -14  27  -8 155.913 651.431   2
  13 -27  -8 365.421 607.468   1
  14  13  -8 2100.52 1067.33   1
  13 -27  -8-9.44850 848.231   3
  14  13  -8 1230.03 511.334   2
 -13 -14  -8 447.519 656.082   3
 -27  14  -8 2251.31 675.834   3
 -27  14  -5 1209.09 514.053   3
  27 -13  -5 1104.27 630.881   1
 -14  27  -5 1247.63 625.157   4
  14  13  -5 576.273 772.730   1
 -14  27  -5-323.905 612.086   2
  14  13  -5 806.413 530.249   4
  14  13  -5 604.553 396.609   2
 -13 -14  -5 488.897 516.846   3
  13 -27  -5 782.015 562.632   1
 -27  14  -2 166.574 426.516   3
 -14  27  -2-620.189 579.924   4
  27 -13  -2-1179.87 542.595   1
 -14  27  -2 89.3212 512.204   2
  14  13  -2 462.973 496.090   4
  13 -27  -2-317.175 461.678   1
  14  13  -2-642.197 461.423   2
 -13 -14  -2 132.781 351.877   3
  14  13   1 1664.31 643.347   2
 -13 -14   1 612.449 341.123   3
 -27  14   1 691.813 450.286   3
 -14  27   1 692.600 503.654   4
  14  13   1 74.6415 573.882   4
 -14  27   1 81.2482 411.758   2
  27 -13   1 665.230 359.923   1
  14  13   4 2075.66 636.234   2
 -27  14   4 1119.43 241.047   2
 -14  27   4 2097.67 706.031   4
  14  13   4 2769.78 785.206   4
 -14  27   4 2953.35 603.942   2
  27 -13   4 1647.23 341.125   1
 -14  27   7 61.2506 505.607   2
  14  13   7 1634.50 800.406   2
 -27  14   7 358.311 493.216   4
 -14  27   7 85.1276 563.076   4
  14  13   7 1655.95 726.691   4
 -27  15  -6 3423.65 704.732   3
  15  12  -6 6336.07 1272.49   1
  27 -12  -6 5456.47 1007.84   1
 -15  27  -6 6550.47 1098.02   2
 -15  27  -6 2918.70 784.968   4
  15  12  -6 4141.22 733.773   4
  12 -27  -6 3579.48 924.934   3
  15  12  -6 3921.69 696.111   2
 -12 -15  -6 3491.27 762.949   3
  12 -27  -6 3631.12 828.830   1
  12 -27  -3 12071.7 1138.60   1
  15  12  -3 14593.1 1439.80   1
 -15  27  -3 11644.2 1283.50   4
 -15  27  -3 11790.2 1255.32   2
  15  12  -3 10627.8 1154.85   4
  15  12  -3 10048.2 995.885   2
 -12 -15  -3 10031.9 873.217   3
  27 -12  -3 8976.05 1109.24   1
 -27  15  -3 10420.8 999.916   3
  15  12   0 1530.99 565.101   2
 -27  15   0 1737.49 520.040   3
 -15  27   0 635.211 511.007   4
  27 -12   0 2085.25 600.839   1
 -15  27   0 2047.75 589.740   2
  15  12   0 1062.52 602.596   4
  12 -27   0 1630.30 530.095   1
 -12 -15   0 2469.47 454.648   3
 -27  15   3 7972.55 1002.86   3
 -27  15   3 6213.92 651.012   2
 -15  27   3 8196.57 1145.27   4
  15  12   3 7562.47 1088.39   4
 -15  27   3 8983.09 930.990   2
  27 -12   3 7492.94 644.863   1
  15  12   3 8997.54 1155.66   2
  15  12   6 1732.18 843.227   2
 -27  15   6 2191.46 652.481   4
 -15  27   6 2359.03 674.683   4
  15  12   6 2213.89 824.230   4
 -15  27   6 1348.84 499.937   2
  11 -27  -7 1317.56 646.301   1
  27 -11  -7-46.3064 671.671   1
 -16  27  -7 315.310 597.979   4
 -16  27  -7 1402.96 743.491   2
  16  11  -7-228.758 705.062   1
  16  11  -7-18.2357 438.771   4
  11 -27  -7-208.824 745.654   3
 -11 -16  -7-1731.00 752.276   3
  16  11  -7-63.8590 400.643   2
 -27  16  -7 275.841 550.071   3
 -27  16  -4 2734.84 610.792   3
  27 -11  -4 2365.23 845.601   1
 -16  27  -4 2484.01 706.009   4
  16  11  -4 2896.61 871.163   1
 -16  27  -4 1803.29 728.049   2
  16  11  -4 1026.81 496.276   4
  11 -27  -4 3163.58 720.576   1
  11 -27  -4 1523.23 579.572   3
 -11 -16  -4 2487.29 613.462   3
  16  11  -4 2534.05 592.561   2
 -11 -16  -1 278.690 294.516   3
  16  11  -1 1466.24 535.858   2
 -27  16  -1 1091.29 491.180   3
  16  11  -1 981.229 642.245   1
 -16  27  -1 1414.88 619.834   4
  27 -11  -1 1488.58 568.869   1
 -16  27  -1 1820.43 621.108   2
  16  11  -1 1364.47 593.157   4
  11 -27  -1 931.691 389.289   3
  11 -27  -1 1365.08 480.012   1
 -11 -16   2 2971.98 438.379   3
 -27  16   2 3758.87 745.725   3
 -27  16   2 2870.78 604.806   2
  27 -11   2 3142.32 514.271   1
 -16  27   2 3162.10 796.548   4
 -16  27   2 3641.15 655.824   2
  16  11   2 4662.90 912.771   4
  16  11   2 5224.72 903.915   2
  16  11   5 1026.40 632.200   2
 -27  16   5 448.148 519.999   4
 -16  27   5 211.157 464.160   4
  16  11   5 1239.04 622.322   4
 -16  27   5 354.685 373.136   2
 -16  27   8 47.8446 554.455   4
  10 -27  -8 1070.80 621.609   1
  27 -10  -8 1053.69 845.571   1
 -17  27  -8 1142.92 660.579   4
 -17  27  -8 1375.21 871.113   2
  17  10  -8 132.789 787.755   1
  10 -27  -8-390.596 753.802   3
 -10 -17  -8 997.632 794.695   3
 -27  17  -8 578.996 602.021   3
 -27  17  -5 1940.79 553.692   3
  27 -10  -5 2686.49 782.354   1
 -17  27  -5 841.168 633.546   4
 -17  27  -5 718.456 630.618   2
  17  10  -5 2466.41 869.548   1
  17  10  -5 1297.62 517.023   4
  10 -27  -5 3090.00 675.910   1
  10 -27  -5 1312.54 588.788   3
 -10 -17  -5 1968.88 624.952   3
  17  10  -5 989.612 474.928   2
  17  10  -2 3268.59 651.301   2
 -27  17  -2 3509.01 644.233   3
  10 -27  -2 2983.44 623.653   1
  27 -10  -2 1518.16 616.190   1
 -17  27  -2 3194.54 809.062   4
  17  10  -2 4408.15 898.280   1
 -17  27  -2 2819.54 778.175   2
  17  10  -2 5235.29 848.811   4
  10 -27  -2 3140.89 534.936   3
 -10 -17  -2 4021.90 551.441   3
 -10 -17   1 3968.46 464.668   3
  27 -10   1 3947.26 653.195   1
 -27  17   1 3568.30 694.840   3
  17  10   1 4664.26 794.415   1
 -27  17   1 3481.29 697.884   2
 -17  27   1 4464.37 893.674   4
 -17  27   1 5084.66 806.934   2
  17  10   1 4064.64 830.719   4
  17  10   1 5132.50 841.676   2
  27 -10   4 227.418 220.961   1
  17  10   4 1998.03 677.261   2
 -27  17   4 2210.60 690.467   4
 -17  27   4 917.617 558.225   4
 -27  17   4 684.762 239.990   2
  17  10   4 870.254 543.469   4
 -17  27   4 1169.07 461.328   2
 -17  27   7 885.598 535.238   2
 -27  17   7 1237.28 595.773   4
 -17  27   7 842.046 605.828   4
  17  10   7 1829.89 900.358   4
 -18  27  -6 4657.17 929.046   4
 -18  27  -6 5299.81 1074.89   2
  18   9  -6 5467.93 1221.24   1
   9 -27  -6 4678.25 942.523   3
  -9 -18  -6 5500.34 890.772   3
  18   9  -6 5646.46 781.558   2
  27  -9  -6 5256.10 1100.21   1
   9 -27  -6 5656.74 931.678   1
 -27  18  -6 4869.94 806.449   3
  18   9  -3 8322.77 1164.20   1
 -18  27  -3 4990.53 869.047   4
 -18  27  -3 6912.95 1051.69   2
  18   9  -3 5310.74 878.109   4
   9 -27  -3 6421.03 896.949   1
   9 -27  -3 6270.17 742.525   3
  27  -9  -3 6169.21 975.675   1
  -9 -18  -3 5145.22 671.790   3
  18   9  -3 6615.01 816.396   2
 -27  18  -3 5932.59 809.812   3
 -27  18   0 4537.46 749.083   3
 -27  18   0 3666.83 736.815   2
 -18  27   0 5157.58 898.528   4
  18   9   0 5215.28 856.187   1
 -18  27   0 4030.62 787.103   2
  18   9   0 3261.10 770.182   4
  18   9   0 4531.74 769.288   2
  27  -9   0 5136.62 734.054   1
  -9 -18   0 4763.23 492.374   3
  18   9   3 2847.94 714.280   2
 -27  18   3 3474.43 771.493   4
 -27  18   3 3284.38 519.814   2
  18   9   3 2928.59 575.642   1
 -18  27   3 4379.23 853.220   4
 -18  27   3 3277.17 635.028   2
  18   9   3 3808.14 820.814   4
  27  -9   3 2040.92 399.237   1
 -18  27   6 1231.78 628.754   4
 -18  27   6 1481.54 501.093   2
 -27  18   6 1979.74 737.699   4
 -27  19  -7 3001.33 729.001   3
  27  -8  -7 1952.94 816.226   1
 -19  27  -7 3664.81 893.108   4
 -19  27  -7 796.681 706.826   2
  19   8  -7 3452.06 1018.21   1
   8 -27  -7 3036.10 755.541   1
   8 -27  -7 1960.55 819.978   3
  -8 -19  -7 1253.67 664.039   3
 -27  19  -4 3313.68 631.931   3
 -19  27  -4 5159.77 535.189   3
  27  -8  -4 1988.86 748.664   1
 -19  27  -4 3649.31 866.884   4
 -19  27  -4 3197.46 880.897   2
   8 -27  -4 5116.95 875.235   1
  19   8  -4 4232.42 1013.19   1
  19   8  -4 3375.73 705.020   4
   8 -27  -4 3359.24 641.184   3
  -8 -19  -4 3967.46 693.211   3
  19   8  -4 3733.09 676.756   2
  19   8  -1 2668.73 660.769   2
 -27  19  -1 1736.59 551.318   3
  27  -8  -1 2507.81 645.589   1
 -27  19  -1 1678.02 640.671   2
 -19  27  -1 1943.36 701.746   4
  19   8  -1 1996.87 686.611   1
 -19  27  -1 3396.97 750.005   2
  19   8  -1 2656.24 689.761   4
   8 -27  -1 2098.32 330.287   3
  -8 -19  -1 1991.29 402.016   3
  19   8   2 2383.55 726.163   2
 -27  19   2 3230.53 784.307   3
 -27  19   2 3950.52 824.617   4
 -19  27   2 2583.34 744.979   4
 -27  19   2 2947.22 588.607   2
  19   8   2 3101.50 649.936   1
 -19  27   2 3678.46 683.884   2
  27  -8   2 1990.62 473.807   1
  19   8   2 3266.23 829.603   4
  19   8   5 2938.16 858.413   2
 -27  19   5 734.315 524.729   4
 -19  27   5 2333.87 717.872   4
  19   8   5 2737.48 901.103   4
 -19  27   5 2250.65 532.419   2
 -19  27   8 171.531 523.285   4
 -20  27  -5 3316.54 508.904   3
 -27  20  -5 2893.62 601.680   3
  20   7  -5 2483.77 548.767   2
  27  -7  -5 2291.17 830.788   1
 -20  27  -5 3147.44 809.757   4
  20   7  -5 5047.93 1164.89   1
 -20  27  -5 3146.70 883.487   2
   7 -27  -5 3808.57 741.082   1
   7 -27  -5 3373.67 765.396   3
  -7 -20  -5 3949.74 748.259   3
  27  -7  -2 355.170 496.583   1
  20   7  -2 463.061 443.676   2
 -27  20  -2 1361.74 490.343   3
 -27  20  -2 1078.46 646.870   2
 -20  27  -2 1158.31 597.151   2
  20   7  -2 1744.27 730.117   1
  20   7  -2 905.763 606.129   4
   7 -27  -2 597.628 353.511   3
  -7 -20  -2 632.263 318.565   3
  -7 -20   1 3737.61 375.259   3
 -27  20   1 5545.01 842.126   3
  20   7   1 3786.19 770.774   2
 -27  20   1 2500.04 755.565   4
 -20  27   1 2445.23 754.163   4
 -27  20   1 2909.98 621.941   2
 -20  27   1 4317.45 763.560   2
  20   7   1 3731.83 775.188   1
  20   7   1 3727.69 830.427   4
  27  -7   1 5057.45 688.501   1
  20   7   4 543.919 598.543   2
 -27  20   4 2068.64 730.252   4
 -20  27   4 1205.59 595.318   4
  20   7   4 1476.45 466.380   1
 -27  20   4 712.195 267.118   2
  20   7   4 1164.81 692.003   4
 -20  27   4 1380.88 477.095   2
 -27  20   7 1951.01 655.753   4
 -20  27   7 93.1364 545.437   4
  27  -6  -6 154.879 642.915   1
 -27  21  -6 2034.92 578.505   3
 -21  27  -6 610.837 617.536   4
  21   6  -6 2542.53 542.705   2
 -21  27  -6 1561.51 435.687   3
 -27  21  -6 1985.58 821.746   4
 -27  21  -6 2135.87 931.852   2
 -21  27  -6 1919.38 900.085   2
  21   6  -6 1632.57 983.947   1
   6 -27  -6 2403.77 733.681   1
   6 -27  -6 2083.55 697.819   3
  -6 -21  -6 1800.70 686.774   3
  27  -6  -3 2247.77 695.145   1
 -27  21  -3 3044.74 634.996   3
  21   6  -3 2459.17 605.419   2
 -21  27  -3 1913.93 453.297   3
 -27  21  -3 2046.94 755.509   4
 -27  21  -3 3564.51 899.403   2
 -21  27  -3 1991.87 766.560   4
 -21  27  -3 1259.26 665.533   2
  21   6  -3 2299.95 870.613   1
   6 -27  -3 1968.86 514.213   3
  -6 -21  -3 2589.70 492.091   3
  27  -6   0 1758.01 559.146   1
  21   6   0 1712.49 571.349   2
 -27  21   0 2556.43 622.485   3
 -27  21   0 1214.98 712.595   4
 -21  27   0 3069.84 854.038   4
 -27  21   0 2684.15 711.584   2
 -21  27   0 2454.13 662.024   2
  21   6   0 2554.59 746.091   1
  21   6   0 3073.25 754.932   4
  -6 -21   0 2306.60 326.366   3
  21   6   3 1794.54 717.420   2
 -27  21   3 2426.91 755.966   4
 -21  27   3 3603.60 848.923   4
 -27  21   3 2338.82 493.579   2
 -21  27   3 4688.27 694.320   2
  21   6   3 2491.38 584.709   1
  27  -6   3 2602.98 421.624   1
 -27  21   6 4392.49 902.815   4
 -21  27   6 4141.95 873.231   4
  27  -5  -7 2306.44 888.867   1
 -27  22  -7 3459.20 703.126   3
 -27  22  -7 2684.04 861.935   4
 -27  22  -7 2255.95 1005.15   2
 -22  27  -7 3575.10 1020.44   4
 -22  27  -7 2344.27 921.275   2
  22   5  -7 3857.23 1123.63   1
   5 -27  -7 5454.66 882.127   1
   5 -27  -7 2583.58 845.337   3
  -5 -22  -7 3294.48 888.103   3
 -27  22  -4 2262.62 580.106   3
  22   5  -4 3273.07 632.822   2
 -22  27  -4 2904.18 523.472   3
 -27  22  -4 2442.76 860.293   2
 -22  27  -4 2759.26 849.116   4
 -22  27  -4 3391.43 905.505   2
  22   5  -4 3435.71 890.683   1
   5 -27  -4 1601.49 542.420   3
 -27  22  -4 1366.96 760.892   4
  -5 -22  -4 2132.26 557.347   3
  27  -5  -4 1620.56 766.811   1
  22   5  -1 7434.32 954.900   2
 -27  22  -1 9103.93 968.609   3
 -27  22  -1 5814.67 1029.71   4
 -27  22  -1 6610.36 1008.45   2
 -22  27  -1 7861.48 1146.53   4
  22   5  -1 7428.18 1098.16   1
 -22  27  -1 8715.98 1117.32   2
  27  -5  -1 5567.93 874.004   1
   5 -27  -1 5160.99 344.305   3
  -5 -22  -1 6196.94 507.519   3
  22   5   2 5077.62 914.498   2
 -27  22   2 5612.96 1013.92   4
 -22  27   2 7338.02 1103.13   4
 -27  22   2 4427.47 688.711   2
  22   5   2 4784.99 744.034   1
 -22  27   2 7034.73 886.550   2
  27  -5   2 5443.84 675.247   1
 -27  22   5 2781.43 770.266   4
 -22  27   5 3038.92 789.165   4
 -22  27   5 2485.48 524.328   2
 -23  27  -5 3728.68 586.389   3
  23   4  -5 3121.75 614.177   2
 -27  23  -5 2869.84 855.224   4
 -27  23  -5 1596.46 774.293   2
 -23  27  -5 2715.48 874.335   4
 -23  27  -5 4814.78 1061.52   2
  23   4  -5 3492.77 967.110   1
   4 -27  -5 3228.37 712.671   3
  -4 -23  -5 3510.22 715.960   3
  27  -4  -5 2660.43 881.990   1
 -27  23  -5 4276.51 699.139   3
 -27  23  -2 1781.57 507.517   3
  23   4  -2 1009.66 543.079   2
 -23  27  -2 1955.14 505.831   3
 -27  23  -2 1460.94 775.431   4
 -23  27  -2 1719.54 707.520   4
 -27  23  -2 1127.76 623.776   2
 -23  27  -2 2281.34 801.196   2
  23   4  -2 1985.32 704.042   1
   4 -27  -2 1169.77 351.593   3
  -4 -23  -2 338.761 279.129   3
  27  -4  -2 610.920 588.210   1
  27  -4   1 3446.71 655.072   1
  23   4   1 1570.55 591.333   2
 -27  23   1 2604.16 678.020   3
 -27  23   1 2144.90 815.322   4
 -23  27   1 3320.35 819.101   4
 -27  23   1 2473.16 654.342   2
 -23  27   1 1751.33 575.652   2
  23   4   1 2100.09 650.932   1
 -27  23   4-126.161 534.728   4
 -23  27   4 421.592 539.434   4
 -27  23   4-37.7580 298.411   2
 -23  27   4 68.5470 337.739   2
 -27  23   7 1157.57 631.033   4
 -23  27   7-56.3478 517.489   4
 -27  24  -6 1941.95 558.455   3
 -24  27  -6 1666.66 499.174   3
 -24  27  -6 1426.45 758.190   4
 -27  24  -6 1443.76 835.234   2
 -27  24  -6 1875.79 776.430   4
 -24  27  -6 2032.66 945.012   2
  24   3  -6 3879.85 1160.46   1
   3 -27  -6 2741.52 770.531   3
  -3 -24  -6 2098.13 740.432   3
  27  -3  -6 1990.03 849.139   1
 -27  24  -3 1113.52 437.556   3
 -24  27  -3 1419.48 448.655   3
  24   3  -3 1435.43 544.330   2
 -27  24  -3 2171.87 761.550   4
 -24  27  -3 361.485 664.886   4
 -27  24  -3 1737.87 757.263   2
 -24  27  -3 1957.89 792.952   2
  24   3  -3 2001.72 806.699   1
   3 -27  -3 1036.62 454.554   3
  -3 -24  -3 1615.67 480.137   3
  27  -3  -3 1153.19 684.677   1
  24   3   0 7728.82 1019.19   2
 -27  24   0 7267.95 907.710   3
 -27  24   0 6599.00 1090.20   4
 -24  27   0 5557.65 1111.62   4
 -27  24   0 7963.38 1030.30   2
 -24  27   0 5605.33 930.493   2
  24   3   0 7463.10 1005.70   1
  27  -3   0 6347.34 879.700   1
  27  -3   3 201.709 332.689   1
 -27  24   3 592.566 599.745   4
 -24  27   3 134.066 642.786   4
 -27  24   3 471.848 391.409   2
 -24  27   3 689.281 419.494   2
  24   3   3 44.0066 390.460   1
 -27  24   6 645.462 591.557   4
 -24  27   6 2040.09 740.732   4
 -27  25  -4 839.664 448.764   3
 -25  27  -4 2036.75 519.060   3
  25   2  -4 2131.19 559.805   2
 -27  25  -4 1508.05 712.742   4
 -25  27  -4 851.935 655.304   4
 -27  25  -4 523.022 675.294   2
 -25  27  -4 2918.03 901.448   2
  25   2  -4 2034.95 920.156   1
   2 -27  -4 2262.18 608.350   3
  -2 -25  -4 1382.28 536.407   3
  27  -2  -4 1892.49 806.588   1
 -27  25  -1 8609.84 939.004   3
 -25  27  -1 7793.81 912.478   3
  25   2  -1 6045.98 867.273   2
 -27  25  -1 4858.06 1062.27   4
 -25  27  -1 8394.32 1209.97   4
 -27  25  -1 6297.48 1064.67   2
 -25  27  -1 7737.67 1111.16   2
  25   2  -1 6261.32 987.449   1
  27  -2  -1 6003.62 935.043   1
  27  -2   2 3002.73 602.249   1
 -25  27   2 6155.89 1089.00   4
 -27  25   2 3737.08 951.741   4
 -27  25   2 4295.48 731.215   2
 -25  27   2 5325.11 786.903   2
  25   2   2 1535.39 550.278   1
 -27  25   5 4114.61 1010.44   4
 -25  27   5 4459.12 963.442   4
 -27  26  -5 1600.20 552.093   3
 -26  27  -5 1613.84 523.682   3
 -27  26  -5 561.327 714.345   4
 -26  27  -5 611.001 730.530   4
 -27  26  -5 2163.50 905.537   2
 -26  27  -5 1268.00 840.307   2
  26   1  -5 235.834 687.996   1
   1 -27  -5 2144.42 676.452   3
  -1 -26  -5 2349.71 675.216   3
  27  -1  -5 1605.02 899.876   1
 -27  26  -2 1881.06 533.856   3
 -26  27  -2 1531.93 522.910   3
 -27  26  -2 1641.96 726.144   4
 -26  27  -2 2542.26 838.267   4
 -27  26  -2 1509.96 704.930   2
 -26  27  -2 3379.81 886.117   2
  26   1  -2 2527.05 796.102   1
  27  -1  -2 2125.30 770.792   1
  -1 -26  -2 1535.75 363.563   3
 -27  26   1 1245.26 695.190   4
 -26  27   1 3318.65 942.513   4
 -27  26   1 2130.01 640.556   2
 -26  27   1 2672.97 670.600   2
  26   1   1 2092.40 624.296   1
  27  -1   1 1830.22 614.892   1
 -27  26   4 898.367 702.416   4
 -26  27   4 631.012 608.210   4
 -26  27   4 949.041 405.599   2
 -27  27  -6 2605.11 645.701   3
 -27  27  -6 789.531 735.989   4
 -27  27  -6 1590.25 936.688   2
   0 -27  -6 1762.42 738.882   3
  27   0  -6 1522.35 867.560   1
 -27  27  -3-478.027 469.501   3
 -27  27  -3 1033.53 701.775   4
 -27  27  -3 93.4654 634.983   2
  27   0  -3 427.594 649.731   1
   0 -27  -3-14.5608 347.786   3
 -27  27   0 3729.46 975.275   4
 -27  27   0 5592.64 973.769   2
  27   0   0 4679.56 864.385   1
 -27  27   3 653.079 694.176   4
 -27  27   3 284.122 450.592   2
 -27  27   6 3051.70 888.754   4
 -28   0  -4 665.087 571.231   3
   0  28  -4 1157.31 738.330   4
  28 -28  -4 757.382 663.011   1
   0  28  -4 550.500 559.797   2
 -28   0  -1 152.998 482.734   3
  28 -28  -1 662.134 483.938   1
   0  28  -1-95.4470 619.132   4
   0  28  -1 200.784 510.948   2
 -28   0   2 1078.16 629.466   3
   0  28   2 306.207 736.963   4
  28 -28   2 844.710 519.657   1
   0  28   2 801.203 599.383   2
   0  28   5-489.768 591.804   2
   0  28   5 1081.87 806.921   4
  -1  28  -5 6676.36 1128.88   4
   1  27  -5 5831.13 1050.90   4
  27 -28  -5 5230.65 1051.88   1
  -1  28  -5 7837.77 1161.27   2
   1  27  -5 6301.55 1067.35   2
  28 -27  -5 6216.18 1064.24   1
 -27  -1  -5 7629.11 1077.71   3
 -28   1  -5 5821.79 916.822   3
 -27  -1  -2 2538.57 651.828   3
 -28   1  -2 1214.06 568.679   3
  -1  28  -2 2833.03 896.685   4
   1  27  -2 164.643 601.791   4
  -1  28  -2 1567.51 740.024   2
   1  27  -2 1101.98 654.110   2
  28 -27  -2 1337.33 600.990   1
  27 -28  -2 2095.30 708.670   1
 -27  -1   1 4000.92 817.734   3
 -28   1   1 5242.11 861.689   3
   1  27   1 7434.61 1181.14   4
  -1  28   1 4417.91 1008.52   4
  28 -27   1 6325.66 899.721   1
  -1  28   1 5484.86 948.256   2
   1  27   1 6354.21 955.886   2
  27 -28   1 6867.66 943.045   1
 -28   1   4 2000.94 793.889   3
 -27  -1   4 2266.97 794.049   3
  -1  28   4 2019.18 917.580   4
   1  27   4 3046.29 960.310   4
  -1  28   4 1025.93 620.638   2
   1  27   4 3584.20 830.506   2
  28 -26  -6 557.725 803.227   1
  -2  28  -6 1313.70 753.764   4
   2  26  -6 1813.34 736.276   4
  26 -28  -6 1873.79 784.583   1
  -2  28  -6-7.12319 586.323   2
   2  26  -6 908.015 621.104   2
 -26  -2  -6 1426.28 710.243   3
 -28   2  -6 1260.51 677.686   3
 -28   2  -3 3958.39 783.972   3
  -2  28  -3 3383.58 910.339   4
  28 -26  -3 3517.33 787.698   1
   2  26  -3 4128.24 929.505   4
  -2  28  -3 3728.16 822.691   2
   2  26  -3 2907.64 812.078   2
  26 -28  -3 3735.84 856.303   1
 -26  -2  -3 4021.73 793.789   3
 -26  -2   0 1657.39 610.229   3
 -28   2   0 972.818 556.644   3
  28 -26   0 724.976 475.552   1
  -2  28   0-86.3866 657.464   4
   2  26   0 1660.19 813.397   4
  -2  28   0 1703.31 665.746   2
   2  26   0 2191.06 693.799   2
  26 -28   0 851.575 547.716   1
 -26  -2   3 3348.30 836.182   3
 -28   2   3 2942.54 826.776   3
  28 -26   3 4443.09 735.445   1
  -2  28   3 4702.95 1050.52   4
   2  26   3 2582.61 866.350   4
  -2  28   3 5401.89 912.229   2
   2  26   3 5969.85 951.117   2
  26 -28   3 6107.29 830.990   1
  -2  28   6 929.629 661.549   2
   2  26   6 556.489 606.648   2
  -2  28   6 824.209 726.257   4
   2  26   6 1141.50 800.051   4
 -25  -3  -4 1681.32 646.579   3
 -28   3  -4 3170.17 745.827   3
  28 -25  -4 2415.62 772.048   1
  -3  28  -4 3323.89 811.987   4
   3  25  -4 2322.73 796.814   4
  -3  28  -4 1870.27 710.616   2
   3  25  -4 1673.09 678.620   2
  25 -28  -4 2667.68 733.821   1
 -25  -3  -1 875.619 499.464   3
 -28   3  -1 278.265 486.065   3
  -3  28  -1 1124.02 682.231   4
  25 -28  -1 1426.16 593.390   1
   3  25  -1 1690.94 756.344   4
  -3  28  -1 1519.25 675.820   2
  28 -25  -1 986.354 522.392   1
   3  25  -1 782.560 578.941   2
 -25  -3   2 4157.64 810.342   3
 -28   3   2 1905.38 667.974   3
  25 -28   2 3258.25 680.661   1
  -3  28   2 1021.27 612.268   4
   3  25   2 2972.40 855.291   4
  28 -25   2 4982.74 743.377   1
   3  25   2 4158.43 882.156   2
  -3  28   2 3173.11 710.821   2
   3  25   5 372.165 529.798   2
  -3  28   5 172.110 619.752   4
   3  25   5 846.834 734.911   4
  -3  28   5 31.8728 540.433   2
  28 -24  -5 3885.38 913.750   1
   4  24  -5 6472.93 1079.27   4
  -4  28  -5 4186.41 940.432   4
   4  24  -5 5154.96 930.829   2
  -4  28  -5 4026.27 871.226   2
  24 -28  -5 5766.09 1020.44   1
 -28   4  -5 4322.19 872.528   3
 -24  -4  -5 4294.92 845.517   3
 -24  -4  -2 1433.86 597.232   3
 -28   4  -2 723.456 483.407   3
  24 -28  -2 1430.22 576.815   1
  28 -24  -2 1023.95 569.536   1
  -4  28  -2 2559.17 795.660   4
   4  24  -2 1905.70 767.415   4
  -4  28  -2 693.532 578.149   2
   4  24  -2 1190.64 631.704   2
 -24  -4   1 7757.28 918.839   3
 -28   4   1 7428.18 960.602   3
  28 -24   1 6059.90 822.827   1
  -4  28   1 6914.59 1106.25   4
   4  24   1 7461.56 1119.30   4
  -4  28   1 8636.63 1062.86   2
   4  24   1 8238.63 1117.87   2
  24 -28   1 8852.91 997.092   1
 -28   4   4 1686.58 721.334   3
 -24  -4   4 1226.28 740.826   3
  -4  28   4 840.429 672.943   4
   4  24   4 2015.20 827.608   4
  28 -24   4 984.097 469.081   1
  -4  28   4 1129.12 631.985   2
   4  24   4 2075.91 732.540   2
  -5  28  -6 1094.55 665.275   4
   5  23  -6-38.1236 648.226   4
  -5  28  -6 870.735 619.291   2
  23 -28  -6 330.195 610.723   1
   5  23  -6 440.340 526.797   2
  28 -23  -6 838.794 741.155   1
 -23  -5  -6-15.3271 572.549   3
 -28   5  -6-338.807 611.389   3
  23 -28  -3 6487.81 933.723   1
  -5  28  -3 7218.46 1143.99   4
   5  23  -3 6293.17 1091.95   4
  -5  28  -3 5466.29 947.933   2
  28 -23  -3 6318.88 975.571   1
   5  23  -3 4981.15 893.004   2
 -23  -5  -3 4489.46 779.358   3
 -28   5  -3 5242.07 835.110   3
 -23  -5   0 1504.02 564.059   3
 -28   5   0 1133.28 507.138   3
  23 -28   0 1554.68 545.022   1
  -5  28   0 1777.68 731.142   4
   5  23   0 164.293 561.615   4
  28 -23   0 1998.69 571.771   1
  -5  28   0 2792.59 731.392   2
   5  23   0 1370.21 576.601   2
 -23  -5   3 6862.37 941.131   3
 -28   5   3 7025.80 1020.81   3
  -5  28   3 4086.46 904.136   4
   5  23   3 6124.76 1075.76   4
  -5  28   3 5116.55 895.212   2
  28 -23   3 4798.49 736.923   1
   5  23   3 3333.88 758.374   2
  -5  28   6 959.116 642.423   2
   5  23   6 1416.47 716.537   2
  -5  28   6 1749.99 742.795   4
   5  23   6 1818.20 774.509   4
  -6  28  -7 501.779 594.295   4
   6  22  -7 1284.57 660.720   4
  -6  28  -7 189.983 606.036   2
  22 -28  -7 83.9413 544.410   1
   6  22  -7 1165.41 667.122   2
  28 -22  -7 1146.22 698.947   1
 -22  -6  -7 2016.38 815.744   3
 -28   6  -7 870.359 699.161   3
  -6  28  -4 2619.18 811.141   4
   6  22  -4 3276.16 874.863   4
  -6  28  -4 1571.40 645.807   2
   6  22  -4 3224.01 728.409   2
 -28   6  -4 3623.95 813.866   3
  28 -22  -4 2899.19 737.781   1
  22 -28  -4 1684.16 659.609   1
 -22  -6  -4 2675.75 727.212   3
 -22  -6  -1 412.086 431.354   3
 -28   6  -1 1390.02 545.704   3
  28 -22  -1 1460.83 598.485   1
  -6  28  -1 1799.84 689.414   4
   6  22  -1 1066.06 718.204   4
  -6  28  -1 714.047 540.958   2
   6  22  -1 2135.86 621.301   2
  22 -28  -1 375.199 451.118   1
  22 -28   2 2929.29 663.341   1
 -22  -6   2 2503.69 651.835   3
 -28   6   2 2207.05 708.038   3
  -6  28   2 1860.10 772.845   4
  28 -22   2 2828.18 576.318   1
   6  22   2 1874.25 704.699   4
  -6  28   2 2649.29 692.709   2
   6  22   2 1990.33 639.961   2
   6  22   5 659.330 631.511   2
  -6  28   5 617.568 598.553   4
   6  22   5-35.4036 609.983   4
  -6  28   5 597.677 550.720   2
 -28   7  -5 3298.32 730.444   3
  21 -28  -5 4961.34 965.039   1
  -7  28  -5 3837.56 868.366   4
  -7  28  -5 4969.81 961.650   2
   7  21  -5 4162.30 882.461   4
   7  21  -5 4777.22 868.816   2
  28 -21  -5 2672.46 824.518   1
 -21  -7  -5 4681.45 794.509   3
 -21  -7  -2 1471.25 502.931   3
 -28   7  -2 500.678 460.784   3
  28 -21  -2 1626.86 624.170   1
  -7  28  -2 592.272 573.941   4
   7  21  -2 2417.19 784.956   4
  -7  28  -2 1349.45 608.337   2
  21 -28  -2 1847.38 599.206   1
   7  21  -2 1350.59 560.316   2
 -21  -7   1 5224.37 754.345   3
 -28   7   1 3659.16 743.995   3
  21 -28   1 3910.55 753.873   1
  -7  28   1 5212.43 988.645   4
   7  21   1 4996.59 948.832   4
  -7  28   1 4914.97 831.200   2
   7  21   1 4164.71 827.249   2
  28 -21   1 5281.56 763.462   1
   7  21   4 1820.29 702.280   2
 -28   7   4 1752.83 729.913   3
  28 -21   4 1302.38 438.560   1
  -7  28   4 716.870 603.940   4
   7  21   4-173.601 623.734   4
  -7  28   4 668.426 504.315   2
  -7  28   7 2730.60 798.355   2
   7  21   7 4185.40 1008.94   2
  -7  28   7 3368.25 945.488   4
   7  21   7 2721.65 865.206   4
  -8  28  -6 2125.80 724.378   4
   8  20  -6 2795.81 803.466   4
  -8  28  -6 1572.33 719.817   2
  28 -20  -6 1315.82 728.392   1
   8  20  -6 698.930 545.685   2
  20 -28  -6 2603.80 816.117   1
 -20  -8  -6 1596.52 710.477   3
 -28   8  -6 1777.08 693.871   3
  20 -28  -3 6761.53 937.668   1
  -8  28  -3 10223.5 1269.25   4
  28 -20  -3 7723.84 1014.02   1
   8  20  -3 6610.36 1075.10   4
  -8  28  -3 9140.93 1153.24   2
   8  20  -3 7377.92 945.495   2
 -20  -8  -3 8395.99 937.552   3
 -28   8  -3 8598.23 996.607   3
 -20  -8   0 1503.58 515.968   3
 -28   8   0 574.549 427.288   3
  28 -20   0 1347.91 532.455   1
  -8  28   0 1505.69 631.782   4
   8  20   0 1608.60 676.049   4
  -8  28   0 1241.37 603.899   2
  20 -28   0 1610.31 537.378   1
   8  20   0 1758.09 619.935   2
  28 -20   3 3203.41 552.109   1
   8  20   3 2864.14 713.865   2
 -20  -8   3 4933.71 769.514   3
 -28   8   3 3626.42 813.707   3
  -8  28   3 4490.35 964.585   4
   8  20   3 4947.83 942.486   4
  -8  28   3 4129.00 788.628   2
   8  20   6 176.193 630.317   2
  -8  28   6 1893.42 786.541   4
   8  20   6 1772.47 791.950   4
  -8  28   6 1190.97 617.867   2
   9  19  -7 363.234 734.775   1
  -9  28  -7 240.930 560.686   4
  -9  28  -7-394.541 622.147   2
   9  19  -7 925.414 551.133   4
  28 -19  -7 134.110 642.724   1
   9  19  -7 410.067 518.260   2
  19 -28  -7-294.361 556.652   1
 -19  -9  -7 771.763 718.352   3
 -28   9  -7 362.785 528.784   3
 -28   9  -4 2518.23 672.686   3
  19 -28  -4 3659.31 768.243   1
  -9  28  -4 1609.03 684.916   4
   9  19  -4 2745.24 788.903   4
  -9  28  -4 3925.82 873.862   2
  28 -19  -4 3182.61 766.805   1
   9  19  -4 2246.31 632.655   2
 -19  -9  -4 3560.50 724.675   3
  28 -19  -1 3594.76 756.243   1
 -19  -9  -1 2577.36 547.755   3
 -28   9  -1 2805.87 629.050   3
  -9  28  -1 1975.49 640.927   4
  19 -28  -1 1688.59 520.179   1
   9  19  -1 1920.03 803.963   4
  -9  28  -1 3427.21 766.901   2
   9  19  -1 3913.47 760.543   2
 -19  -9   2 562.840 455.133   3
 -28   9   2 194.582 498.027   3
  -9  28   2 1218.97 671.269   4
   9  19   2 136.532 634.399   4
  -9  28   2 651.503 460.602   2
  28 -19   2-299.048 417.368   1
  19 -28   2 1002.01 503.594   1
   9  19   2 793.995 563.580   2
   9  19   5-191.369 582.090   2
  -9  28   5-491.691 594.785   4
   9  19   5 246.479 643.627   4
  -9  28   5 68.9329 445.020   2
 -28  10  -5 2350.45 656.769   3
  18 -28  -5 3533.92 786.295   1
 -10  28  -5 2138.66 684.167   4
 -10  28  -5 1846.86 728.227   2
  10  18  -5 3697.07 850.989   4
  28 -18  -5 2268.48 797.541   1
  10  18  -5 3734.91 744.305   2
 -18 -10  -5 2217.45 647.249   3
 -18 -10  -2 210.150 369.604   3
 -28  10  -2 857.093 532.195   3
  18 -28  -2-283.235 502.225   1
 -10  28  -2 444.634 667.715   4
  10  18  -2 633.705 593.071   4
 -10  28  -2 1090.33 586.017   2
  28 -18  -2 233.682 472.155   1
  10  18  -2 459.147 451.200   2
 -28  10   1 4133.95 788.150   3
 -18 -10   1 3129.82 568.270   3
  28 -18   1 3088.37 614.555   1
 -10  28   1 3831.17 873.242   4
  10  18   1 3118.05 828.418   4
 -10  28   1 3083.36 634.522   2
  18 -28   1 4090.66 700.563   1
  10  18   1 3290.16 740.829   2
  10  18   4 1507.93 672.471   2
 -10  28   4 1193.01 725.891   4
  10  18   4 414.350 608.524   4
  28 -18   4-306.244 336.104   1
 -10  28   4 60.2150 424.351   2
 -10  28   7 1205.54 684.077   2
  10  18   7 1919.81 760.049   2
 -28  10   7 1364.30 591.094   4
 -10  28   7 1190.45 648.718   4
  10  18   7 3717.18 933.665   4
 -28  11  -6 4536.59 799.389   3
  17 -28  -6 4319.58 900.597   1
  11  17  -6 2223.53 876.773   1
 -11  28  -6 4046.30 906.511   4
 -11  28  -6 3045.05 844.891   2
  28 -17  -6 3595.79 966.128   1
  11  17  -6 3740.35 811.630   4
  11  17  -6 4817.27 795.992   2
 -17 -11  -6 3661.75 806.643   3
  28 -17  -3 6519.77 946.753   1
 -11  28  -3 6317.72 1046.31   4
 -11  28  -3 6699.94 1006.37   2
  11  17  -3 5580.42 989.886   4
  17 -28  -3 5202.47 860.314   1
  11  17  -3 6117.14 875.579   2
 -28  11  -3 5619.73 807.895   3
 -17 -11  -3 4117.23 641.814   3
 -28  11   0 4776.57 782.068   3
  17 -28   0 6373.97 833.236   1
 -11  28   0 4728.90 905.651   4
  28 -17   0 5244.22 753.774   1
  11  17   0 5204.06 961.054   4
 -11  28   0 6509.34 903.920   2
  11  17   0 5306.79 840.273   2
 -17 -11   0 5520.66 682.074   3
 -17 -11   3 7941.70 833.184   3
 -28  11   3 6671.87 991.696   3
  28 -17   3 6883.36 677.556   1
 -11  28   3 7528.04 1117.43   4
  11  17   3 8483.96 1139.95   4
 -11  28   3 8226.69 951.005   2
  11  17   3 8918.04 1109.63   2
  11  17   6 575.648 659.173   2
 -11  28   6 789.171 644.576   4
 -11  28   6 680.214 525.980   2
  16 -28  -7 830.182 605.500   1
 -12  28  -7 2083.00 753.893   4
  12  16  -7 169.882 834.521   1
  28 -16  -7 484.488 750.066   1
 -12  28  -7 384.117 651.321   2
  12  16  -7 637.026 537.511   4
  12  16  -7 889.878 543.472   2
 -16 -12  -7 335.445 595.128   3
 -28  12  -7 1383.45 677.390   3
 -28  12  -4 566.494 496.357   3
 -12  28  -4 1580.75 646.037   4
 -12  28  -4 918.381 632.609   2
  28 -16  -4 857.474 618.546   1
  12  16  -4 103.569 511.065   4
  16 -28  -4 594.320 580.022   1
  12  16  -4 1793.95 560.383   2
 -16 -12  -4 749.384 515.669   3
 -16 -12  -1 1448.51 452.930   3
 -28  12  -1 404.591 470.666   3
 -12  28  -1 237.334 529.054   4
  12  16  -1 719.319 559.745   4
 -12  28  -1 1414.67 568.870   2
  28 -16  -1 289.412 490.416   1
  12  16  -1 1127.64 494.429   2
  16 -28  -1 946.344 534.864   1
  12  16   2 729.900 543.931   2
 -16 -12   2 123.497 377.181   3
 -28  12   2 887.790 553.304   3
 -12  28   2 441.226 568.805   4
  28 -16   2 1060.77 452.184   1
  12  16   2 792.168 643.515   4
 -12  28   2-160.728 460.513   2
  12  16   5-8.12566 578.236   2
 -12  28   5-191.891 545.604   4
  12  16   5 256.435 578.512   4
 -12  28   5-4.83617 463.367   2
 -28  13  -5 1110.67 536.017   3
  13  15  -5 2368.96 822.333   1
 -13  28  -5 1877.46 687.385   4
  28 -15  -5 2087.18 739.679   1
 -13  28  -5 1233.27 694.600   2
  13  15  -5 1269.26 617.611   4
  15 -28  -5 744.430 565.471   1
  13  15  -5 1908.77 574.532   2
 -15 -13  -5 1247.21 579.138   3
 -28  13  -2-50.6328 462.313   3
 -13  28  -2 758.251 589.090   4
 -13  28  -2-393.265 566.166   2
  13  15  -2 504.463 580.226   4
  28 -15  -2-519.185 580.765   1
  15 -28  -2-24.4120 438.409   1
  13  15  -2 708.822 484.748   2
 -15 -13  -2 521.690 397.979   3
  28 -15   1 3379.86 594.204   1
  13  15   1 3339.15 748.563   2
 -15 -13   1 3699.27 566.687   3
 -28  13   1 3077.32 732.207   3
 -13  28   1 2666.72 772.523   4
  13  15   1 4648.69 898.478   4
 -13  28   1 2510.19 648.549   2
  13  15   4 1662.37 711.063   2
  28 -15   4 1225.62 361.686   1
 -13  28   4 78.1105 543.234   4
  13  15   4 312.669 569.316   4
 -13  28   4 1053.51 508.211   2
 -13  28   7 616.768 540.307   2
  13  15   7 535.730 653.529   2
 -28  13   7 876.475 569.170   4
 -13  28   7 410.469 622.456   4
  13  15   7 227.782 633.967   4
 -28  14  -6 2024.42 632.914   3
 -14  28  -6 3899.86 895.803   4
  28 -14  -6 2807.02 847.027   1
  14  14  -6 2882.71 919.088   1
 -14  28  -6 2828.84 843.193   2
  14  14  -6 2804.03 694.979   4
  14 -28  -6 3086.06 794.156   1
  14  14  -6 3215.59 630.444   2
 -14 -14  -6 2891.62 708.288   3
  28 -14  -3 7859.53 1073.90   1
  14  14  -3 10453.8 1259.23   1
 -14  28  -3 9690.92 1241.60   4
 -14  28  -3 8190.67 1127.48   2
  14  14  -3 8347.52 1119.11   4
  14  14  -3 8930.36 983.986   2
  14 -28  -3 8047.61 978.774   1
 -14 -14  -3 8226.15 855.079   3
 -28  14  -3 8293.46 912.729   3
  14  14   0 4278.41 750.779   2
  14 -28   0 5682.91 847.469   1
 -28  14   0 4819.36 799.337   3
  28 -14   0 4662.04 763.342   1
 -14  28   0 5664.90 973.699   4
 -14  28   0 4482.88 775.248   2
  14  14   0 5387.94 984.183   4
 -14 -14   0 4366.65 585.888   3
 -28  14   3 8339.27 1039.99   3
 -28  14   3 5566.71 644.750   2
 -14  28   3 11145.7 1278.67   4
  14  14   3 8803.95 1219.82   4
 -14  28   3 9093.10 1004.23   2
  28 -14   3 7861.20 681.967   1
  14  14   3 9675.13 1164.19   2
  14  14   6 2156.69 750.759   2
 -28  14   6 2638.20 698.083   4
 -14  28   6 3507.17 882.525   4
  14  14   6 790.677 650.563   4
 -14  28   6 2970.86 616.850   2
  28 -13  -7 1375.86 792.978   1
 -15  28  -7 2230.38 741.257   4
 -15  28  -7-172.499 622.526   2
  15  13  -7 1602.80 972.614   1
  15  13  -7 429.830 455.796   4
  13 -28  -7 1053.70 857.586   3
  13 -28  -7 152.713 594.331   1
  15  13  -7 492.113 436.067   2
 -13 -15  -7-147.827 592.194   3
 -28  15  -7-165.562 513.215   3
 -28  15  -4 1158.12 548.659   3
  28 -13  -4 590.883 568.241   1
 -15  28  -4 514.556 573.168   4
  15  13  -4 249.708 596.805   1
  13 -28  -4 498.807 506.047   1
 -15  28  -4 2405.26 755.459   2
  15  13  -4 412.610 527.721   4
  15  13  -4 838.111 490.415   2
 -13 -15  -4 634.212 441.870   3
  13 -28  -1 3015.49 667.748   1
 -28  15  -1 5088.32 775.554   3
 -15  28  -1 3060.31 861.442   4
  28 -13  -1 3688.39 722.190   1
 -15  28  -1 3740.23 813.291   2
  15  13  -1 4239.67 846.219   4
 -13 -15  -1 4501.89 565.640   3
  15  13  -1 4356.83 742.950   2
  28 -13   2 343.470 334.186   1
  15  13   2 200.952 487.132   2
 -13 -15   2 1095.99 405.240   3
 -28  15   2 404.827 504.087   3
 -28  15   2 626.590 431.604   2
 -15  28   2 925.523 555.776   4
  15  13   2 862.393 577.681   4
 -15  28   2 497.241 445.404   2
  15  13   5 1847.63 773.407   2
 -28  15   5 1900.79 626.057   4
 -15  28   5 541.985 528.009   4
  15  13   5 1220.29 713.602   4
 -15  28   5 1087.84 470.418   2
 -28  16  -5-233.054 452.938   3
  28 -12  -5 579.095 656.799   1
 -16  28  -5 34.4493 540.791   4
  12 -28  -5 264.883 477.005   1
  16  12  -5-953.037 750.432   1
 -16  28  -5-331.169 585.433   2
  16  12  -5 380.748 557.825   4
  12 -28  -5 368.266 555.751   3
 -12 -16  -5 796.326 509.446   3
  16  12  -5 855.564 432.554   2
 -28  16  -2 712.342 507.338   3
  16  12  -2 1211.88 749.534   1
 -16  28  -2 1301.27 691.758   4
  28 -12  -2 31.0670 518.941   1
 -16  28  -2 956.355 599.838   2
  12 -28  -2-558.329 543.810   1
  16  12  -2-108.168 498.548   4
 -12 -16  -2 404.280 361.713   3
  16  12  -2 256.221 406.346   2
  16  12   1 1346.72 593.637   2
 -12 -16   1 497.548 318.978   3
 -28  16   1 1141.37 566.702   3
 -16  28   1 1031.03 622.949   4
  16  12   1 778.520 595.514   4
 -16  28   1 186.652 435.572   2
  28 -12   1 374.596 379.101   1
  16  12   4 1729.86 714.692   2
 -28  16   4 326.392 519.567   4
 -16  28   4 499.096 555.391   4
  28 -12   4 959.630 277.074   1
  16  12   4 98.7748 582.911   4
 -16  28   4 1239.27 478.679   2
 -16  28   7 195.496 497.427   2
 -28  16   7-200.423 484.529   4
 -16  28   7 508.661 563.241   4
  16  12   7-1076.29 730.547   4
 -28  17  -6 1482.64 613.778   3
  28 -11  -6 1514.24 788.864   1
 -17  28  -6 313.542 682.390   4
  11 -28  -6 1538.10 649.861   1
 -17  28  -6 95.2269 624.489   2
  17  11  -6 407.635 820.531   1
  17  11  -6 528.568 530.410   4
  11 -28  -6 695.202 635.645   3
 -11 -17  -6 1861.03 651.962   3
  17  11  -6 1113.31 533.620   2
  17  11  -3 9229.02 1257.17   1
 -17  28  -3 7168.23 1086.88   4
  11 -28  -3 9089.24 1028.34   1
 -17  28  -3 8367.06 1105.83   2
  17  11  -3 8712.62 1086.79   4
  11 -28  -3 7494.81 849.278   3
  17  11  -3 6308.12 834.086   2
 -11 -17  -3 6435.19 741.751   3
  28 -11  -3 8173.38 1091.16   1
 -28  17  -3 7963.33 910.295   3
  28 -11   0 5368.74 785.695   1
  17  11   0 4394.38 769.927   2
 -28  17   0 5164.23 828.281   3
  17  11   0 7231.49 1033.46   1
 -17  28   0 5540.96 978.055   4
 -17  28   0 4799.82 859.194   2
  17  11   0 7308.18 1088.99   4
  11 -28   0 3978.31 315.009   3
 -11 -17   0 4589.16 541.030   3
 -28  17   3 4779.15 612.933   2
 -17  28   3 7094.69 1065.43   4
  17  11   3 6212.24 1057.88   4
 -17  28   3 7719.03 936.215   2
  28 -11   3 5810.42 578.308   1
  17  11   3 7844.39 1106.27   2
  17  11   6 2770.18 889.072   2
 -28  17   6 3701.82 833.342   4
 -17  28   6 4231.02 891.947   4
  17  11   6 4148.96 986.679   4
 -17  28   6 3831.22 697.284   2
 -28  18  -7 2333.26 672.760   3
  28 -10  -7 982.568 820.869   1
 -18  28  -7 1770.03 865.016   4
 -18  28  -7 1977.06 869.452   2
  10 -28  -7 3422.21 799.279   1
  18  10  -7 2323.62 1001.47   1
  10 -28  -7 2541.52 896.521   3
 -10 -18  -7 759.606 608.638   3
  18  10  -7 3033.55 657.315   2
 -28  18  -4 792.791 545.667   3
  10 -28  -4 1176.66 539.409   1
  28 -10  -4-318.920 635.567   1
 -18  28  -4 922.242 570.807   4
 -18  28  -4 410.881 584.372   2
  18  10  -4 1194.84 675.517   1
  18  10  -4 1149.16 552.631   4
  10 -28  -4 629.136 570.193   3
 -10 -18  -4 161.508 451.168   3
  18  10  -4 695.655 480.491   2
  18  10  -1 3397.66 700.698   2
 -28  18  -1 3101.85 616.269   3
  28 -10  -1 2387.80 648.523   1
 -18  28  -1 4113.04 898.141   4
  18  10  -1 2908.02 787.211   1
 -18  28  -1 4164.50 849.731   2
  18  10  -1 3382.42 769.759   4
  10 -28  -1 3495.75 431.899   3
 -10 -18  -1 2643.40 447.304   3
  18  10   2 1610.42 681.685   2
 -10 -18   2 526.626 288.726   3
 -28  18   2 233.089 519.286   3
 -28  18   2 661.468 410.769   2
  18  10   2 711.078 547.124   1
 -18  28   2 320.013 508.111   4
  18  10   2 204.395 507.230   4
 -18  28   2 1243.04 535.848   2
  28 -10   2 178.683 335.734   1
  18  10   5 2336.90 807.451   2
 -28  18   5 2835.01 760.237   4
  18  10   5 1786.55 493.802   1
 -18  28   5 2027.67 719.438   4
  18  10   5 3283.01 894.680   4
 -18  28   5 1466.82 497.992   2
  19   9  -5 743.798 482.536   2
 -28  19  -5-928.441 528.191   3
   9 -28  -5 9.04711 472.080   1
  28  -9  -5 1651.50 766.919   1
 -19  28  -5-1061.87 683.894   4
 -19  28  -5 745.750 710.785   2
  19   9  -5-657.131 740.215   1
  19   9  -5-515.776 471.004   4
   9 -28  -5-244.164 547.135   3
  -9 -19  -5 755.482 539.616   3
  19   9  -2 603.724 424.506   2
 -28  19  -2 1182.55 537.381   3
  28  -9  -2 883.123 614.033   1
 -19  28  -2-84.3359 567.379   4
  19   9  -2 1064.30 692.579   1
 -19  28  -2 895.217 635.232   2
  19   9  -2 1034.97 637.521   4
   9 -28  -2 1499.46 580.920   1
   9 -28  -2 1595.52 452.351   3
  -9 -19  -2 754.573 356.722   3
  -9 -19   1 3049.96 409.661   3
 -28  19   1 3967.96 796.245   3
  19   9   1 3756.03 788.765   2
 -28  19   1 2743.14 646.073   2
 -19  28   1 4115.59 914.857   4
  19   9   1 3158.68 728.627   1
  28  -9   1 3250.48 591.977   1
 -19  28   1 2309.58 664.661   2
  19   9   1 4191.60 874.725   4
  19   9   4 3859.36 921.866   2
 -28  19   4 3135.74 815.214   4
 -19  28   4 2878.10 804.830   4
  19   9   4 2270.96 601.264   1
  19   9   4 2811.42 822.190   4
 -19  28   4 3421.02 634.418   2
 -28  19   7 707.276 581.602   4
 -19  28   7 612.715 573.308   4
  20   8  -6 2079.26 550.975   2
 -28  20  -6 1393.02 535.757   3
  28  -8  -6 674.926 739.712   1
   8 -28  -6 2103.47 674.500   1
 -20  28  -6 995.565 707.558   4
 -20  28  -6 1082.14 762.052   2
  20   8  -6 1698.08 939.809   1
   8 -28  -6 1919.22 744.196   3
  -8 -20  -6 554.476 609.533   3
 -28  20  -3 3945.15 728.518   3
   8 -28  -3 5286.76 845.951   1
  28  -8  -3 3260.41 827.656   1
 -20  28  -3 3515.51 526.222   3
 -20  28  -3 3983.71 848.939   4
 -20  28  -3 2411.42 824.882   2
  20   8  -3 4212.91 892.006   1
  20   8  -3 4995.68 894.795   4
   8 -28  -3 4340.88 647.428   3
  -8 -20  -3 5264.39 688.471   3
  20   8  -3 4562.90 748.025   2
  -8 -20   0 1102.60 312.795   3
  20   8   0 946.971 582.558   2
 -28  20   0 1912.91 602.262   3
 -28  20   0 1021.49 658.800   4
  28  -8   0 952.019 514.075   1
 -28  20   0 1062.47 544.318   2
 -20  28   0 2417.00 794.626   4
  20   8   0 1200.76 639.218   1
 -20  28   0 1376.99 561.544   2
  20   8   0-62.3822 589.232   4
  20   8   3 8306.10 1134.47   2
 -28  20   3 6477.40 1021.00   4
  20   8   3 7725.65 918.483   1
 -20  28   3 6056.49 1046.17   4
  28  -8   3 4734.88 538.057   1
 -28  20   3 6603.09 698.348   2
 -20  28   3 7635.72 873.194   2
  20   8   3 7247.19 1118.64   4
 -28  20   6 360.126 542.425   4
 -20  28   6 1983.32 723.296   4
 -20  28   6 2633.34 591.471   2
 -28  21  -7 2630.87 691.664   3
  28  -7  -7 4677.59 1106.98   1
 -28  21  -7 2110.33 849.826   4
 -28  21  -7 2363.03 980.029   2
 -21  28  -7 3424.63 948.897   4
   7 -28  -7 4204.47 817.452   1
 -21  28  -7 3179.30 989.418   2
  21   7  -7 840.518 884.282   1
   7 -28  -7 1990.58 745.656   3
  -7 -21  -7 2560.58 789.865   3
  28  -7  -4 317.975 654.942   1
 -28  21  -4 943.522 511.717   3
  21   7  -4 824.063 461.442   2
   7 -28  -4 1030.55 533.114   1
 -21  28  -4 824.741 375.966   3
 -28  21  -4 901.289 658.826   4
 -28  21  -4 1252.32 723.437   2
 -21  28  -4 556.372 566.107   4
 -21  28  -4 1032.27 696.129   2
  21   7  -4 1896.30 825.170   1
   7 -28  -4 52.4064 445.385   3
  -7 -21  -4 1046.84 500.013   3
  21   7  -1 3266.69 683.946   2
 -28  21  -1 3050.93 681.658   3
 -28  21  -1 3470.64 861.339   4
  21   7  -1 4412.56 961.702   1
 -28  21  -1 2657.61 725.308   2
 -21  28  -1 3305.14 861.235   4
 -21  28  -1 3963.31 855.627   2
  21   7  -1 4067.46 887.700   4
  28  -7  -1 4712.80 819.651   1
  -7 -21  -1 4336.82 491.767   3
  21   7   2 2222.39 735.299   2
 -28  21   2 1704.23 666.457   3
 -28  21   2 138.908 550.504   4
 -21  28   2 694.457 607.555   4
 -28  21   2 450.492 465.039   2
  28  -7   2 383.064 397.150   1
  21   7   2 956.391 558.924   1
 -21  28   2 1110.79 589.861   2
  21   7   2 278.815 607.574   4
 -28  21   5 2356.91 732.741   4
 -21  28   5 3054.71 822.178   4
 -21  28   5 3765.48 628.148   2
  28  -6  -5 192.619 631.728   1
 -28  22  -5 25.7400 484.975   3
   6 -28  -5 156.603 536.271   1
  22   6  -5 715.291 468.244   2
 -22  28  -5 926.519 421.285   3
 -28  22  -5-505.904 626.926   4
 -28  22  -5 252.256 638.261   2
 -22  28  -5 1207.21 713.415   4
 -22  28  -5 414.818 746.137   2
  22   6  -5-36.6400 701.737   1
   6 -28  -5 375.943 495.079   3
  -6 -22  -5 828.576 554.729   3
  28  -6  -2 1576.33 705.417   1
  22   6  -2 1976.80 601.041   2
 -28  22  -2 1696.01 564.451   3
 -22  28  -2 1503.01 490.862   3
 -28  22  -2 281.544 581.378   4
 -28  22  -2 1578.12 740.015   2
 -22  28  -2 1245.40 620.985   4
 -22  28  -2 1512.78 685.103   2
  22   6  -2 2854.80 813.953   1
   6 -28  -2 1365.25 347.190   3
  -6 -22  -2 1878.04 405.677   3
  22   6   1 593.934 539.481   2
 -28  22   1 1892.78 625.508   3
  28  -6   1 1003.24 520.752   1
 -28  22   1 213.660 575.317   4
 -22  28   1 1387.08 720.802   4
 -28  22   1 1534.91 585.053   2
 -22  28   1 1150.90 512.665   2
  22   6   1 1141.82 652.917   1
 -28  22   4 656.025 652.185   4
 -22  28   4 1358.51 690.452   4
  22   6   4 419.556 399.316   1
 -22  28   4 1294.58 468.470   2
 -28  22   7 276.759 550.854   4
 -22  28   7 45.0226 580.489   4
  28  -5  -6 1442.56 867.716   1
 -28  23  -6 1058.51 494.231   3
 -28  23  -6 2382.62 820.437   4
 -28  23  -6 492.597 855.931   2
 -23  28  -6 1186.33 753.043   4
 -23  28  -6 2477.78 1016.36   2
   5 -28  -6 1706.69 651.058   1
  23   5  -6 883.854 872.181   1
   5 -28  -6 864.113 591.062   3
  -5 -23  -6 210.500 537.722   3
 -28  23  -3 5914.76 804.893   3
 -23  28  -3 5989.19 691.676   3
 -23  28  -3 6098.45 1081.32   4
 -28  23  -3 4293.53 949.452   4
 -28  23  -3 5604.91 1048.13   2
  23   5  -3 5311.29 1117.57   1
 -23  28  -3 5284.88 1034.26   2
   5 -28  -3 4701.99 629.741   3
  -5 -23  -3 5991.34 688.314   3
  23   5  -3 5816.28 824.204   2
  28  -5  -3 4044.43 929.635   1
  28  -5   0 1117.70 561.956   1
 -28  23   0 2571.64 781.795   4
  23   5   0 1308.94 658.214   2
 -28  23   0 615.158 478.896   3
 -23  28   0 1095.12 690.265   4
 -28  23   0 1924.85 637.361   2
 -23  28   0 1288.73 561.955   2
  23   5   0 1130.04 596.605   1
  28  -5   3 2828.51 505.967   1
 -28  23   3 5736.37 1045.71   4
 -23  28   3 6121.42 1026.93   4
 -28  23   3 4337.94 632.574   2
  23   5   3 5111.11 733.929   1
 -23  28   3 6549.55 839.313   2
 -28  23   6 8.78937 598.581   4
 -23  28   6 1227.28 747.593   4
 -28  24  -4 350.655 463.392   3
 -24  28  -4 1353.65 463.855   3
  24   4  -4 1270.44 537.304   2
 -28  24  -4 992.300 691.631   4
 -24  28  -4 538.575 777.838   4
 -28  24  -4 1364.79 796.694   2
 -24  28  -4 372.966 688.750   2
  24   4  -4 939.160 718.149   1
   4 -28  -4 138.455 463.792   3
  -4 -24  -4 156.705 441.199   3
  28  -4  -4 2123.03 954.903   1
  24   4  -1 7427.24 970.394   2
 -28  24  -1 8161.69 946.794   3
 -28  24  -1 6469.73 1099.42   4
 -28  24  -1 6269.34 1019.03   2
 -24  28  -1 6421.34 1131.76   4
 -24  28  -1 6965.71 1054.03   2
  24   4  -1 7358.20 1069.33   1
  28  -4  -1 5984.33 963.891   1
  -4 -24  -1 6026.65 474.587   3
  28  -4   2 350.009 390.369   1
 -28  24   2 1004.79 684.596   4
 -24  28   2 1286.85 718.302   4
 -28  24   2 93.2924 457.527   2
 -24  28   2 373.466 439.771   2
  24   4   2 366.776 481.390   1
 -28  24   5 4270.77 933.209   4
 -24  28   5 4001.80 983.490   4
 -28  25  -5-817.239 464.829   3
 -25  28  -5 960.707 450.159   3
 -28  25  -5 1446.44 793.882   4
 -25  28  -5 204.972 601.596   4
 -28  25  -5-737.815 781.332   2
 -25  28  -5 664.400 716.059   2
  25   3  -5-119.847 761.030   1
   3 -28  -5-611.051 604.489   3
  -3 -25  -5 590.086 531.950   3
  28  -3  -5-546.166 758.157   1
 -28  25  -2 4076.84 735.740   3
 -25  28  -2 2930.47 672.918   3
  25   3  -2 3127.78 684.447   2
 -28  25  -2 1693.69 769.286   4
 -25  28  -2 2171.86 779.098   4
 -28  25  -2 2400.89 818.021   2
 -25  28  -2 2192.31 828.339   2
  25   3  -2 1029.04 666.561   1
  -3 -25  -2 3320.56 462.078   3
  28  -3  -2 3707.63 859.543   1
  28  -3   1-32.1909 416.283   1
 -28  25   1-337.236 591.655   4
 -25  28   1 573.475 693.728   4
 -28  25   1 949.835 560.443   2
 -25  28   1 766.636 572.092   2
  25   3   1 1295.94 603.167   1
 -28  25   4 1336.51 790.142   4
 -25  28   4 3213.55 856.253   4
 -25  28   4 1852.53 519.774   2
 -28  26  -6 958.893 527.809   3
 -26  28  -6 474.841 440.790   3
 -28  26  -6 1105.71 835.539   4
 -26  28  -6 118.564 660.791   4
 -28  26  -6 2247.14 989.801   2
 -26  28  -6 341.757 778.172   2
  26   2  -6-626.582 812.396   1
   2 -28  -6 1716.62 717.068   3
  -2 -26  -6 977.942 635.027   3
  28  -2  -6 1784.59 886.359   1
 -28  26  -3 6213.46 861.633   3
 -26  28  -3 4757.23 721.540   3
 -28  26  -3 4354.89 1009.55   4
 -26  28  -3 5373.74 1070.34   4
 -28  26  -3 2749.87 937.972   2
 -26  28  -3 4765.46 989.956   2
  26   2  -3 5297.47 1075.49   1
  -2 -26  -3 4020.85 598.931   3
  28  -2  -3 3631.71 934.005   1
 -28  26   0 2012.65 662.510   3
 -28  26   0 2654.31 841.016   4
 -26  28   0 1056.17 644.072   4
 -28  26   0 628.277 576.589   2
 -26  28   0 1287.84 612.631   2
  26   2   0 675.569 568.431   1
  28  -2   0 1011.52 596.560   1
 -28  26   3 4064.87 963.225   4
 -26  28   3 3339.34 915.272   4
 -28  26   3 3774.91 684.208   2
 -26  28   3 3708.17 672.469   2
 -28  26   6 1326.04 818.700   4
 -26  28   6 6.06008 642.370   4
 -28  27  -4 2061.01 531.883   3
 -27  28  -4 2565.77 601.951   3
 -28  27  -4 977.564 749.681   4
 -27  28  -4 1255.65 754.672   4
 -28  27  -4 1261.37 822.353   2
 -27  28  -4 103.162 669.916   2
  27   1  -4 2176.63 893.028   1
   1 -28  -4 1981.75 539.672   3
  -1 -27  -4 1887.15 538.225   3
  28  -1  -4 2695.98 971.085   1
 -28  27  -1 5631.90 843.927   3
 -27  28  -1 6197.11 890.699   3
 -27  28  -1 7586.13 1287.03   4
 -28  27  -1 5062.07 1068.34   4
 -27  28  -1 5781.70 1039.18   2
 -28  27  -1 4256.08 937.707   2
  28  -1  -1 6136.39 1026.95   1
  27   1  -1 4774.23 960.605   1
  28  -1   2 899.483 472.593   1
 -28  27   2 2350.85 881.510   4
 -27  28   2 1371.10 735.823   4
 -28  27   2 1780.63 600.102   2
 -27  28   2 1541.11 590.560   2
  27   1   2 1741.12 574.141   1
 -27  28   5 6472.37 1121.20   4
 -28  27   5 3844.69 943.688   4
 -28  28  -5 70.4624 452.783   3
 -28  28  -5 795.410 732.974   4
 -28  28  -5 18.3881 741.435   2
   0 -28  -5-44.0114 513.263   3
  28   0  -5-118.961 776.629   1
 -28  28  -2 564.544 501.924   3
 -28  28  -2 496.289 733.621   4
 -28  28  -2-43.7205 639.188   2
  28   0  -2 279.379 599.179   1
 -28  28   1-343.669 676.236   4
 -28  28   1-334.070 506.814   2
  28   0   1 453.832 498.295   1
 -28  28   4 1310.71 752.299   4
  29 -29  -2 2714.91 729.868   1
 -29   0  -2 2620.49 727.343   3
   0  29  -2 2342.01 849.544   4
   0  29  -2 3339.65 819.961   2
 -29   0   1 733.469 599.197   3
  29 -29   1-64.5309 490.261   1
   0  29   1 211.163 711.944   4
   0  29   1 869.716 661.791   2
 -29   0   4 6430.96 1112.79   3
   0  29   4 10006.7 1481.55   4
   0  29   4 8061.04 1191.79   2
 -28  -1  -3 2523.20 698.209   3
 -29   1  -3 2035.89 706.181   3
  -1  29  -3 2820.51 900.800   4
   1  28  -3 3402.89 903.386   4
  29 -28  -3 3798.76 875.371   1
  -1  29  -3 1950.06 742.188   2
   1  28  -3 4185.00 895.962   2
  28 -29  -3 3547.42 851.802   1
 -28  -1   0 734.394 531.778   3
 -29   1   0 410.134 561.587   3
  -1  29   0 1199.02 782.494   4
   1  28   0 1542.28 826.407   4
  29 -28   0-371.174 496.167   1
  -1  29   0 14.0519 524.435   2
   1  28   0 1372.04 655.397   2
  28 -29   0 1297.55 597.846   1
 -28  -1   3 3715.45 919.970   3
 -29   1   3 2286.99 773.413   3
  28 -29   3 3083.37 697.206   1
  -1  29   3 1852.87 860.731   4
   1  28   3 3459.91 1046.83   4
  29 -28   3 3801.55 756.206   1
  -1  29   3 3990.84 889.827   2
 -27  -2  -4 514.494 669.175   3
 -29   2  -4 100.642 529.727   3
  29 -27  -4 461.691 649.942   1
  -2  29  -4 1231.19 712.222   4
   2  27  -4-270.584 624.877   4
  -2  29  -4 1098.10 668.152   2
   2  27  -4-742.074 623.326   2
  27 -29  -4 337.468 683.799   1
 -27  -2  -1-604.192 564.084   3
 -29   2  -1 176.950 503.480   3
  -2  29  -1 725.435 658.131   4
  27 -29  -1 288.307 489.368   1
   2  27  -1 430.875 743.100   4
  -2  29  -1 871.044 620.452   2
   2  27  -1-339.035 628.285   2
  29 -27  -1-256.852 526.013   1
  27 -29   2 248.906 526.126   1
 -27  -2   2 515.465 573.074   3
 -29   2   2 345.246 530.980   3
  -2  29   2-320.272 660.873   4
  29 -27   2 157.354 490.907   1
   2  27   2 245.772 669.412   4
  -2  29   2 712.949 608.679   2
   2  27   2-315.179 544.380   2
   2  27   5-31.8326 620.522   2
  -2  29   5 1672.05 821.954   4
   2  27   5 548.694 777.159   4
  -2  29   5-110.643 596.888   2
 -29   3  -5 402.251 576.020   3
  29 -26  -5-165.720 648.254   1
  -3  29  -5 1139.61 686.245   4
   3  26  -5-148.592 612.505   4
  -3  29  -5 421.621 587.047   2
  26 -29  -5 1046.45 637.195   1
   3  26  -5 1122.08 673.441   2
 -26  -3  -5 566.465 600.910   3
  26 -29  -2 9928.07 1176.01   1
  -3  29  -2 11313.3 1419.44   4
   3  26  -2 9022.34 1278.03   4
  -3  29  -2 10855.0 1327.61   2
   3  26  -2 8711.25 1131.02   2
  29 -26  -2 8380.79 1075.25   1
 -26  -3  -2 5573.87 843.485   3
 -29   3  -2 7662.11 1006.67   3
 -26  -3   1 604.334 526.390   3
 -29   3   1 727.695 591.223   3
  -3  29   1 1.28221 553.462   4
   3  26   1-174.280 648.002   4
  26 -29   1 238.097 458.135   1
  29 -26   1 1197.94 530.013   1
  -3  29   1 500.736 623.997   2
   3  26   1 456.048 507.992   2
 -29   3   4 4252.42 1024.49   3
 -26  -3   4 3199.35 882.815   3
  -3  29   4 3210.07 916.980   4
   3  26   4 4726.55 1061.16   4
  29 -26   4 3398.97 665.520   1
  -3  29   4 5467.90 939.171   2
   3  26   4 3830.81 898.213   2
 -29   4  -6 798.550 643.976   3
  29 -25  -6-1336.33 762.370   1
  -4  29  -6 839.689 776.604   4
   4  25  -6 1492.83 742.820   4
  -4  29  -6 371.139 637.735   2
  25 -29  -6 577.724 629.620   1
   4  25  -6 1353.82 705.649   2
 -25  -4  -6 1632.13 683.224   3
 -25  -4  -3 1989.78 644.544   3
 -29   4  -3 3319.56 797.930   3
  25 -29  -3 3273.92 812.872   1
  29 -25  -3 4315.10 852.070   1
  -4  29  -3 1733.88 764.149   4
   4  25  -3 4997.16 960.594   4
   4  25  -3 4472.50 900.332   2
  -4  29  -3 3892.62 870.508   2
 -25  -4   0 2473.89 653.015   3
 -29   4   0 1389.94 556.443   3
  25 -29   0 2416.83 673.152   1
  -4  29   0 2137.65 852.172   4
   4  25   0 1654.14 782.800   4
  -4  29   0 2715.65 753.879   2
   4  25   0 1600.71 692.047   2
  29 -25   0 1327.48 594.490   1
 -25  -4   3 1574.59 688.237   3
 -29   4   3 3051.64 824.743   3
  25 -29   3 3454.37 746.063   1
  -4  29   3 2903.39 948.923   4
   4  25   3 2997.27 889.722   4
  29 -25   3 1307.86 516.540   1
  -4  29   3 1967.64 703.917   2
   4  25   3 2014.17 753.552   2
  -4  29   6 2463.44 810.996   2
   4  25   6 1684.77 752.982   2
  -4  29   6 1475.11 784.347   4
   4  25   6 1093.33 795.169   4
 -24  -5  -4 1284.88 574.504   3
 -29   5  -4 1601.42 605.325   3
  29 -24  -4 2013.19 767.447   1
  -5  29  -4 1541.70 823.010   4
   5  24  -4 2739.72 812.946   4
  -5  29  -4 1253.17 699.875   2
   5  24  -4 2207.11 733.473   2
  24 -29  -4 2037.35 728.219   1
 -24  -5  -1 652.952 450.697   3
 -29   5  -1 650.817 558.589   3
  -5  29  -1-694.834 645.602   4
   5  24  -1 1196.80 719.974   4
  29 -24  -1 199.494 514.100   1
  -5  29  -1 83.6273 499.500   2
   5  24  -1 663.909 554.932   2
  24 -29  -1 66.4160 471.235   1
 -24  -5   2 1323.16 615.693   3
 -29   5   2 636.222 588.509   3
  -5  29   2 1077.07 704.316   4
   5  24   2 444.282 568.811   4
  24 -29   2 1067.06 552.286   1
  -5  29   2 760.428 561.793   2
   5  24   2 731.368 546.308   2
  29 -24   2 1506.02 535.066   1
   5  24   5-276.073 561.447   2
  -5  29   5 1543.32 752.168   4
   5  24   5-508.054 658.535   4
  -5  29   5-385.476 571.564   2
 -29   6  -5 503.531 546.327   3
  -6  29  -5 1491.92 782.599   4
   6  23  -5 658.186 636.744   4
  -6  29  -5 734.857 568.246   2
   6  23  -5 571.861 518.412   2
  23 -29  -5 1185.59 648.024   1
 -23  -6  -5 162.542 512.174   3
  29 -23  -5 386.790 717.145   1
  -6  29  -2 10669.5 1326.51   4
  23 -29  -2 11281.1 1185.89   1
   6  23  -2 9847.75 1314.64   4
  -6  29  -2 9330.04 1167.03   2
  29 -23  -2 11639.5 1227.07   1
   6  23  -2 11068.7 1214.52   2
 -23  -6  -2 9272.10 986.363   3
 -29   6  -2 8986.82 1029.27   3
  23 -29   1 822.857 485.765   1
  29 -23   1 1103.26 510.316   1
 -23  -6   1 1521.08 531.634   3
 -29   6   1 2425.03 722.014   3
  -6  29   1 1182.30 720.424   4
   6  23   1 2613.16 855.918   4
  -6  29   1 1658.95 684.260   2
   6  23   1 499.790 562.402   2
 -29   6   4 4379.26 944.558   3
  -6  29   4 4356.52 1065.84   4
   6  23   4 2161.76 874.142   4
  29 -23   4 3102.04 597.031   1
  -6  29   4 3973.42 796.728   2
 -29   7  -6 3480.15 853.309   3
  -7  29  -6 3702.84 855.175   4
   7  22  -6 2729.02 785.009   4
  -7  29  -6 3122.75 832.358   2
   7  22  -6 2800.30 735.224   2
  29 -22  -6 2729.45 858.916   1
  22 -29  -6 2688.95 768.064   1
 -22  -7  -6 2406.61 801.132   3
 -22  -7  -3 1171.50 518.056   3
  29 -22  -3 1107.60 578.742   1
 -29   7  -3 1968.65 633.543   3
  -7  29  -3 2020.75 723.497   4
  22 -29  -3 1587.01 598.905   1
   7  22  -3 1276.78 612.267   4
  -7  29  -3 3263.03 816.212   2
   7  22  -3 988.812 527.342   2
 -22  -7   0 4772.26 748.467   3
 -29   7   0 4927.80 815.448   3
  -7  29   0 2890.00 856.306   4
   7  22   0 3528.12 829.831   4
  -7  29   0 4266.23 899.847   2
  29 -22   0 5126.85 790.855   1
   7  22   0 3190.35 817.018   2
  22 -29   0 4439.70 787.904   1
 -22  -7   3 3166.90 711.826   3
 -29   7   3 1814.41 730.915   3
  29 -22   3 2126.69 520.442   1
  -7  29   3 2798.10 795.900   4
   7  22   3 2021.50 806.385   4
  -7  29   3 2399.98 683.756   2
   7  22   3 1985.48 669.732   2
  -7  29   6 6319.31 1128.52   4
   7  22   6 3949.43 1019.20   4
   7  22   6 6869.33 1146.59   2
  -7  29   6 3393.44 787.797   2
 -29   8  -4 2716.03 696.619   3
  21 -29  -4 986.515 631.107   1
  -8  29  -4 317.703 559.198   4
   8  21  -4-586.792 723.043   4
  -8  29  -4 472.136 622.233   2
   8  21  -4 903.068 525.921   2
  29 -21  -4 838.142 595.674   1
 -21  -8  -4 1920.56 638.264   3
 -21  -8  -1 272.550 385.258   3
 -29   8  -1 597.117 518.449   3
  29 -21  -1 780.585 502.700   1
  21 -29  -1-91.1507 500.127   1
  -8  29  -1 546.512 663.136   4
   8  21  -1 1556.20 762.106   4
  -8  29  -1 1738.25 657.253   2
   8  21  -1-59.1241 492.874   2
 -21  -8   2 1139.55 546.727   3
 -29   8   2 1210.57 640.067   3
  29 -21   2 862.461 435.666   1
  21 -29   2 1475.22 528.707   1
  -8  29   2 567.193 667.153   4
   8  21   2 1157.89 726.748   4
  -8  29   2 598.179 451.738   2
   8  21   2 489.987 498.100   2
   8  21   5-640.711 634.987   2
  -8  29   5 1055.59 673.486   4
   8  21   5 413.216 636.887   4
  -8  29   5 742.121 571.356   2
 -29   9  -5 1804.70 633.408   3
  20 -29  -5 2199.34 699.781   1
  -9  29  -5 2045.94 767.564   4
   9  20  -5 2426.94 770.450   4
  -9  29  -5 1207.40 701.390   2
  29 -20  -5 2253.96 807.555   1
   9  20  -5 2015.16 630.420   2
 -20  -9  -5 1948.99 679.375   3
 -20  -9  -2 3096.43 607.195   3
 -29   9  -2 3064.30 695.344   3
  -9  29  -2 2474.49 824.376   4
   9  20  -2 3947.41 959.855   4
  20 -29  -2 4846.05 847.370   1
  -9  29  -2 4111.14 856.649   2
   9  20  -2 3857.07 787.539   2
  29 -20  -2 2405.81 661.053   1
 -20  -9   1 3516.73 637.644   3
 -29   9   1 2045.28 658.196   3
  -9  29   1 888.470 636.448   4
   9  20   1 3288.47 875.416   4
  29 -20   1 2462.13 585.143   1
  -9  29   1 1638.06 616.868   2
  20 -29   1 1728.04 592.663   1
   9  20   1 2108.39 693.783   2
   9  20   4 5803.98 951.948   2
  29 -20   4 5632.93 661.579   1
  -9  29   4 5862.66 1061.55   4
   9  20   4 7185.03 1166.72   4
  -9  29   4 5627.99 932.828   2
  -9  29   7 3186.96 823.205   2
   9  20   7 133.761 686.135   2
  -9  29   7 1098.77 735.674   4
   9  20   7 3154.49 990.196   4
  19 -29  -6 8734.13 1147.90   1
  29 -19  -6 8793.80 1237.98   1
  10  19  -6 8367.49 1387.42   1
 -10  29  -6 7134.15 1122.14   4
 -10  29  -6 7709.30 1203.06   2
  10  19  -6 6083.17 962.088   4
  10  19  -6 8577.35 1047.59   2
 -19 -10  -6 7380.55 1042.94   3
 -29  10  -6 8047.27 1032.51   3
 -29  10  -3 3446.12 697.797   3
 -10  29  -3 1305.46 673.701   4
  10  19  -3 3149.05 813.594   4
 -10  29  -3 1828.23 669.618   2
  29 -19  -3 1318.13 666.595   1
  10  19  -3 2365.18 648.788   2
  19 -29  -3 2093.55 673.608   1
 -19 -10  -3 643.154 442.550   3
 -19 -10   0 10007.1 898.884   3
 -29  10   0 10191.5 1070.88   3
  19 -29   0 13167.9 1190.38   1
 -10  29   0 12203.9 1380.87   4
  10  19   0 13735.2 1459.48   4
 -10  29   0 13045.0 1280.87   2
  29 -19   0 12445.1 1119.42   1
  10  19   0 12559.9 1257.97   2
  10  19   3 2411.58 740.251   2
 -19 -10   3 1282.32 535.036   3
 -29  10   3 1252.65 670.858   3
 -10  29   3 1768.67 732.844   4
  10  19   3 2562.87 810.824   4
  29 -19   3 2155.72 519.615   1
 -10  29   3 2297.96 661.304   2
 -10  29   6 7845.04 1171.54   4
  10  19   6 6824.55 1206.21   4
 -10  29   6 5102.72 917.783   2
  10  19   6 6481.20 1116.29   2
  18 -29  -7 578.177 582.480   1
  11  18  -7 1033.61 898.718   1
 -11  29  -7 678.565 694.053   4
 -11  29  -7 1189.75 748.291   2
  11  18  -7 662.644 594.681   4
  29 -18  -7 1387.09 756.474   1
  11  18  -7 640.652 509.943   2
 -18 -11  -7 715.343 646.095   3
 -29  11  -7 565.886 589.656   3
 -29  11  -4 80.7277 500.351   3
 -11  29  -4-193.145 618.809   4
 -11  29  -4 1297.03 670.943   2
  11  18  -4 772.074 591.102   4
  29 -18  -4 2052.38 754.307   1
  18 -29  -4 559.030 571.569   1
  11  18  -4 1916.61 621.415   2
 -18 -11  -4 980.970 525.353   3
 -18 -11  -1 1941.11 519.403   3
 -29  11  -1 1945.13 566.701   3
 -11  29  -1 1294.16 585.237   4
  11  18  -1 1492.58 663.464   4
 -11  29  -1 1211.17 605.950   2
  18 -29  -1 1708.00 619.746   1
  11  18  -1 914.523 528.793   2
  29 -18  -1 1663.78 642.884   1
  11  18   2 324.592 493.326   2
 -18 -11   2 1000.36 514.064   3
 -29  11   2 1146.22 644.140   3
 -11  29   2 332.526 616.477   4
  11  18   2 451.862 580.758   4
  29 -18   2 460.927 415.720   1
 -11  29   2 0.87632 497.500   2
  11  18   5-288.832 609.661   2
 -11  29   5 206.287 605.694   4
  11  18   5-173.794 597.430   4
 -11  29   5-0.87667 423.442   2
 -29  12  -5 1276.56 543.129   3
  12  17  -5 2960.30 929.112   1
 -12  29  -5 3331.81 835.811   4
 -12  29  -5 1308.28 712.100   2
  29 -17  -5 2679.50 820.155   1
  12  17  -5 2869.05 800.673   4
  17 -29  -5 748.066 562.237   1
  12  17  -5 1559.19 542.959   2
 -17 -12  -5 1114.71 588.380   3
 -17 -12  -2 3314.20 586.392   3
 -29  12  -2 2477.34 669.578   3
 -12  29  -2 2588.31 819.317   4
  12  17  -2 4445.86 924.858   4
  17 -29  -2 3695.95 731.190   1
 -12  29  -2 2896.27 767.519   2
  29 -17  -2 3532.43 777.533   1
  12  17  -2 3146.16 684.458   2
 -17 -12   1 1692.17 494.665   3
 -29  12   1 2846.61 673.737   3
  29 -17   1 2013.84 561.978   1
 -12  29   1 2588.69 768.550   4
  12  17   1 3138.48 841.757   4
 -12  29   1 1349.07 588.034   2
  17 -29   1 2981.29 705.008   1
  12  17   1 2007.15 619.040   2
  12  17   4 1494.66 691.372   2
 -12  29   4 1653.91 755.909   4
  29 -17   4 1118.53 370.974   1
  12  17   4 1887.15 781.257   4
 -12  29   4 1186.47 565.087   2
 -12  29   7 1030.24 645.011   2
  12  17   7 1701.21 831.009   2
 -29  12   7 455.476 514.635   4
 -12  29   7 732.380 624.027   4
  12  17   7 1286.24 782.074   4
  29 -16  -6 10213.0 1371.52   1
  13  16  -6 12712.2 1663.41   1
 -13  29  -6 9069.04 1218.78   4
 -13  29  -6 12764.5 1505.19   2
  16 -29  -6 14410.4 1407.67   1
  13  16  -6 12206.9 1238.81   4
  13  16  -6 12401.0 1180.30   2
 -16 -13  -6 11063.9 1229.08   3
 -29  13  -6 12045.9 1242.66   3
 -29  13  -3 1736.94 599.044   3
 -13  29  -3 1219.87 616.105   4
  16 -29  -3 1892.57 656.416   1
 -13  29  -3 971.392 572.955   2
  13  16  -3 2785.72 750.393   4
  29 -16  -3 1284.46 606.067   1
  13  16  -3 2156.74 629.869   2
 -16 -13  -3 1109.44 425.583   3
 -29  13   0 9821.71 1041.37   3
 -13  29   0 9481.43 1237.52   4
  29 -16   0 10160.4 969.269   1
 -13  29   0 10935.1 1164.28   2
  13  16   0 10898.9 1314.13   4
  16 -29   0 10968.1 1092.95   1
  13  16   0 9012.78 1077.53   2
 -16 -13   0 10051.3 826.133   3
  29 -16   3-11.4006 318.504   1
  13  16   3 585.411 583.977   2
 -16 -13   3 490.985 406.496   3
 -29  13   3 196.747 553.720   3
 -13  29   3 591.800 527.099   4
  13  16   3 301.782 577.801   4
 -13  29   3 716.438 469.204   2
  13  16   6 9330.38 1291.40   2
 -29  13   6 7523.16 1026.64   4
 -13  29   6 10278.4 1326.22   4
  13  16   6 7627.18 1248.89   4
 -13  29   6 9777.67 1069.61   2
 -29  14  -7 1503.96 612.680   3
 -14  29  -7 1062.92 693.896   4
  29 -15  -7 1594.21 779.711   1
  14  15  -7 1543.53 910.622   1
 -14  29  -7 205.022 716.311   2
  14  15  -7 157.120 466.167   4
  15 -29  -7 1765.89 731.659   1
  14  15  -7 1150.29 555.741   2
 -15 -14  -7 1122.12 713.852   3
 -29  14  -4-598.182 579.337   3
  15 -29  -4 123.993 482.014   1
  14  15  -4 586.740 691.253   1
 -14  29  -4 1489.75 726.006   4
  29 -15  -4-265.416 557.560   1
 -14  29  -4-49.8020 522.156   2
  14  15  -4-621.669 576.250   4
  14  15  -4-330.624 454.391   2
 -15 -14  -4-922.768 476.587   3
 -15 -14  -1 2244.56 510.031   3
 -29  14  -1 1389.64 576.101   3
 -14  29  -1 1283.89 593.442   4
 -14  29  -1 2136.39 731.500   2
  14  15  -1 1584.79 648.645   4
  15 -29  -1 1943.06 603.486   1
  29 -15  -1 2388.27 659.457   1
  14  15  -1 1089.15 552.229   2
  14  15   2 168.335 507.907   2
 -15 -14   2 303.130 404.458   3
 -29  14   2 255.048 506.440   3
  29 -15   2 495.996 392.595   1
 -14  29   2-1329.95 673.894   4
  14  15   2 121.112 580.465   4
 -14  29   2-42.3743 434.917   2
  14  15   5 729.611 636.144   2
 -14  29   5 1813.67 739.216   4
  14  15   5 1702.59 728.671   4
 -14  29   5 1891.38 638.357   2
 -29  15  -5 838.190 545.738   3
  14 -29  -5 2320.11 665.920   1
 -15  29  -5 2034.50 726.792   4
  29 -14  -5 401.482 675.929   1
  15  14  -5 2004.94 865.213   1
 -15  29  -5 2184.04 820.029   2
  15  14  -5 1073.97 571.964   4
  15  14  -5 1583.98 566.914   2
 -14 -15  -5 822.844 520.379   3
 -29  15  -2-220.267 482.648   3
  14 -29  -2 664.934 489.855   1
 -15  29  -2 189.445 563.468   4
  29 -14  -2 1436.78 634.693   1
 -15  29  -2-363.095 504.189   2
  15  14  -2 460.311 528.609   4
  15  14  -2-436.169 456.972   2
 -14 -15  -2-194.480 350.638   3
  15  14   1 651.315 497.484   2
 -14 -15   1 1061.68 402.301   3
 -29  15   1 1341.77 611.921   3
 -15  29   1 1738.64 669.378   4
  15  14   1 713.094 591.967   4
 -15  29   1 1507.19 617.482   2
  29 -14   1 1107.19 487.591   1
  15  14   4 548.258 532.474   2
 -15  29   4 53.3882 564.896   4
  15  14   4 130.733 579.765   4
 -15  29   4 448.326 426.318   2
 -15  29   7 1007.84 581.235   2
  15  14   7-354.594 762.337   2
 -29  15   7 1072.15 604.756   4
 -15  29   7 752.016 713.745   4
  15  14   7 1507.15 812.921   4
 -16  29  -6 7900.08 1127.54   4
 -16  29  -6 10297.1 1388.79   2
  16  13  -6 7175.13 1249.09   1
  16  13  -6 7850.55 1003.32   4
  13 -29  -6 6853.44 1182.84   3
  13 -29  -6 9997.26 1137.51   1
  16  13  -6 8756.36 977.120   2
 -13 -16  -6 6739.88 1001.44   3
 -29  16  -6 8827.25 1069.58   3
  29 -13  -6 8303.85 1258.95   1
  13 -29  -3 1409.61 586.069   1
 -29  16  -3 298.266 433.339   3
 -16  29  -3 358.135 569.232   4
  16  13  -3-187.853 590.061   1
  29 -13  -3 1468.01 665.498   1
 -16  29  -3 231.817 564.422   2
  16  13  -3-20.3746 477.768   4
  16  13  -3 788.933 467.433   2
 -13 -16  -3 989.426 433.215   3
 -29  16   0 9625.67 1063.49   3
  29 -13   0 9578.55 978.184   1
 -16  29   0 10058.0 1241.41   4
 -16  29   0 10656.5 1153.91   2
  16  13   0 9759.68 1214.06   4
  13 -29   0 9541.03 578.759   3
  16  13   0 11600.3 1195.81   2
 -13 -16   0 11731.5 833.321   3
  16  13   3 988.224 633.783   2
 -29  16   3 1169.48 655.443   3
 -29  16   3 830.054 388.813   2
 -16  29   3 2617.61 834.900   4
  29 -13   3 1814.48 438.276   1
  16  13   3 1512.63 680.574   4
 -16  29   3 1730.56 587.944   2
  16  13   6 9787.26 1403.91   2
 -29  16   6 11450.8 1232.47   4
 -16  29   6 9395.01 1261.79   4
  16  13   6 12028.7 1463.39   4
 -16  29   6 13301.1 1174.74   2
 -29  17  -7 394.993 520.193   3
  29 -12  -7 573.043 700.207   1
  12 -29  -7 1427.64 616.088   1
 -17  29  -7 1385.51 769.536   4
 -17  29  -7 1109.61 744.545   2
  17  12  -7 629.657 764.258   1
  12 -29  -7 258.050 770.129   3
 -12 -17  -7 687.210 609.796   3
  17  12  -7 385.511 445.936   2
 -29  17  -4 741.435 511.686   3
  29 -12  -4 564.765 587.274   1
 -17  29  -4 783.416 578.130   4
  17  12  -4 1388.49 741.852   1
 -17  29  -4 1900.99 715.783   2
  17  12  -4 1804.10 718.869   4
  12 -29  -4 1640.83 600.771   3
  12 -29  -4 2055.66 716.656   1
 -12 -17  -4 1321.35 509.442   3
  17  12  -4 1017.60 528.775   2
 -12 -17  -1 2627.01 460.878   3
  17  12  -1 1889.81 559.076   2
  12 -29  -1 4177.68 763.950   1
 -29  17  -1 2417.95 657.063   3
  17  12  -1 3514.61 849.134   1
 -17  29  -1 1384.48 737.102   4
  29 -12  -1 2697.26 664.096   1
 -17  29  -1 2494.03 738.167   2
  17  12  -1 3419.65 745.421   4
  12 -29  -1 2785.16 472.322   3
 -12 -17   2 3178.58 481.983   3
  17  12   2 2781.83 752.828   2
 -29  17   2 3714.95 790.293   3
 -29  17   2 2071.30 522.358   2
 -17  29   2 3925.86 907.008   4
  29 -12   2 3438.89 584.167   1
 -17  29   2 3486.89 711.644   2
  17  12   2 2588.72 806.295   4
  17  12   5-107.723 590.021   2
 -29  17   5 1464.55 669.758   4
 -17  29   5 2119.79 745.684   4
  17  12   5 1895.41 780.828   4
 -17  29   5 960.099 498.268   2
 -29  18  -5 236.267 471.288   3
  29 -11  -5 393.951 695.176   1
 -18  29  -5 315.849 545.451   4
 -18  29  -5 722.603 676.284   2
  18  11  -5-68.6718 747.446   1
  18  11  -5-95.7003 512.497   4
  11 -29  -5 337.452 604.486   3
  11 -29  -5-742.299 530.608   1
 -11 -18  -5-213.606 535.110   3
  18  11  -5 401.707 487.637   2
  18  11  -2 151.553 454.486   2
 -29  18  -2 255.402 478.737   3
  29 -11  -2 493.614 574.974   1
 -18  29  -2-525.795 569.416   4
  18  11  -2 564.087 666.439   1
 -18  29  -2 254.721 557.651   2
  18  11  -2 701.503 570.948   4
  11 -29  -2-123.845 367.789   3
  11 -29  -2 282.449 518.092   1
 -11 -18  -2-146.922 321.301   3
  18  11   1 1777.50 656.538   2
 -11 -18   1 445.391 333.884   3
 -29  18   1 2364.60 647.392   3
 -29  18   1 662.226 504.256   2
  18  11   1 1414.81 608.552   1
 -18  29   1 376.099 617.395   4
 -18  29   1 1256.78 572.924   2
  18  11   1 467.386 591.166   4
  29 -11   1 1016.72 406.209   1
  18  11   4 1505.81 619.193   2
 -29  18   4 539.033 580.702   4
  18  11   4 405.181 449.004   1
 -18  29   4 934.735 678.170   4
  18  11   4 1830.45 725.455   4
 -18  29   4 1527.66 516.272   2
 -29  18   7-210.341 535.293   4
 -18  29   7 741.443 643.377   4
  18  11   7-55.1173 707.276   4
  10 -29  -6 8828.57 1133.81   1
  29 -10  -6 6529.51 1191.12   1
 -19  29  -6 6222.50 1204.63   2
 -19  29  -6 5588.14 999.627   4
  19  10  -6 5698.45 1246.13   1
  10 -29  -6 7533.90 1126.89   3
  19  10  -6 6118.71 803.384   2
 -10 -19  -6 4888.11 843.668   3
 -29  19  -6 7475.04 960.688   3
  19  10  -3 1666.14 534.798   2
 -29  19  -3 494.899 465.764   3
  29 -10  -3 2147.40 777.807   1
 -19  29  -3 1827.12 741.014   4
  10 -29  -3 1427.51 630.993   1
  19  10  -3 2983.31 884.450   1
 -19  29  -3 692.515 666.794   2
  19  10  -3 1598.21 656.524   4
  10 -29  -3 890.630 483.393   3
 -10 -19  -3 1259.30 433.416   3
  29 -10   0 9744.70 980.756   1
 -29  19   0 12366.6 1146.69   3
 -29  19   0 10259.1 1118.20   2
  19  10   0 14741.4 1417.02   1
 -19  29   0 10153.9 1264.14   4
 -19  29   0 13724.1 1301.82   2
  19  10   0 12707.2 1338.55   4
  19  10   0 12168.8 1242.01   2
 -10 -19   0 12355.1 790.689   3
  29 -10   3 1442.02 409.993   1
  19  10   3 2960.38 803.231   2
 -29  19   3 1997.67 694.301   4
 -19  29   3 1316.86 663.788   4
  19  10   3 2117.67 621.227   1
 -29  19   3 1797.06 465.323   2
  19  10   3 3946.29 901.215   4
 -19  29   3 1810.44 521.289   2
 -29  19   6 4089.65 868.226   4
 -19  29   6 6321.46 1074.40   4
  19  10   6 6491.51 1185.07   4
 -19  29   6 6054.33 810.008   2
 -29  20  -7 1823.96 665.543   3
  29  -9  -7 1094.39 868.458   1
 -20  29  -7 1946.60 807.425   4
 -20  29  -7 1848.54 817.971   2
  20   9  -7 556.156 882.080   1
   9 -29  -7 771.744 796.104   3
  -9 -20  -7 1448.20 709.565   3
   9 -29  -7 2516.17 804.715   1
  29  -9  -4 5301.57 1012.81   1
 -20  29  -4 7672.98 1157.12   4
  20   9  -4 7307.82 1319.43   1
 -20  29  -4 5733.86 1070.77   2
  20   9  -4 6152.01 913.267   4
   9 -29  -4 4550.62 746.176   3
   9 -29  -4 8673.40 1045.73   1
  -9 -20  -4 6212.98 804.722   3
  20   9  -4 5391.00 830.600   2
 -29  20  -4 7236.72 891.581   3
  -9 -20  -1 1766.06 387.634   3
  20   9  -1 2308.93 645.236   2
 -29  20  -1 2463.49 618.184   3
  29  -9  -1 1775.67 629.130   1
 -29  20  -1 1528.85 645.209   2
 -20  29  -1 1890.67 758.818   4
  20   9  -1 1732.75 715.316   1
 -20  29  -1 2249.74 757.805   2
  20   9  -1 2842.51 768.860   4
  20   9   2 4662.42 904.000   2
 -29  20   2 4325.53 869.652   3
  29  -9   2 3200.07 555.380   1
 -29  20   2 3856.71 884.116   4
  20   9   2 4110.94 802.149   1
 -20  29   2 5452.36 1009.84   4
 -29  20   2 3586.91 663.108   2
 -20  29   2 4392.49 800.279   2
  20   9   2 5352.36 974.370   4
  20   9   5 984.508 707.667   2
 -29  20   5 1167.96 694.491   4
 -20  29   5 1981.93 710.988   4
  20   9   5 2490.02 785.826   4
 -20  29   5 1834.40 577.390   2
 -29  21  -5 692.581 511.127   3
  21   8  -5 113.050 420.140   2
  29  -8  -5 1691.34 793.256   1
   8 -29  -5 919.514 560.514   1
 -29  21  -5 509.243 608.211   4
 -29  21  -5 345.733 655.859   2
 -21  29  -5-506.151 641.890   4
 -21  29  -5-754.893 708.393   2
  21   8  -5 596.530 797.673   1
   8 -29  -5 859.453 581.833   3
  -8 -21  -5 797.578 536.192   3
  21   8  -2 650.967 503.762   2
 -29  21  -2 1996.00 604.903   3
  29  -8  -2 1143.05 696.438   1
 -29  21  -2 382.350 584.053   4
 -29  21  -2 486.386 582.018   2
 -21  29  -2 1167.31 627.091   4
 -21  29  -2 2673.49 785.752   2
  21   8  -2 1267.40 823.221   1
  21   8  -2 2050.50 746.844   4
   8 -29  -2 713.897 385.587   3
  -8 -21  -2 897.434 377.216   3
  21   8   1 477.555 519.821   2
  -8 -21   1 578.624 264.717   3
 -29  21   1 686.040 522.104   3
 -29  21   1-438.303 661.062   4
 -21  29   1 772.266 588.540   4
 -29  21   1 923.496 526.793   2
  29  -8   1 9.12226 392.724   1
  21   8   1 613.461 557.766   1
 -21  29   1 241.480 497.501   2
  21   8   1 490.834 577.992   4
  21   8   4 914.397 657.562   2
 -29  21   4 673.410 594.751   4
 -21  29   4 547.755 617.253   4
  21   8   4 597.341 451.322   1
  21   8   4 1611.41 789.344   4
 -21  29   4 668.435 428.366   2
 -29  22  -6 4397.03 766.978   3
  29  -7  -6 5844.32 1189.10   1
 -29  22  -6 4912.07 1084.79   4
   7 -29  -6 4897.76 878.315   1
 -29  22  -6 3596.04 1058.88   2
 -22  29  -6 6578.29 1249.41   2
 -22  29  -6 4398.64 1005.54   4
  22   7  -6 3586.00 1091.45   1
   7 -29  -6 5053.68 947.157   3
  -7 -22  -6 5277.75 880.135   3
  29  -7  -3 1270.81 722.049   1
 -29  22  -3 3150.30 654.992   3
  22   7  -3 2811.90 671.287   2
 -22  29  -3 2528.91 502.925   3
 -29  22  -3 2212.66 870.770   4
 -29  22  -3 2233.63 832.047   2
 -22  29  -3 3550.25 922.977   4
 -22  29  -3 4278.21 951.923   2
  22   7  -3 2576.31 909.015   1
   7 -29  -3 2746.47 532.054   3
  -7 -22  -3 2574.69 522.875   3
  -7 -22   0 3315.62 384.140   3
  22   7   0 3824.61 828.966   2
 -29  22   0 4286.66 763.066   3
  29  -7   0 4189.57 729.787   1
 -29  22   0 4449.05 938.931   4
 -22  29   0 1404.28 695.261   4
 -29  22   0 4074.31 809.434   2
 -22  29   0 2750.59 763.498   2
  22   7   0 3861.47 833.026   1
  22   7   0 1704.09 784.786   4
  22   7   3 1655.28 718.174   2
 -29  22   3 2730.44 866.908   4
 -22  29   3 554.519 602.380   4
 -29  22   3 750.878 383.609   2
  22   7   3 1492.86 541.668   1
 -22  29   3 1533.98 538.444   2
  29  -7   3 427.397 333.057   1
 -29  22   6 2295.52 774.918   4
 -22  29   6 2850.48 841.898   4
  29  -6  -4 2144.29 850.976   1
 -29  23  -4 3121.21 679.838   3
  23   6  -4 4469.54 720.237   2
 -23  29  -4 2746.22 522.686   3
 -29  23  -4 5766.44 1122.28   4
 -29  23  -4 2280.08 886.876   2
 -23  29  -4 2635.92 766.401   4
 -23  29  -4 3631.29 964.403   2
  23   6  -4 3391.81 946.795   1
   6 -29  -4 3299.85 668.735   3
  -6 -23  -4 3061.51 585.089   3
  -6 -23  -1 891.395 329.187   3
  29  -6  -1 210.520 584.448   1
  23   6  -1 1290.61 586.464   2
 -29  23  -1 768.701 548.317   3
 -29  23  -1 147.390 616.726   4
 -23  29  -1 607.140 639.190   4
 -29  23  -1 123.355 530.216   2
 -23  29  -1 1791.41 670.940   2
  23   6  -1 702.613 715.887   1
  23   6   2 10067.7 1228.42   2
 -29  23   2 9292.30 1272.03   4
 -23  29   2 10041.0 1305.37   4
 -29  23   2 7463.46 889.731   2
  23   6   2 7986.79 938.928   1
 -23  29   2 8755.29 1094.89   2
  29  -6   2 7730.08 805.178   1
 -29  23   5 1134.64 714.882   4
 -23  29   5 973.003 666.986   4
 -23  29   5 416.305 371.953   2
  29  -5  -5 55.2480 718.061   1
 -29  24  -5 107.917 450.409   3
  24   5  -5 264.022 467.769   2
 -29  24  -5 865.554 648.841   4
 -29  24  -5 1234.09 748.692   2
 -24  29  -5 1348.70 796.549   4
 -24  29  -5 531.536 724.233   2
  24   5  -5 1040.15 840.816   1
   5 -29  -5 332.855 518.153   3
  -5 -24  -5 600.153 514.161   3
  29  -5  -2 353.448 582.883   1
 -29  24  -2 1738.37 588.688   3
  24   5  -2 1273.93 549.476   2
 -24  29  -2 1659.46 518.123   3
 -29  24  -2 2300.48 898.180   4
 -24  29  -2 1125.44 746.968   4
 -29  24  -2 2476.72 823.278   2
 -24  29  -2 1050.13 745.785   2
  24   5  -2 2013.07 822.609   1
  -5 -24  -2 1413.27 358.252   3
  29  -5   1 1475.09 520.073   1
  24   5   1-844.510 587.024   2
 -29  24   1-426.464 515.045   3
 -29  24   1 2.49123 594.437   4
 -24  29   1 1042.82 639.026   4
 -29  24   1 44.6191 472.976   2
 -24  29   1-589.864 547.525   2
  24   5   1 300.677 502.947   1
 -29  24   4 1426.81 723.983   4
 -24  29   4 1673.25 777.219   4
 -24  29   4 2038.18 541.103   2
 -29  25  -6 2155.67 608.723   3
 -29  25  -6 882.861 762.435   4
 -25  29  -6 1408.76 797.587   4
 -29  25  -6 1495.87 885.591   2
 -25  29  -6 1957.19 929.387   2
  25   4  -6 3033.07 1134.91   1
   4 -29  -6 1685.59 700.194   3
  -4 -25  -6 756.951 571.044   3
  29  -4  -6 1894.64 909.175   1
 -29  25  -3 2063.28 585.567   3
  25   4  -3 2659.22 663.813   2
 -25  29  -3 2657.62 564.043   3
 -29  25  -3 2099.64 854.875   4
 -25  29  -3 2999.11 920.697   4
 -29  25  -3 2905.92 906.174   2
 -25  29  -3 2155.37 847.297   2
  25   4  -3 2587.39 862.981   1
  -4 -25  -3 1154.15 416.851   3
  29  -4  -3 1497.78 828.641   1
  29  -4   0 1887.96 686.120   1
 -29  25   0 1377.51 623.794   3
  25   4   0 2579.77 707.370   2
 -29  25   0 462.887 669.948   4
 -25  29   0 2153.86 782.657   4
 -29  25   0 1325.66 592.456   2
 -25  29   0 1488.92 632.445   2
  25   4   0 1917.43 739.906   1
 -29  25   3 2964.19 840.115   4
 -25  29   3 2219.20 736.815   4
 -25  29   3 4000.14 727.337   2
 -29  25   3 2122.68 574.679   2
  25   4   3 1640.84 529.064   1
 -29  25   6 1204.36 713.745   4
 -25  29   6 1214.43 787.093   4
 -29  26  -4 3950.70 722.501   3
  26   3  -4 3735.34 733.597   2
 -26  29  -4 4273.38 668.734   3
 -29  26  -4 2544.82 897.045   4
 -26  29  -4 2120.62 809.897   4
 -29  26  -4 3219.47 987.475   2
 -26  29  -4 3114.39 982.646   2
  26   3  -4 3345.22 938.245   1
  -3 -26  -4 3394.80 632.807   3
  29  -3  -4 2825.33 1015.28   1
 -29  26  -1 1046.47 537.879   3
  26   3  -1 41.9777 438.983   2
 -29  26  -1 511.259 694.431   4
 -26  29  -1 617.127 727.345   4
 -29  26  -1 929.381 619.862   2
 -26  29  -1 801.756 632.556   2
  26   3  -1 549.114 637.378   1
  29  -3  -1 891.706 612.948   1
 -29  26   2 5866.91 1122.65   4
 -26  29   2 6976.59 1221.59   4
 -29  26   2 7515.80 904.215   2
 -26  29   2 7438.40 1001.48   2
  26   3   2 6309.49 868.924   1
  29  -3   2 4825.27 730.118   1
 -29  26   5 1106.93 710.104   4
 -26  29   5 690.468 683.616   4
 -29  27  -5 554.112 542.676   3
 -27  29  -5 797.630 470.223   3
 -29  27  -5 1887.50 831.347   4
 -27  29  -5 1843.52 814.183   4
 -29  27  -5 1219.89 861.440   2
 -27  29  -5 419.472 724.768   2
  27   2  -5 1684.28 1039.80   1
   2 -29  -5 621.612 549.384   3
  -2 -27  -5-492.381 566.718   3
  29  -2  -5 208.028 830.142   1
 -29  27  -2-150.290 453.393   3
 -27  29  -2-273.955 520.870   3
 -29  27  -2 455.212 670.218   4
 -27  29  -2 901.893 823.489   4
 -29  27  -2-189.480 620.263   2
 -27  29  -2 564.349 643.414   2
  27   2  -2 553.473 638.728   1
  29  -2  -2-629.815 657.651   1
  29  -2   1 264.054 484.462   1
 -29  27   1 1985.00 856.188   4
 -27  29   1 721.893 725.063   4
 -29  27   1 927.194 564.316   2
 -27  29   1 269.062 497.692   2
  27   2   1-302.435 488.785   1
 -29  27   4 1084.02 719.438   4
 -27  29   4-1409.76 804.123   4
 -29  28  -3 2263.72 632.598   3
 -28  29  -3 2427.20 622.606   3
 -29  28  -3 2825.48 931.635   4
 -28  29  -3 2365.84 895.593   4
 -29  28  -3 3740.47 1017.39   2
 -28  29  -3 2043.02 848.821   2
  28   1  -3 2696.92 951.171   1
  29  -1  -3 1625.84 793.646   1
 -29  28   0-368.685 728.547   4
 -28  29   0 1550.20 788.722   4
 -29  28   0 579.970 654.527   2
 -28  29   0 1651.68 717.333   2
  28   1   0 1722.46 697.198   1
  29  -1   0 355.394 586.445   1
 -29  28   3 1416.54 781.626   4
 -28  29   3 2114.49 853.716   4
 -29  28   3 1293.24 513.338   2
 -28  29   3 3023.54 658.690   2
 -29  29  -4 9250.52 1000.20   3
 -29  29  -4 6319.94 1275.45   4
 -29  29  -4 5229.75 1208.65   2
  29   0  -4 7127.83 1323.06   1
 -29  29  -1 174.459 488.750   3
 -29  29  -1 863.975 743.993   4
 -29  29  -1 168.602 575.970   2
  29   0  -1 159.353 612.773   1
  29   0   2 2286.22 609.974   1
 -29  29   2 1534.31 827.065   4
 -29  29   2 2211.13 660.552   2
 -30   0  -3 734.679 559.437   3
   0  30  -3 887.579 782.880   4
   0  30  -3 445.625 612.891   2
  30 -30  -3-475.633 685.919   1
 -30   0   0 1238.26 668.390   3
   0  30   0-98.5514 642.969   4
   0  30   0 1615.42 660.530   2
  30 -30   0 968.306 559.856   1
 -30   0   3-1434.12 769.297   3
  30 -30   3-506.526 528.141   1
   0  30   3-274.398 753.869   4
   0  30   3 111.584 562.409   2
 -29  -1  -1 1414.45 655.078   3
 -30   1  -1 1065.12 648.348   3
  30 -29  -1 703.839 545.115   1
  -1  30  -1 1537.31 863.221   4
   1  29  -1 1566.46 822.139   4
  29 -30  -1 1290.00 622.070   1
  -1  30  -1 2062.41 833.399   2
   1  29  -1 2760.16 807.686   2
  29 -30   2-259.731 464.759   1
 -29  -1   2 118.708 564.095   3
 -30   1   2 116.972 542.349   3
  -1  30   2 324.971 685.955   4
   1  29   2 71.5952 721.856   4
  30 -29   2 368.969 514.805   1
  -1  30   2 552.906 636.295   2
   1  29   2 310.136 549.575   2
 -28  -2  -2 360.187 522.608   3
 -30   2  -2 859.177 599.605   3
  28 -30  -2 2383.55 818.702   1
  -2  30  -2 1626.65 802.026   4
   2  28  -2 3069.04 913.275   4
  -2  30  -2 980.091 674.656   2
   2  28  -2 2841.87 818.531   2
  30 -28  -2 786.957 546.362   1
  30 -28   1 2840.54 708.366   1
 -28  -2   1 2700.30 710.279   3
 -30   2   1 2466.67 746.135   3
  -2  30   1 2298.16 869.177   4
   2  28   1 3409.11 956.522   4
  28 -30   1 3671.24 758.424   1
  -2  30   1 3019.52 762.952   2
   2  28   1 3358.40 829.089   2
 -30   2   4 1666.47 797.541   3
 -28  -2   4 1800.47 822.674   3
  -2  30   4 624.603 722.237   4
   2  28   4 393.528 699.068   4
  -2  30   4 842.184 645.093   2
   2  28   4 1809.07 798.415   2
 -27  -3  -3 524.036 564.840   3
 -30   3  -3-830.273 598.079   3
  27 -30  -3 317.060 631.735   1
  -3  30  -3 653.148 615.116   4
   3  27  -3 782.631 776.966   4
  30 -27  -3 44.9671 603.397   1
  -3  30  -3-83.4073 563.122   2
   3  27  -3 112.529 582.629   2
 -27  -3   0 1593.28 621.831   3
 -30   3   0 969.770 524.186   3
  27 -30   0 3062.67 771.798   1
  30 -27   0 2414.71 710.409   1
  -3  30   0 1988.05 800.289   4
   3  27   0 2152.00 748.999   4
  -3  30   0 1081.70 693.123   2
   3  27   0 2360.37 754.722   2
 -27  -3   3-111.607 615.540   3
 -30   3   3 1386.66 725.040   3
  30 -27   3 539.039 468.484   1
  -3  30   3 541.228 744.044   4
   3  27   3-67.3827 645.150   4
  27 -30   3-418.821 511.853   1
  -3  30   3-121.002 599.131   2
   3  27   3-38.7039 611.009   2
 -26  -4  -4-69.0249 555.822   3
 -30   4  -4 44.9238 552.619   3
  30 -26  -4 1005.45 661.712   1
  -4  30  -4-50.7849 657.619   4
   4  26  -4 109.782 621.964   4
  -4  30  -4 835.936 685.576   2
   4  26  -4 566.481 546.096   2
  26 -30  -4-192.011 549.854   1
 -26  -4  -1 973.762 536.886   3
 -30   4  -1 1033.57 570.156   3
  -4  30  -1 1847.61 805.029   4
   4  26  -1 761.561 649.101   4
  -4  30  -1 1779.58 692.595   2
  30 -26  -1 648.980 523.888   1
   4  26  -1 1835.19 699.681   2
  26 -30  -1 755.473 543.683   1
 -26  -4   2 700.986 556.771   3
 -30   4   2-69.6330 606.440   3
  30 -26   2 333.306 430.795   1
  -4  30   2 476.029 753.437   4
   4  26   2 428.958 666.620   4
  26 -30   2-223.147 479.910   1
  -4  30   2 269.214 568.234   2
   4  26   2 1051.27 554.729   2
   4  26   5 490.088 632.769   2
  -4  30   5 276.358 701.937   4
   4  26   5 683.839 735.015   4
  -4  30   5-170.089 607.439   2
  25 -30  -5 5743.32 1062.06   1
  -5  30  -5 5926.95 1146.87   4
   5  25  -5 6129.00 1125.69   4
  -5  30  -5 7977.79 1202.23   2
  30 -25  -5 6724.85 1152.74   1
   5  25  -5 7233.19 1080.21   2
 -30   5  -5 5315.48 928.623   3
 -25  -5  -5 4741.03 917.906   3
 -25  -5  -2 1395.32 583.520   3
 -30   5  -2 1130.71 606.852   3
  -5  30  -2 1421.46 664.897   4
  30 -25  -2 1855.76 661.261   1
   5  25  -2 1689.09 697.294   4
  25 -30  -2 1946.05 684.611   1
  -5  30  -2 1499.05 699.795   2
   5  25  -2 1526.33 746.065   2
 -25  -5   1 2837.52 721.286   3
 -30   5   1 3021.12 799.764   3
  30 -25   1 3818.77 718.502   1
  -5  30   1 4285.72 989.413   4
   5  25   1 4442.36 991.709   4
  -5  30   1 3535.43 781.978   2
   5  25   1 5021.68 876.510   2
  25 -30   1 3826.80 794.380   1
   5  25   4-399.584 662.435   2
 -30   5   4 2497.31 854.903   3
  30 -25   4 933.043 490.725   1
  -5  30   4 1384.89 837.221   4
   5  25   4 604.645 752.069   4
  -5  30   4 665.475 641.315   2
 -24  -6  -3 693.389 496.349   3
 -30   6  -3 832.440 576.876   3
  30 -24  -3 1844.86 751.510   1
  24 -30  -3 14.6937 544.974   1
  -6  30  -3 719.088 688.104   4
   6  24  -3 2193.65 842.883   4
  -6  30  -3 1343.02 655.480   2
   6  24  -3 1125.94 594.070   2
 -24  -6   0 3604.63 693.181   3
 -30   6   0 3112.07 768.229   3
  -6  30   0 2175.55 857.036   4
   6  24   0 3604.24 957.067   4
  24 -30   0 2056.03 734.510   1
  -6  30   0 3126.33 785.925   2
  30 -24   0 2377.18 709.459   1
   6  24   0 2526.24 822.591   2
 -24  -6   3 1890.67 662.120   3
 -30   6   3 1982.30 738.906   3
  -6  30   3 1704.84 835.342   4
   6  24   3 2660.31 885.075   4
  30 -24   3 1450.64 554.237   1
  -6  30   3 1764.07 645.894   2
   6  24   3 2845.84 804.744   2
  30 -23  -4-465.563 658.330   1
 -30   7  -4 605.231 542.528   3
  23 -30  -4 320.933 530.491   1
  -7  30  -4 959.492 670.899   4
   7  23  -4 702.346 644.102   4
  -7  30  -4 375.824 561.559   2
   7  23  -4 365.128 473.456   2
 -23  -7  -4 845.581 585.516   3
 -23  -7  -1 1346.77 535.944   3
 -30   7  -1 1008.66 553.446   3
  23 -30  -1 445.236 459.621   1
  30 -23  -1 506.058 550.136   1
  -7  30  -1 323.418 646.139   4
   7  23  -1 551.861 576.933   4
  -7  30  -1 1510.57 657.548   2
   7  23  -1-95.1497 536.335   2
 -23  -7   2 677.972 529.841   3
 -30   7   2 226.654 538.385   3
  -7  30   2 364.787 627.007   4
   7  23   2-303.224 688.473   4
  30 -23   2 1385.56 548.526   1
  23 -30   2 2069.70 568.856   1
  -7  30   2 642.828 558.204   2
   7  23   2 982.976 611.223   2
   7  23   5 1150.21 679.363   2
  -7  30   5 1063.68 725.521   4
   7  23   5-112.109 682.664   4
  -7  30   5 781.631 621.824   2
 -30   8  -5 2439.92 728.016   3
  22 -30  -5 1779.59 839.554   1
  -8  30  -5 3539.16 956.854   4
   8  22  -5 2670.18 816.410   4
  -8  30  -5 2210.65 800.468   2
   8  22  -5 2274.72 694.990   2
  30 -22  -5 4299.88 932.815   1
 -22  -8  -5 2750.81 688.611   3
  22 -30  -2 3381.31 767.922   1
 -22  -8  -2 3781.44 686.850   3
 -30   8  -2 969.172 521.090   3
  30 -22  -2 3825.42 770.687   1
  -8  30  -2 4588.29 959.267   4
   8  22  -2 3770.81 916.091   4
  -8  30  -2 2903.21 780.683   2
   8  22  -2 3653.69 780.039   2
 -22  -8   1 4954.48 783.024   3
 -30   8   1 4888.62 870.803   3
  -8  30   1 5652.98 1061.54   4
  22 -30   1 5674.41 877.238   1
   8  22   1 5896.13 1025.46   4
  -8  30   1 4655.35 880.373   2
   8  22   1 5436.16 934.376   2
  30 -22   1 4587.03 785.241   1
   8  22   4 1328.42 746.245   2
 -30   8   4 798.756 702.290   3
  30 -22   4 928.799 416.045   1
  -8  30   4 900.350 716.140   4
   8  22   4-242.765 651.617   4
  -8  30   4 693.520 515.130   2
 -30   9  -6 447.187 633.350   3
  21 -30  -6 1365.39 686.537   1
  -9  30  -6 1346.20 704.750   4
   9  21  -6 2288.56 752.510   4
  -9  30  -6 2637.11 1055.27   2
   9  21  -6 1150.30 556.743   2
  30 -21  -6 375.405 670.576   1
 -21  -9  -6 1572.88 671.836   3
  -9  30  -3 7033.55 1164.97   4
  30 -21  -3 6629.90 1008.03   1
  21 -30  -3 5429.38 967.174   1
   9  21  -3 7162.49 1123.59   4
  -9  30  -3 5325.57 1022.66   2
   9  21  -3 6698.16 985.241   2
 -21  -9  -3 6820.78 854.962   3
 -30   9  -3 5440.54 926.101   3
 -30   9   0 4235.71 845.486   3
 -21  -9   0 3105.06 630.270   3
  -9  30   0 5405.70 1052.45   4
  30 -21   0 3042.52 652.052   1
   9  21   0 2282.47 802.959   4
  -9  30   0 3810.00 823.268   2
   9  21   0 2760.40 753.255   2
  21 -30   0 1608.22 636.273   1
 -21  -9   3 7511.43 960.107   3
 -30   9   3 4864.41 976.132   3
  -9  30   3 8440.41 1261.32   4
   9  21   3 5078.47 1027.55   4
  30 -21   3 4625.19 663.210   1
  -9  30   3 5003.79 903.069   2
   9  21   3 5816.51 994.118   2
   9  21   6 1081.93 721.606   2
  -9  30   6 927.674 740.724   4
   9  21   6 3162.90 942.437   4
  -9  30   6 2957.15 849.591   2
 -30  10  -4 570.780 525.775   3
 -10  30  -4 772.674 666.322   4
  10  20  -4 1496.07 716.054   4
 -10  30  -4-614.866 718.942   2
  20 -30  -4-112.865 506.353   1
  30 -20  -4 428.258 612.805   1
  10  20  -4 1106.77 552.415   2
 -20 -10  -4-189.511 452.894   3
 -20 -10  -1 741.576 474.798   3
  30 -20  -1-302.157 520.955   1
 -30  10  -1 25.2377 483.532   3
 -10  30  -1-11.8889 627.909   4
  10  20  -1 1032.45 662.113   4
 -10  30  -1 1245.78 621.337   2
  20 -30  -1-29.6032 502.625   1
  10  20  -1 404.144 495.836   2
 -20 -10   2 358.049 427.297   3
 -30  10   2 983.069 629.170   3
 -10  30   2 600.286 579.596   4
  10  20   2 1346.10 637.496   4
 -10  30   2 1599.51 621.643   2
  30 -20   2 1162.03 463.150   1
  10  20   2 1695.28 678.708   2
  10  20   5 558.518 642.477   2
 -10  30   5 396.912 690.870   4
  10  20   5-234.551 664.606   4
 -10  30   5 242.628 501.269   2
 -30  11  -5 622.724 550.354   3
 -11  30  -5 2009.92 831.165   4
 -11  30  -5 74.8671 614.842   2
  11  19  -5 433.412 590.976   4
  19 -30  -5-115.177 561.806   1
  30 -19  -5 247.635 586.717   1
  11  19  -5 189.832 446.999   2
 -19 -11  -5 905.719 568.915   3
 -19 -11  -2 603.095 427.344   3
 -30  11  -2 844.503 545.721   3
 -11  30  -2-181.799 541.779   4
  19 -30  -2 504.072 514.444   1
  11  19  -2 1675.50 709.220   4
 -11  30  -2 126.901 500.497   2
  30 -19  -2 588.698 561.021   1
  11  19  -2 545.655 462.395   2
 -19 -11   1 2357.22 580.251   3
 -30  11   1 2188.02 672.663   3
 -11  30   1 2724.49 841.793   4
  30 -19   1 1003.04 488.748   1
  11  19   1 961.271 566.309   4
 -11  30   1 2824.65 730.990   2
  19 -30   1 2587.92 633.873   1
  11  19   1 1148.46 580.411   2
  11  19   4 3503.89 872.480   2
 -11  30   4 2523.32 890.757   4
  11  19   4 4254.94 996.734   4
  30 -19   4 2399.33 494.380   1
 -11  30   4 2673.62 707.826   2
 -30  12  -6 1513.12 610.123   3
  12  18  -6 1645.73 856.731   1
 -12  30  -6 1763.58 701.447   4
 -12  30  -6 3247.99 905.042   2
  18 -30  -6-330.817 569.215   1
  12  18  -6 1594.46 684.473   4
  30 -18  -6 2440.17 899.721   1
  12  18  -6 2163.90 654.644   2
 -18 -12  -6 2216.76 751.628   3
  30 -18  -3 4974.25 885.181   1
 -12  30  -3 8411.66 1168.83   4
 -12  30  -3 7677.55 1183.04   2
  12  18  -3 8660.42 1183.69   4
  18 -30  -3 8200.24 1079.36   1
  12  18  -3 7150.27 979.174   2
 -18 -12  -3 7276.94 822.450   3
 -30  12  -3 8241.63 999.560   3
  30 -18   0 2009.15 581.794   1
 -18 -12   0 1873.35 484.999   3
 -30  12   0 2419.24 695.574   3
 -12  30   0 1335.00 708.546   4
  12  18   0 2093.79 733.534   4
 -12  30   0 3249.02 735.657   2
  18 -30   0 3112.85 687.852   1
  12  18   0 2362.89 699.932   2
 -18 -12   3 9149.57 952.086   3
 -30  12   3 9508.70 1199.03   3
  30 -18   3 9178.30 824.646   1
 -12  30   3 9801.85 1330.49   4
  12  18   3 10103.3 1328.47   4
 -12  30   3 8881.81 1030.09   2
  12  18   3 11167.7 1304.81   2
  12  18   6 490.145 630.187   2
 -12  30   6 1799.91 759.243   4
  12  18   6 2112.67 854.065   4
 -12  30   6 1962.06 703.154   2
 -30  13  -4 636.151 570.178   3
  17 -30  -4 965.199 624.766   1
  13  17  -4 121.340 640.378   1
 -13  30  -4 377.639 567.575   4
 -13  30  -4 1147.83 650.361   2
  13  17  -4 1804.64 647.332   4
  30 -17  -4 957.900 652.326   1
  13  17  -4-291.496 454.096   2
 -17 -13  -4 676.684 489.239   3
 -17 -13  -1 400.476 426.284   3
 -30  13  -1 716.552 556.629   3
  17 -30  -1-334.422 494.069   1
 -13  30  -1 1370.30 769.352   4
  13  17  -1 337.881 602.645   4
 -13  30  -1 866.476 580.977   2
  30 -17  -1 250.662 445.960   1
  13  17  -1-233.851 440.730   2
  13  17   2 407.155 574.933   2
 -17 -13   2-62.7336 395.020   3
 -30  13   2 1086.42 602.594   3
 -13  30   2 1907.46 747.078   4
  30 -17   2 545.034 387.280   1
  13  17   2-26.4180 555.720   4
 -13  30   2 14.3088 472.167   2
  13  17   5 326.297 634.478   2
 -13  30   5 219.869 728.809   4
  13  17   5-107.476 718.155   4
 -13  30   5 491.824 572.887   2
 -30  14  -5-22.4760 528.015   3
  16 -30  -5-268.625 533.316   1
  14  16  -5-90.4275 717.368   1
 -14  30  -5-63.5898 586.049   4
  30 -16  -5 55.1497 605.719   1
 -14  30  -5 168.442 567.617   2
  14  16  -5-479.149 573.721   4
  14  16  -5 99.9925 450.674   2
 -16 -14  -5-270.143 582.784   3
 -16 -14  -2 1129.72 427.799   3
 -30  14  -2 848.836 566.364   3
 -14  30  -2 404.980 597.967   4
 -14  30  -2 1070.79 589.096   2
  14  16  -2 901.270 611.174   4
  30 -16  -2 1061.91 564.600   1
  14  16  -2 895.409 457.031   2
  16 -30  -2 1229.02 572.909   1
  14  16   1-81.4464 561.811   2
  30 -16   1 327.213 412.897   1
 -16 -14   1 640.297 412.723   3
 -30  14   1 984.213 601.442   3
 -14  30   1 376.740 552.528   4
  14  16   1 1631.39 706.116   4
 -14  30   1 303.676 449.359   2
  14  16   4 67.1132 530.786   2
 -14  30   4 1386.52 703.708   4
  14  16   4 1018.17 725.644   4
 -14  30   4 549.288 488.795   2
 -30  15  -6 1627.05 626.041   3
  15 -30  -6 2959.84 806.918   1
 -15  30  -6 2033.51 794.896   4
  30 -15  -6 1238.67 811.028   1
  15  15  -6 1654.77 932.348   1
 -15  30  -6 1377.94 792.068   2
  15  15  -6 2336.41 733.506   4
  15  15  -6 1535.21 572.225   2
 -15 -15  -6 2933.30 797.804   3
  15 -30  -3 7851.55 1016.26   1
  30 -15  -3 7366.38 1119.75   1
  15  15  -3 9480.60 1300.40   1
 -15  30  -3 6309.46 1096.74   4
 -15  30  -3 9086.35 1203.86   2
  15  15  -3 7594.34 1122.83   4
  15  15  -3 6033.01 878.781   2
 -15 -15  -3 6517.56 760.287   3
 -30  15  -3 5973.66 868.344   3
  15  15   0 39.8594 486.206   2
 -15 -15   0 690.452 365.666   3
 -30  15   0 655.717 520.925   3
 -15  30   0 1449.22 670.923   4
  15 -30   0 213.256 533.099   1
  15  15   0 1292.87 732.715   4
 -15  30   0-258.086 493.769   2
  30 -15   0 650.397 461.652   1
 -30  15   3 8492.66 1135.41   3
 -30  15   3 3934.69 624.346   2
 -15  30   3 7938.76 1218.77   4
  15  15   3 6546.01 1108.93   4
 -15  30   3 6749.73 902.326   2
  30 -15   3 5094.92 607.421   1
  15  15   3 7141.04 1111.78   2
  15  15   6 2469.31 893.902   2
 -30  15   6 1078.27 651.565   4
 -15  30   6 3120.70 860.776   4
  15  15   6 3539.95 984.520   4
 -15  30   6 3907.66 795.827   2
 -30  16  -4 1950.18 637.935   3
 -16  30  -4 1473.14 684.290   4
  16  14  -4-117.824 643.773   1
  30 -14  -4 201.950 566.590   1
 -16  30  -4 1457.59 647.935   2
  16  14  -4 1306.16 628.027   4
  14 -30  -4 1559.23 627.053   1
  16  14  -4 1958.01 591.810   2
 -14 -16  -4 910.417 541.554   3
  16  14  -1-128.135 451.375   2
 -14 -16  -1 362.750 348.838   3
 -30  16  -1-25.1714 439.521   3
 -16  30  -1 1082.27 692.469   4
  14 -30  -1 93.5315 486.616   1
 -16  30  -1 768.499 561.580   2
  16  14  -1 1313.46 642.955   4
  30 -14  -1 374.986 481.817   1
  16  14   2 1223.73 592.308   2
  30 -14   2 511.813 384.578   1
 -14 -16   2 459.256 402.727   3
 -30  16   2-345.508 535.528   3
 -30  16   2 439.479 444.730   2
 -16  30   2 382.801 607.412   4
  16  14   2 854.057 641.647   4
 -16  30   2 1174.26 548.382   2
  16  14   5-568.429 694.565   2
 -30  16   5-385.228 504.261   4
 -16  30   5-308.354 624.948   4
  16  14   5 200.621 737.673   4
 -16  30   5 688.192 483.866   2
 -30  17  -5 900.261 514.336   3
  30 -13  -5 203.938 629.887   1
 -17  30  -5 346.702 614.139   4
  17  13  -5 95.3071 756.790   1
 -17  30  -5 698.993 697.452   2
  17  13  -5-76.0754 500.546   4
  13 -30  -5 108.060 541.670   1
  13 -30  -5 241.715 586.756   3
 -13 -17  -5-375.761 543.114   3
  17  13  -5 113.742 411.359   2
 -13 -17  -2 188.502 372.944   3
  17  13  -2-797.047 502.876   2
  13 -30  -2 1001.96 551.506   1
 -30  17  -2-202.417 454.440   3
  17  13  -2 1787.96 930.752   1
 -17  30  -2 238.740 562.355   4
  30 -13  -2 1379.63 615.826   1
 -17  30  -2-209.645 541.193   2
  17  13  -2 204.418 519.737   4
  13 -30  -2 305.364 431.078   3
  17  13   1-11.3469 521.455   2
 -13 -17   1 35.2945 330.510   3
 -30  17   1 711.841 556.892   3
 -30  17   1 604.570 533.706   2
 -17  30   1-496.458 632.908   4
  17  13   1 92.9819 537.875   4
 -17  30   1-365.250 452.702   2
  30 -13   1 813.519 488.099   1
  17  13   4-37.9726 564.756   2
 -30  17   4-40.7775 570.117   4
 -17  30   4 760.756 623.743   4
  17  13   4 224.671 568.269   4
 -17  30   4 1342.41 628.054   2
 -30  18  -6 618.884 551.836   3
  30 -12  -6 458.729 750.687   1
 -18  30  -6 2046.12 850.528   4
 -18  30  -6 3156.76 951.507   2
  18  12  -6 1888.16 923.696   1
  18  12  -6 1129.09 625.469   4
  12 -30  -6 152.041 593.113   1
  12 -30  -6 2196.55 893.170   3
 -12 -18  -6 1690.22 751.757   3
  18  12  -6 1178.91 531.507   2
 -30  18  -3 9099.32 1013.36   3
  18  12  -3 10450.3 1435.60   1
 -18  30  -3 11547.3 1370.70   4
 -18  30  -3 10264.2 1323.71   2
  18  12  -3 7838.54 1139.32   4
  12 -30  -3 10083.1 1114.35   1
  12 -30  -3 9128.48 906.700   3
  18  12  -3 8551.68 983.819   2
 -12 -18  -3 9152.49 865.859   3
  30 -12  -3 6568.82 1056.91   1
  18  12   0 2106.06 661.114   2
 -12 -18   0 2155.93 424.757   3
 -30  18   0 2324.68 669.567   3
  18  12   0 3397.40 799.841   1
 -18  30   0 1972.31 730.102   4
  30 -12   0 1096.11 474.134   1
 -18  30   0 3038.27 758.539   2
  18  12   0 2415.30 817.155   4
  18  12   3 7321.56 1121.57   2
 -30  18   3 7482.81 1158.05   4
 -30  18   3 6010.92 714.608   2
 -18  30   3 9818.79 1262.65   4
  18  12   3 6980.18 1124.94   4
 -18  30   3 6514.56 868.519   2
  30 -12   3 4170.89 548.224   1
  18  12   6 1964.52 879.947   2
 -30  18   6 903.268 645.508   4
 -18  30   6 1647.92 770.252   4
  18  12   6 2705.99 944.465   4
 -18  30   6 2134.07 637.316   2
 -30  19  -4 2532.99 654.165   3
  30 -11  -4 2983.83 884.853   1
 -19  30  -4 4706.50 992.117   4
 -19  30  -4 2232.91 837.896   2
  19  11  -4 1805.34 817.192   1
  11 -30  -4 3306.90 780.017   1
  19  11  -4 2639.65 750.908   4
  11 -30  -4 3724.87 727.381   3
  19  11  -4 4183.55 754.719   2
 -11 -19  -4 1858.57 551.864   3
 -11 -19  -1 1222.19 400.308   3
  19  11  -1 2073.34 645.846   2
 -30  19  -1 2047.75 648.991   3
 -19  30  -1 907.348 612.632   4
  30 -11  -1 2708.55 731.042   1
  19  11  -1 2644.24 775.761   1
 -19  30  -1 656.784 572.139   2
  19  11  -1 1262.59 745.965   4
  19  11   2 280.916 543.154   2
 -11 -19   2 856.594 325.678   3
 -30  19   2 1011.77 629.208   3
 -30  19   2 700.371 641.471   4
 -30  19   2 671.058 402.935   2
  19  11   2 120.539 493.295   1
 -19  30   2 899.303 673.311   4
  19  11   2 1567.21 613.843   4
 -19  30   2 1020.71 587.217   2
  30 -11   2 387.710 389.186   1
  19  11   5 793.757 741.044   2
 -30  19   5 1061.78 712.034   4
 -19  30   5 1119.55 679.370   4
  19  11   5 897.321 711.810   4
 -19  30   5 355.557 414.279   2
  20  10  -5 167.973 438.401   2
 -30  20  -5 950.078 569.708   3
  30 -10  -5 212.866 656.549   1
 -20  30  -5 7.45679 613.583   4
 -20  30  -5-251.322 727.061   2
  10 -30  -5 184.529 505.065   1
  20  10  -5-307.169 835.757   1
  20  10  -5-528.623 554.934   4
  10 -30  -5 342.098 578.114   3
 -10 -20  -5 84.4422 523.696   3
  20  10  -2 671.519 466.675   2
 -30  20  -2 893.675 528.042   3
 -30  20  -2 697.881 635.263   2
  30 -10  -2 583.489 614.164   1
 -20  30  -2 871.080 666.320   4
  20  10  -2 1681.41 766.814   1
 -20  30  -2-180.922 521.717   2
  20  10  -2 1103.08 633.527   4
  10 -30  -2 1018.81 411.320   3
 -10 -20  -2-78.4630 323.071   3
  20  10   1 805.639 646.222   2
 -10 -20   1 1088.63 338.083   3
 -30  20   1 28.3970 491.150   3
 -30  20   1 1285.56 673.796   4
 -30  20   1 1245.45 567.411   2
 -20  30   1 814.194 676.144   4
  20  10   1 493.246 545.926   1
  30 -10   1 1594.33 533.456   1
 -20  30   1 800.375 532.928   2
  20  10   1 382.817 576.968   4
  20  10   4-386.586 598.855   2
 -30  20   4 440.262 606.223   4
 -20  30   4-331.219 596.801   4
  20  10   4 480.063 448.334   1
  20  10   4-147.361 611.601   4
 -20  30   4-114.766 431.227   2
 -30  21  -6 3395.96 754.214   3
  30  -9  -6 721.035 789.364   1
 -30  21  -6 524.193 702.678   4
 -21  30  -6 2052.37 860.324   4
 -21  30  -6 3195.18 1012.65   2
   9 -30  -6 4176.97 859.017   1
  21   9  -6 3197.28 1111.71   1
   9 -30  -6 2692.52 843.678   3
  -9 -21  -6 2019.71 767.404   3
 -30  21  -3 5137.07 820.369   3
 -30  21  -3 3433.95 967.135   2
  21   9  -3 6855.16 1217.18   1
 -21  30  -3 4377.90 1030.32   4
 -21  30  -3 4925.01 990.754   2
  21   9  -3 5040.89 975.109   4
   9 -30  -3 5004.39 704.034   3
  30  -9  -3 3709.40 972.861   1
  -9 -21  -3 4279.38 618.777   3
  21   9  -3 6930.91 952.089   2
  -9 -21   0 2694.11 400.226   3
  21   9   0 2695.04 731.795   2
 -30  21   0 3401.94 708.321   3
 -30  21   0 1601.02 741.194   4
 -30  21   0 2257.32 713.629   2
  30  -9   0 2505.56 679.009   1
 -21  30   0 1454.91 710.641   4
  21   9   0 3179.97 883.652   1
 -21  30   0 2766.26 787.989   2
  21   9   0 2447.30 827.289   4
  21   9   3 5298.49 1017.97   2
 -30  21   3 3829.59 919.961   4
  21   9   3 5112.94 834.822   1
 -30  21   3 4281.17 636.013   2
 -21  30   3 4036.45 954.278   4
 -21  30   3 5288.25 835.646   2
  21   9   3 5507.56 1044.97   4
 -30  21   6 993.888 685.387   4
 -21  30   6 624.186 673.130   4
 -30  22  -4 1072.51 527.295   3
  22   8  -4 717.449 464.033   2
  30  -8  -4 582.712 723.560   1
 -30  22  -4 554.626 742.084   4
 -30  22  -4-408.239 690.088   2
 -22  30  -4 992.926 779.187   4
 -22  30  -4 856.909 787.443   2
   8 -30  -4 1356.58 606.701   1
  22   8  -4 1204.76 819.481   1
   8 -30  -4 730.625 522.027   3
  -8 -22  -4 1051.75 528.992   3
 -30  22  -1 4029.88 772.784   3
  30  -8  -1 2751.59 705.478   1
 -30  22  -1 4072.41 975.805   4
 -22  30  -1 5297.91 1032.93   4
 -30  22  -1 4431.14 917.360   2
 -22  30  -1 4583.77 926.035   2
  22   8  -1 4716.68 965.088   1
  22   8  -1 4795.08 969.747   4
  -8 -22  -1 4308.15 502.666   3
  22   8  -1 5354.46 905.093   2
  22   8   2 3381.69 804.086   2
 -30  22   2 2238.39 779.385   4
 -22  30   2 3462.07 908.072   4
 -30  22   2 2329.38 601.925   2
  22   8   2 2072.22 658.239   1
  30  -8   2 2623.97 570.088   1
 -22  30   2 3370.24 755.020   2
  22   8   2 4005.44 908.463   4
 -30  22   5 3841.77 916.865   4
 -22  30   5 2793.02 807.833   4
 -22  30   5 2592.78 607.489   2
 -30  23  -5 213.053 488.364   3
  30  -7  -5 34.2026 709.561   1
  23   7  -5 6.33409 469.153   2
 -30  23  -5-1459.44 843.038   4
 -30  23  -5-749.740 830.934   2
 -23  30  -5-95.5331 589.503   4
   7 -30  -5-664.605 613.369   1
 -23  30  -5 212.846 663.006   2
  23   7  -5-72.7128 753.844   1
   7 -30  -5-49.6780 534.887   3
  -7 -23  -5 425.511 496.018   3
  30  -7  -2 586.603 604.717   1
  23   7  -2 622.617 511.592   2
 -30  23  -2 339.298 439.127   3
 -30  23  -2 1257.83 756.988   4
 -30  23  -2 104.866 603.538   2
 -23  30  -2 1757.19 809.969   4
 -23  30  -2 1056.76 697.751   2
  23   7  -2 619.943 669.711   1
  -7 -23  -2 532.930 330.714   3
  23   7   1 57.0188 603.861   2
 -30  23   1 691.246 511.475   3
 -30  23   1 791.104 664.247   4
  30  -7   1 57.6540 425.210   1
 -23  30   1 2343.99 842.985   4
 -30  23   1 735.812 537.180   2
  23   7   1 1454.13 679.174   1
 -23  30   1 375.923 485.341   2
 -30  23   4 144.375 641.033   4
 -23  30   4 1569.57 728.619   4
 -23  30   4 8.74468 409.698   2
  30  -6  -3 2202.92 894.153   1
 -30  24  -3 1960.81 632.725   3
  24   6  -3 2452.85 634.382   2
 -24  30  -3 1402.04 515.171   3
 -30  24  -3 1656.28 803.455   4
 -30  24  -3 241.341 633.522   2
 -24  30  -3 488.094 733.991   4
 -24  30  -3 710.179 775.128   2
  24   6  -3 1976.76 870.583   1
  -6 -24  -3 1536.47 466.806   3
  30  -6   0 2658.81 713.102   1
  24   6   0 3867.73 825.766   2
 -30  24   0 2840.98 768.455   3
 -30  24   0 1265.01 755.725   4
 -24  30   0 1995.94 812.192   4
 -30  24   0 1855.01 717.408   2
 -24  30   0 2053.58 679.239   2
  24   6   0 1776.07 740.636   1
 -30  24   3 1435.74 755.423   4
 -24  30   3 1403.32 779.070   4
 -30  24   3 822.285 407.618   2
 -24  30   3 1271.26 523.809   2
  24   6   3 1536.69 596.069   1
  30  -5  -4 1715.85 882.999   1
 -30  25  -4 1244.75 552.543   3
  25   5  -4-171.727 478.246   2
 -25  30  -4-58.4490 408.788   3
 -30  25  -4 2307.98 922.540   4
 -25  30  -4-476.281 658.869   4
 -30  25  -4 1859.80 933.554   2
 -25  30  -4 971.191 707.369   2
  25   5  -4 1072.76 815.881   1
  -5 -25  -4 1314.61 537.820   3
  30  -5  -1 2756.35 782.502   1
 -30  25  -1 3996.38 756.402   3
  25   5  -1 4420.42 834.920   2
 -30  25  -1 612.578 621.159   4
 -25  30  -1 3223.02 945.876   4
 -30  25  -1 2234.68 746.373   2
 -25  30  -1 3712.28 969.417   2
  25   5  -1 5030.93 991.446   1
 -30  25   2 2291.22 844.558   4
 -25  30   2 3140.45 976.132   4
  30  -5   2 776.996 446.676   1
 -30  25   2 1586.33 555.664   2
 -25  30   2 1445.44 611.060   2
  25   5   2 1652.52 594.498   1
 -30  25   5 4505.18 1037.82   4
 -25  30   5 4764.94 1025.22   4
 -30  26  -5 936.121 518.240   3
 -30  26  -5 548.394 771.024   4
 -26  30  -5-1404.19 864.983   4
 -30  26  -5-486.002 750.411   2
 -26  30  -5-941.529 854.695   2
  26   4  -5 180.575 766.622   1
  -4 -26  -5 278.307 486.762   3
  30  -4  -5-118.217 721.454   1
  30  -4  -2 354.037 651.866   1
 -30  26  -2 178.461 454.906   3
  26   4  -2 209.844 478.151   2
 -26  30  -2 176.385 449.200   3
 -30  26  -2-131.835 640.845   4
 -26  30  -2 809.976 704.836   4
 -30  26  -2 1410.37 713.851   2
 -26  30  -2 408.603 647.339   2
  26   4  -2 1098.82 753.311   1
  30  -4   1 566.987 510.638   1
 -30  26   1 560.857 761.204   4
 -26  30   1 927.654 797.723   4
 -30  26   1 849.720 593.727   2
 -26  30   1 1264.94 616.379   2
  26   4   1 638.496 585.738   1
 -30  26   4 572.774 709.601   4
 -26  30   4 357.825 677.580   4
 -26  30   4 106.028 415.768   2
 -30  27  -3 743.569 507.182   3
 -27  30  -3-453.121 507.111   3
 -30  27  -3 1038.30 727.557   4
 -27  30  -3 432.664 664.149   4
 -30  27  -3 700.944 754.800   2
 -27  30  -3 805.143 744.716   2
  27   3  -3 481.704 732.067   1
  30  -3  -3 67.5640 694.026   1
  30  -3   0 1252.18 597.925   1
 -30  27   0 2466.68 721.686   3
 -30  27   0 1363.96 838.862   4
 -27  30   0 1925.84 816.778   4
 -30  27   0 960.711 601.226   2
 -27  30   0 1316.56 638.971   2
  27   3   0 2704.79 824.319   1
 -30  27   3 242.849 770.189   4
 -27  30   3 638.024 734.056   4
 -27  30   3 296.015 438.021   2
 -30  28  -4 1280.30 580.884   3
 -28  30  -4 2343.46 610.724   3
 -30  28  -4 599.278 743.436   4
 -28  30  -4 2399.45 960.838   4
 -30  28  -4 3239.73 1019.75   2
 -28  30  -4 1511.39 892.339   2
  28   2  -4 1853.43 962.379   1
  30  -2  -4 1871.98 894.475   1
 -30  28  -1 1960.23 621.761   3
 -30  28  -1 1841.10 893.770   4
 -28  30  -1 2544.84 931.335   4
 -30  28  -1 3474.72 915.277   2
 -28  30  -1 2209.95 774.212   2
  28   2  -1 2769.26 853.898   1
  30  -2  -1 954.739 700.096   1
 -30  28   2 1061.67 804.092   4
 -28  30   2 1624.98 831.092   4
 -30  28   2 1399.04 591.545   2
 -28  30   2 814.346 532.098   2
  28   2   2 1302.62 583.786   1
 -30  29  -2-39.8020 506.535   3
 -29  30  -2 1243.25 617.453   3
 -30  29  -2-278.374 675.114   4
 -29  30  -2 812.141 720.778   4
 -30  29  -2 633.461 700.009   2
 -29  30  -2 348.560 662.220   2
  29   1  -2 524.502 754.295   1
  30  -1  -2-627.331 649.706   1
  30  -1   1 83.4504 495.319   1
 -29  30   1 948.478 748.146   4
 -30  29   1 1012.71 618.142   2
 -29  30   1 1773.73 655.872   2
  29   1   1 719.716 598.506   1
 -30  30  -3-433.073 532.644   3
 -30  30  -3-600.969 817.052   4
 -30  30  -3-17.3740 708.696   2
  30   0  -3 326.869 682.034   1
 -30  30   0 2091.02 860.716   4
 -30  30   0 621.823 589.601   2
  30   0   0 1769.75 881.300   1
 -30  30   3 1260.94 887.995   4
 -31   0  -1 890.745 674.937   3
  31 -30  -2 1731.92 724.553   1
 -30  -1  -2 609.528 629.028   3
 -31   1  -2 982.631 656.839   3
  30 -31  -2 1406.21 668.667   1
  -1  31  -2 489.652 727.586   4
   1  30  -2-167.073 700.604   4
  -1  31  -2 1511.07 759.011   2
   1  30  -2 333.869 612.263   2
 -30  -1   1 3230.77 851.751   3
 -31   1   1 2324.33 803.653   3
  31 -30   1 3659.79 816.500   1
  -1  31   1 4952.15 1187.39   4
   1  30   1 4070.06 1029.96   4
  30 -31   1 3318.20 768.658   1
  -1  31   1 4345.28 897.454   2
   1  30   1 4039.41 952.466   2
 -29  -2  -3 2800.36 779.130   3
 -31   2  -3 980.745 644.876   3
  29 -31  -3 1793.12 727.496   1
  -2  31  -3 1780.85 844.183   4
   2  29  -3 4162.58 1014.94   4
  31 -29  -3 2722.39 799.886   1
  -2  31  -3 2037.70 753.997   2
   2  29  -3 3022.88 878.777   2
 -29  -2   0 1792.48 705.625   3
 -31   2   0-51.4014 617.757   3
  29 -31   0 550.955 662.315   1
  -2  31   0 625.714 702.614   4
   2  29   0 1169.07 868.699   4
  31 -29   0 505.371 580.607   1
  -2  31   0 522.269 573.828   2
   2  29   0 252.136 571.769   2
 -29  -2   3 1389.85 781.095   3
 -31   2   3 370.158 714.303   3
  29 -31   3 816.246 570.659   1
  -2  31   3 925.153 805.822   4
   2  29   3 2416.80 979.106   4
  31 -29   3 1661.97 646.389   1
  -2  31   3 1046.40 667.970   2
   2  29   3 644.095 708.622   2
 -28  -3  -1 909.061 596.900   3
 -31   3  -1 1661.68 663.003   3
  -3  31  -1 1895.68 767.210   4
   3  28  -1 477.462 665.102   4
  -3  31  -1 218.600 567.362   2
   3  28  -1 1433.71 703.766   2
  28 -31  -1 882.390 612.414   1
  31 -28  -1 409.837 513.853   1
 -28  -3   2 674.368 643.930   3
 -31   3   2-159.656 611.272   3
  -3  31   2 577.062 710.209   4
   3  28   2 1680.29 987.360   4
  31 -28   2-46.9258 514.648   1
  28 -31   2 538.320 580.890   1
  -3  31   2-123.074 568.340   2
   3  28   2-672.292 619.970   2
 -27  -4  -2 1117.61 540.033   3
 -31   4  -2 37.0194 540.009   3
  -4  31  -2 2379.02 887.451   4
   4  27  -2 128.152 651.024   4
  27 -31  -2 1431.74 724.604   1
  31 -27  -2 1405.86 654.759   1
  -4  31  -2 1684.47 704.885   2
   4  27  -2 1176.00 638.459   2
 -27  -4   1 1532.07 653.345   3
 -31   4   1 3020.51 852.575   3
  -4  31   1 2173.94 843.028   4
   4  27   1 1627.80 776.862   4
  31 -27   1 3221.81 752.537   1
  -4  31   1 2804.92 808.687   2
  27 -31   1 3035.15 732.052   1
   4  27   1 3029.92 854.429   2
   4  27   4 1410.78 714.327   2
 -31   4   4 2957.65 1005.56   3
  -4  31   4 3204.15 1049.05   4
   4  27   4 2286.05 912.145   4
  31 -27   4 1898.47 590.035   1
  -4  31   4 3477.96 923.555   2
 -26  -5  -3 3443.44 756.742   3
 -31   5  -3 3273.60 784.417   3
  26 -31  -3 4379.24 932.882   1
  31 -26  -3 3232.46 814.615   1
  -5  31  -3 3495.38 972.329   4
   5  26  -3 3965.23 971.401   4
  -5  31  -3 4379.22 972.896   2
   5  26  -3 3222.19 807.232   2
  31 -26   0 827.992 546.707   1
 -26  -5   0 47.2948 469.507   3
 -31   5   0 1483.69 711.921   3
  -5  31   0 632.439 685.288   4
  26 -31   0 642.923 553.884   1
   5  26   0 264.604 632.530   4
  -5  31   0 874.461 659.362   2
   5  26   0 617.280 624.464   2
 -26  -5   3 1786.41 753.889   3
 -31   5   3 1577.01 791.201   3
  -5  31   3 829.693 823.619   4
   5  26   3 2074.37 871.827   4
  -5  31   3 1485.73 684.008   2
  31 -26   3 1849.89 563.742   1
   5  26   3 928.856 674.478   2
 -25  -6  -4 748.061 535.817   3
 -31   6  -4 827.169 633.187   3
  31 -25  -4 1110.45 681.421   1
  25 -31  -4 171.243 546.791   1
  -6  31  -4 1876.45 853.039   4
   6  25  -4 1499.75 828.297   4
  -6  31  -4 783.057 627.425   2
   6  25  -4 870.727 615.920   2
 -25  -6  -1 1832.20 601.790   3
 -31   6  -1 1512.88 673.552   3
  25 -31  -1 1862.59 779.103   1
  -6  31  -1 1996.49 840.441   4
   6  25  -1 1262.90 787.664   4
  31 -25  -1 1855.55 652.226   1
  -6  31  -1 1429.43 650.331   2
   6  25  -1 1242.16 667.587   2
 -25  -6   2 563.592 587.766   3
 -31   6   2-522.439 637.145   3
  25 -31   2 882.475 541.474   1
  -6  31   2-57.9717 630.461   4
   6  25   2 682.345 634.740   4
  -6  31   2 175.918 528.336   2
   6  25   2 135.267 540.296   2
  31 -25   2 1135.76 510.492   1
   6  25   5-55.6412 660.546   2
  -6  31   5-213.581 670.502   4
   6  25   5 74.3880 667.970   4
  -6  31   5 1004.28 665.884   2
  31 -24  -5 3871.87 954.303   1
 -31   7  -5 4065.01 831.250   3
  24 -31  -5 4182.90 911.478   1
  -7  31  -5 5380.37 1107.15   4
  -7  31  -5 5980.60 1085.99   2
   7  24  -5 5279.69 1128.60   4
   7  24  -5 6737.85 1059.29   2
 -24  -7  -5 4047.46 896.618   3
 -24  -7  -2 1701.15 570.301   3
 -31   7  -2 1683.30 680.417   3
  31 -24  -2 699.128 611.348   1
  -7  31  -2 1064.46 757.896   4
   7  24  -2 1546.69 782.887   4
  -7  31  -2 1926.67 749.395   2
   7  24  -2 1955.05 700.525   2
  24 -31  -2 1514.07 609.579   1
 -24  -7   1 4943.51 805.701   3
 -31   7   1 5239.33 953.384   3
  31 -24   1 2792.45 669.357   1
  24 -31   1 5122.66 901.754   1
  -7  31   1 4579.23 1125.17   4
   7  24   1 5427.82 1090.99   4
  -7  31   1 5099.13 940.163   2
   7  24   1 5249.43 947.271   2
   7  24   4 2953.52 844.329   2
 -31   7   4 1746.07 784.887   3
  -7  31   4 4199.23 1047.60   4
   7  24   4 2094.82 828.524   4
  -7  31   4 4772.49 917.537   2
  31 -24   4 2840.45 594.545   1
 -23  -8  -3 2013.18 626.783   3
 -31   8  -3 2441.65 773.524   3
  31 -23  -3 2714.11 788.803   1
  -8  31  -3 2229.22 837.819   4
   8  23  -3 3084.34 872.094   4
  -8  31  -3 1607.49 738.143   2
  23 -31  -3 1668.62 736.579   1
   8  23  -3 3384.40 822.358   2
 -23  -8   0 700.820 505.342   3
 -31   8   0 782.568 566.253   3
  -8  31   0 1292.18 791.622   4
   8  23   0 1071.87 705.590   4
  31 -23   0 1307.40 542.506   1
  -8  31   0 1345.39 631.525   2
  23 -31   0 1935.66 665.049   1
   8  23   0 489.448 544.439   2
   8  23   3 1793.74 769.809   2
 -23  -8   3 2837.92 771.005   3
 -31   8   3 3381.97 910.187   3
  31 -23   3 2720.56 592.873   1
  -8  31   3 2935.94 928.010   4
   8  23   3 4167.30 964.081   4
  -8  31   3 4150.06 866.320   2
 -31   9  -4 182.115 517.156   3
  -9  31  -4 573.233 590.054   4
   9  22  -4 596.283 693.626   4
  22 -31  -4 596.735 604.528   1
  -9  31  -4 481.962 591.840   2
   9  22  -4 812.137 542.312   2
  31 -22  -4-657.374 652.219   1
 -22  -9  -4 868.482 584.793   3
 -22  -9  -1 611.566 478.821   3
 -31   9  -1 914.293 543.169   3
  31 -22  -1 1134.71 556.397   1
  -9  31  -1 1148.81 748.995   4
   9  22  -1-41.7865 602.653   4
  22 -31  -1 640.623 503.615   1
  -9  31  -1 202.706 549.529   2
   9  22  -1 426.781 483.205   2
 -22  -9   2 890.963 583.180   3
 -31   9   2 1092.95 635.964   3
  31 -22   2 689.827 448.415   1
  -9  31   2 1245.24 783.022   4
   9  22   2 1683.94 731.955   4
  -9  31   2 671.508 592.760   2
   9  22   2-327.637 565.423   2
   9  22   5 1034.13 709.598   2
  -9  31   5-820.007 706.809   4
   9  22   5 726.340 696.780   4
  -9  31   5 1042.16 590.090   2
 -31  10  -5 2470.74 685.320   3
 -10  31  -5 1751.91 753.019   4
  21 -31  -5 3923.59 876.473   1
  10  21  -5 2140.93 800.586   4
 -10  31  -5 1741.59 727.647   2
  31 -21  -5 665.854 657.893   1
  10  21  -5 1995.08 684.985   2
 -21 -10  -5 2342.02 732.962   3
  31 -21  -2 715.892 654.691   1
 -21 -10  -2 717.472 499.907   3
 -31  10  -2 518.958 543.115   3
  21 -31  -2 1583.00 683.446   1
 -10  31  -2 23.6479 626.057   4
  10  21  -2 360.365 600.014   4
 -10  31  -2 980.262 646.910   2
  10  21  -2 480.152 510.540   2
 -21 -10   1 1522.05 580.252   3
 -31  10   1 1453.43 597.409   3
  21 -31   1 1615.58 579.399   1
 -10  31   1 3939.30 931.857   4
  10  21   1 2587.85 849.913   4
  31 -21   1 1411.18 536.090   1
 -10  31   1 2799.27 735.471   2
  10  21   1 3533.12 814.352   2
  31 -21   4 2225.34 515.221   1
  10  21   4 2252.13 867.569   2
 -10  31   4 3516.95 937.131   4
  10  21   4 2352.58 868.401   4
 -10  31   4 2924.46 761.421   2
 -31  11  -6 1078.89 686.264   3
  11  20  -6 1506.74 1019.99   1
 -11  31  -6 2393.12 830.877   4
  20 -31  -6 3800.35 894.455   1
 -11  31  -6-241.809 669.099   2
  11  20  -6 2388.28 835.174   4
  31 -20  -6 1344.17 792.546   1
  11  20  -6 1056.53 563.781   2
 -20 -11  -6 2397.87 774.692   3
 -20 -11  -3 2896.48 666.985   3
 -31  11  -3 2926.97 707.436   3
  20 -31  -3 3417.16 803.313   1
 -11  31  -3 4186.13 969.167   4
  11  20  -3 4307.44 962.383   4
 -11  31  -3 4634.46 909.658   2
  31 -20  -3 3096.42 778.590   1
  11  20  -3 3818.17 814.385   2
 -20 -11   0 4060.76 674.023   3
 -31  11   0 3272.51 780.100   3
  31 -20   0 3086.44 698.186   1
 -11  31   0 4257.77 985.465   4
  20 -31   0 4001.09 756.721   1
  11  20   0 4738.51 1089.71   4
 -11  31   0 3319.69 824.148   2
  11  20   0 3835.06 803.074   2
 -20 -11   3 5393.42 821.655   3
 -31  11   3 8403.01 1156.92   3
 -11  31   3 8007.88 1240.94   4
  31 -20   3 5403.41 707.516   1
  11  20   3 7337.39 1214.33   4
 -11  31   3 7074.03 983.024   2
  11  20   3 5257.83 1071.76   2
  11  20   6 2486.65 858.888   2
 -11  31   6 1183.36 743.116   4
  11  20   6 1660.73 854.498   4
 -11  31   6 1128.67 648.938   2
 -31  12  -4 429.266 503.036   3
  19 -31  -4 413.709 513.752   1
 -12  31  -4 1440.93 778.427   4
  12  19  -4 32.6041 545.083   4
 -12  31  -4 1376.85 728.040   2
  31 -19  -4 1097.07 705.127   1
  12  19  -4-209.744 505.286   2
 -19 -12  -4 444.613 492.907   3
 -19 -12  -1 171.006 384.430   3
  19 -31  -1 307.833 477.074   1
 -31  12  -1 1565.19 601.339   3
 -12  31  -1 982.513 620.798   4
  12  19  -1 607.924 625.084   4
 -12  31  -1 377.992 519.181   2
  12  19  -1 1620.38 620.652   2
  31 -19  -1 883.700 543.986   1
  12  19   2 1526.43 684.967   2
 -19 -12   2 1556.22 539.778   3
 -31  12   2 1370.93 703.533   3
 -12  31   2 1823.65 726.225   4
  12  19   2 698.857 594.630   4
 -12  31   2 1592.47 666.389   2
  31 -19   2 1091.78 501.511   1
  12  19   5 1053.46 716.951   2
 -12  31   5-272.237 655.463   4
  12  19   5-722.137 650.411   4
 -12  31   5 30.6653 502.754   2
  18 -31  -5 681.937 615.980   1
 -31  13  -5-582.399 593.250   3
  13  18  -5 1608.70 999.883   1
 -13  31  -5 762.894 705.804   4
 -13  31  -5 1597.95 734.904   2
  13  18  -5 494.322 562.514   4
  31 -18  -5-400.986 673.605   1
  13  18  -5 1149.42 574.361   2
 -18 -13  -5-5.90527 512.182   3
 -18 -13  -2 1634.36 570.119   3
 -31  13  -2 1945.30 648.634   3
 -13  31  -2 3764.00 882.340   4
  13  18  -2 1666.73 693.695   4
 -13  31  -2 4272.57 851.487   2
  31 -18  -2 2452.97 675.625   1
  18 -31  -2 3302.11 772.482   1
  13  18  -2 2437.62 666.557   2
  13  18   1 2594.41 769.973   2
 -18 -13   1 2484.39 582.939   3
 -31  13   1 2039.46 717.372   3
  31 -18   1 1604.09 529.504   1
 -13  31   1 2157.57 721.492   4
 -13  31   1 4587.11 894.091   2
  13  18   1 4327.66 996.361   4
  13  18   4 3761.97 883.353   2
 -13  31   4 3796.58 958.601   4
  13  18   4 1363.93 676.176   4
 -13  31   4 1821.95 696.573   2
 -31  14  -6 1435.72 666.007   3
 -14  31  -6 1247.52 681.417   4
  14  17  -6 3093.74 1086.53   1
 -14  31  -6 2439.76 950.936   2
  31 -17  -6 2153.82 848.490   1
  14  17  -6 1586.12 698.933   4
  14  17  -6 2329.73 703.558   2
 -17 -14  -6 1510.48 647.491   3
  17 -31  -6 3417.25 902.601   1
  31 -17  -3 6188.77 997.500   1
 -14  31  -3 6209.92 1140.81   4
 -14  31  -3 7921.73 1229.25   2
  14  17  -3 9757.95 1295.35   4
  14  17  -3 8825.27 1066.45   2
 -17 -14  -3 7977.97 861.308   3
  17 -31  -3 8402.39 1073.99   1
 -31  14  -3 8814.49 1038.54   3
  17 -31   0 3670.76 787.554   1
 -17 -14   0 4107.82 654.193   3
 -31  14   0 3732.17 769.187   3
 -14  31   0 3482.38 846.506   4
  31 -17   0 4762.78 759.497   1
 -14  31   0 5481.62 971.606   2
  14  17   0 2431.09 906.468   4
  14  17   0 4476.85 858.377   2
  31 -17   3 6010.58 678.535   1
 -17 -14   3 6593.79 800.675   3
 -31  14   3 7301.81 1081.09   3
 -14  31   3 6193.36 1095.88   4
  14  17   3 6478.43 1059.88   4
 -14  31   3 7106.22 978.113   2
  14  17   3 6303.29 1064.44   2
  14  17   6 2675.47 895.496   2
 -31  14   6 3033.53 811.328   4
 -14  31   6 3763.42 976.203   4
  14  17   6 1448.15 742.042   4
 -14  31   6 789.952 573.478   2
 -31  15  -4 1118.01 525.466   3
  15  16  -4 2730.85 974.633   1
 -15  31  -4 1797.95 736.244   4
 -15  31  -4 803.998 632.597   2
  31 -16  -4 1924.88 776.003   1
  16 -31  -4 3628.51 821.873   1
  15  16  -4 2407.53 744.939   4
  15  16  -4 1373.01 604.323   2
 -16 -15  -4 833.041 520.320   3
 -16 -15  -1-336.979 397.798   3
  16 -31  -1 1104.90 496.396   1
 -31  15  -1 548.890 476.956   3
 -15  31  -1 292.972 612.014   4
  15  16  -1 747.214 721.696   4
 -15  31  -1 917.625 616.988   2
  31 -16  -1 1019.16 551.921   1
  15  16  -1 233.872 485.208   2
  15  16   2 3125.64 816.182   2
 -16 -15   2 1585.45 495.174   3
 -31  15   2 3144.64 816.052   3
  31 -16   2 1478.02 502.106   1
 -15  31   2 837.049 698.326   4
  15  16   2 3874.15 896.077   4
 -15  31   2 2041.14 611.105   2
  15  16   5 1075.89 683.185   2
 -31  15   5 443.117 554.878   4
 -15  31   5 1664.50 763.162   4
  15  16   5 1065.72 770.622   4
 -15  31   5 498.863 547.294   2
 -31  16  -5 1247.27 598.148   3
 -16  31  -5-292.826 619.457   4
  16  15  -5 1556.54 889.030   1
  31 -15  -5-65.4867 648.604   1
 -16  31  -5 748.568 713.646   2
  15 -31  -5 1550.91 674.880   1
  16  15  -5 1637.74 638.329   4
  16  15  -5 249.955 519.138   2
 -15 -16  -5 676.393 559.062   3
 -15 -16  -2 1653.67 503.592   3
 -31  16  -2 2070.87 627.236   3
  16  15  -2 1780.72 717.502   1
 -16  31  -2 1589.36 667.062   4
 -16  31  -2 2460.75 735.907   2
  31 -15  -2 1198.09 716.615   1
  16  15  -2 1422.71 634.471   4
  15 -31  -2 2462.56 724.507   1
  16  15  -2 2239.21 666.481   2
  16  15   1 918.707 583.854   2
 -15 -16   1-200.229 342.997   3
 -31  16   1 638.694 559.001   3
 -16  31   1 445.600 584.583   4
  16  15   1 948.453 706.935   4
 -16  31   1 532.164 485.868   2
  31 -15   1 163.589 410.012   1
  16  15   4 1903.66 745.358   2
 -16  31   4 1239.73 751.466   4
  16  15   4 1940.21 878.068   4
 -16  31   4 1857.57 630.118   2
 -31  17  -6 1650.86 633.654   3
 -17  31  -6 2310.10 856.777   4
  31 -14  -6 1504.40 804.872   1
  17  14  -6 3265.82 1133.93   1
 -17  31  -6 2336.31 821.813   2
  14 -31  -6 3199.65 838.025   1
  17  14  -6 1926.42 676.036   4
  14 -31  -6 2273.88 872.526   3
 -14 -17  -6 1780.41 725.129   3
  17  14  -6 2316.92 660.419   2
 -31  17  -3 6168.71 917.104   3
  17  14  -3 7666.40 1248.92   1
 -17  31  -3 5073.45 1038.03   4
  14 -31  -3 8213.82 1081.09   1
 -17  31  -3 5473.43 1064.02   2
  31 -14  -3 4985.02 958.170   1
  17  14  -3 6426.99 1057.06   4
  14 -31  -3 5638.40 755.045   3
  17  14  -3 6676.98 915.962   2
 -14 -17  -3 5211.39 712.630   3
 -14 -17   0 3676.92 574.820   3
  17  14   0 3544.40 786.631   2
 -31  17   0 5108.13 856.988   3
 -17  31   0 1745.58 795.264   4
  17  14   0 5569.53 1020.92   4
 -17  31   0 4353.71 846.261   2
  31 -14   0 3237.00 687.428   1
 -31  17   3 8906.79 1180.53   3
 -17  31   3 9228.29 1257.66   4
  17  14   3 7524.67 1179.75   4
 -17  31   3 9701.59 1095.66   2
  31 -14   3 5123.06 620.507   1
  17  14   3 9467.42 1303.14   2
  17  14   6 2305.87 886.192   2
 -31  17   6 807.127 686.222   4
 -17  31   6 1812.87 749.635   4
  17  14   6 2578.48 886.654   4
 -17  31   6 2548.05 680.347   2
 -31  18  -4 2465.53 709.743   3
  13 -31  -4 2565.19 706.661   1
 -18  31  -4 3131.62 965.679   4
  31 -13  -4 2606.63 873.710   1
  18  13  -4 2415.46 953.742   1
 -18  31  -4 3240.27 909.905   2
  18  13  -4 4529.11 901.657   4
  13 -31  -4 4227.93 858.735   3
 -13 -18  -4 2154.18 583.253   3
  18  13  -4 2507.24 629.638   2
 -13 -18  -1 2739.33 511.548   3
  18  13  -1 2119.07 687.600   2
 -31  18  -1 3386.86 770.630   3
  18  13  -1 3760.58 914.347   1
 -18  31  -1 3791.25 862.764   4
  31 -13  -1 2079.05 663.491   1
 -18  31  -1 3177.05 864.897   2
  18  13  -1 1839.32 738.010   4
  31 -13   2 1242.78 468.507   1
  18  13   2 1745.74 763.639   2
 -13 -18   2 1918.59 450.058   3
 -31  18   2 1889.68 691.033   3
 -31  18   2 1780.94 584.430   2
 -18  31   2 2637.56 840.417   4
  18  13   2 2601.85 839.791   4
 -18  31   2 1929.48 637.034   2
  18  13   5 2284.54 882.362   2
 -31  18   5 1302.97 695.020   4
 -18  31   5-212.811 626.737   4
  18  13   5 1400.88 794.786   4
 -18  31   5 872.059 547.093   2
 -31  19  -5 199.204 492.076   3
  12 -31  -5 335.399 512.106   1
  31 -12  -5 525.720 680.086   1
 -19  31  -5-49.1464 639.542   4
 -19  31  -5-218.346 664.146   2
  19  12  -5 429.638 728.257   1
  19  12  -5 39.2576 549.775   4
  12 -31  -5 442.363 578.405   3
 -12 -19  -5 622.679 613.975   3
  19  12  -5 329.998 479.915   2
 -12 -19  -2 1337.32 422.632   3
  12 -31  -2 1303.27 636.466   1
  19  12  -2 1464.39 581.532   2
 -31  19  -2 2082.27 618.702   3
 -19  31  -2 1731.55 817.722   4
  31 -12  -2 1258.12 705.971   1
  19  12  -2 1570.61 848.271   1
 -19  31  -2 770.974 630.909   2
  19  12  -2 1388.94 696.835   4
  19  12   1 937.554 605.865   2
 -12 -19   1 1137.07 401.005   3
 -31  19   1 1065.65 563.525   3
 -31  19   1-488.027 531.347   2
  19  12   1 2079.13 676.434   1
 -19  31   1-159.717 630.811   4
  19  12   1 132.948 677.775   4
 -19  31   1-31.3466 534.453   2
  31 -12   1-363.990 432.154   1
  19  12   4 711.583 675.610   2
 -31  19   4 354.904 596.694   4
  19  12   4 721.057 533.135   1
 -19  31   4-732.378 654.321   4
  19  12   4 230.612 604.401   4
 -19  31   4-434.744 437.694   2
  20  11  -6 1829.34 606.673   2
 -31  20  -6 1819.74 712.567   3
  11 -31  -6 2027.20 755.616   1
  31 -11  -6 1635.49 846.868   1
 -20  31  -6 1169.83 727.557   4
 -20  31  -6 402.108 684.646   2
  20  11  -6 4362.79 1166.42   1
  11 -31  -6 1075.98 729.946   3
 -11 -20  -6 1422.70 679.392   3
 -31  20  -3 6042.57 889.669   3
  11 -31  -3 7251.88 1070.54   1
 -20  31  -3 6700.50 1174.40   4
 -20  31  -3 7412.08 1136.48   2
  20  11  -3 5754.21 1083.68   1
  20  11  -3 9040.22 1205.36   4
  11 -31  -3 8835.60 894.915   3
  20  11  -3 7244.45 971.251   2
 -11 -20  -3 6363.24 721.627   3
  31 -11  -3 5845.97 1096.81   1
 -11 -20   0 3005.44 481.518   3
 -31  20   0 3631.61 782.261   3
 -31  20   0 1341.79 672.272   2
 -20  31   0 2539.30 842.924   4
  20  11   0 4867.51 943.986   1
  31 -11   0 3254.68 702.155   1
 -20  31   0 2338.52 808.707   2
  20  11   0 4597.03 950.754   4
  20  11   0 5280.18 935.105   2
  20  11   3 3497.20 832.302   2
 -31  20   3 2471.67 872.036   4
 -20  31   3 2275.70 751.629   4
  20  11   3 2183.24 670.727   1
  20  11   3 488.438 671.690   4
 -20  31   3 2401.38 674.383   2
 -31  20   6 1731.33 772.691   4
 -20  31   6 1356.39 787.192   4
  20  11   6 1641.05 884.856   4
  21  10  -4 2696.06 696.488   2
 -31  21  -4 2501.94 690.455   3
  31 -10  -4 3128.30 906.079   1
 -21  31  -4 3406.89 916.313   4
 -21  31  -4 3473.36 1005.70   2
  21  10  -4 3073.17 968.048   1
  21  10  -4 2870.35 764.600   4
  10 -31  -4 1091.70 544.852   3
  10 -31  -4 1657.94 581.257   1
 -10 -21  -4 2662.11 618.061   3
 -10 -21  -1 1982.49 430.275   3
  21  10  -1 3196.31 769.616   2
 -31  21  -1 1781.54 630.970   3
 -31  21  -1 1225.34 709.876   2
  31 -10  -1 1920.21 696.554   1
 -21  31  -1 3317.26 882.955   4
  21  10  -1 3052.87 988.010   1
 -21  31  -1 1575.66 709.865   2
  21  10  -1 965.060 700.008   4
  21  10   2 1266.56 641.123   2
 -31  21   2 541.476 600.549   3
 -31  21   2-77.2437 616.423   4
 -21  31   2 896.863 683.159   4
 -31  21   2 560.202 517.330   2
  21  10   2-186.049 550.800   1
  21  10   2 1667.68 710.599   4
 -21  31   2 1511.16 662.532   2
  31 -10   2 968.350 446.263   1
  21  10   5 1740.59 837.943   2
 -31  21   5 1213.85 747.982   4
 -21  31   5 2861.46 851.189   4
 -21  31   5 1204.03 512.954   2
 -31  22  -5-116.360 484.113   3
  22   9  -5-34.6882 478.661   2
  31  -9  -5-52.9150 731.798   1
 -31  22  -5-154.539 667.899   4
 -31  22  -5-1163.55 860.129   2
 -22  31  -5 495.495 661.322   4
 -22  31  -5-727.124 816.113   2
  22   9  -5 105.906 722.295   1
   9 -31  -5-424.726 616.706   1
   9 -31  -5 279.820 589.234   3
  -9 -22  -5 83.6014 497.846   3
  22   9  -2 187.511 451.172   2
 -31  22  -2 1653.38 625.063   3
  31  -9  -2 1053.27 691.130   1
 -31  22  -2 645.051 685.317   4
 -31  22  -2-479.564 634.666   2
 -22  31  -2 375.305 637.387   4
 -22  31  -2 249.568 619.162   2
  22   9  -2 86.5484 690.874   1
  22   9  -2-320.693 585.967   4
  -9 -22  -2-65.6451 343.968   3
  22   9   1 653.224 570.512   2
 -31  22   1 621.171 618.504   3
 -31  22   1 44.7716 637.044   4
 -22  31   1 1315.23 715.874   4
 -31  22   1 91.4942 477.300   2
  31  -9   1-85.7350 457.428   1
  22   9   1 235.745 589.688   1
 -22  31   1 963.393 602.877   2
  22   9   4 729.245 697.597   2
 -31  22   4-358.841 615.230   4
 -22  31   4 742.755 688.366   4
 -22  31   4 256.752 421.032   2
  23   8  -3 3323.06 740.126   2
 -31  23  -3 2199.80 628.857   3
  31  -8  -3 2189.04 902.613   1
 -31  23  -3 2287.81 822.623   4
 -31  23  -3 2150.81 898.352   2
 -23  31  -3 2484.28 901.842   4
 -23  31  -3 2161.35 769.748   2
  23   8  -3 3119.21 937.032   1
  -8 -23  -3 2429.37 486.951   3
  23   8   0 1321.55 668.370   2
 -31  23   0-260.309 509.858   3
 -31  23   0 155.888 634.014   4
  31  -8   0 540.764 562.862   1
 -31  23   0 835.525 593.808   2
 -23  31   0 820.441 631.869   4
  23   8   0 316.353 676.835   1
 -23  31   0 1046.92 621.848   2
  23   8   0 866.916 666.768   4
  23   8   3 2349.42 808.875   2
 -31  23   3 1825.76 818.470   4
 -23  31   3 4310.90 1017.75   4
  23   8   3 3179.91 722.721   1
 -23  31   3 2548.74 724.179   2
  31  -7  -4 1421.32 830.896   1
 -31  24  -4 2834.12 700.783   3
  24   7  -4 2392.57 625.412   2
 -31  24  -4 668.622 687.712   4
 -31  24  -4 550.291 761.410   2
 -24  31  -4 3227.35 962.919   4
 -24  31  -4 476.771 746.567   2
  24   7  -4 3634.01 1139.99   1
  -7 -24  -4 2266.76 581.518   3
  24   7  -1 3478.90 782.658   2
 -31  24  -1 3048.34 699.078   3
  31  -7  -1 2953.47 770.319   1
 -31  24  -1 2836.59 845.903   4
 -24  31  -1 3652.64 952.510   4
 -31  24  -1 1876.02 764.784   2
 -24  31  -1 3547.47 876.655   2
  24   7  -1 2656.07 832.236   1
  24   7   2 816.793 639.459   2
 -31  24   2 976.885 717.552   4
 -24  31   2 1020.76 700.259   4
 -31  24   2 861.929 454.358   2
  31  -7   2 1057.77 489.354   1
  24   7   2-219.522 536.047   1
 -24  31   2 1208.10 570.411   2
 -31  24   5 4282.74 1013.98   4
 -24  31   5 4114.54 1007.52   4
  31  -6  -5 68.9476 754.356   1
 -31  25  -5-793.980 582.006   3
 -31  25  -5 272.156 742.132   4
 -31  25  -5-186.072 829.379   2
 -25  31  -5 1014.80 754.275   4
 -25  31  -5 1613.77 840.898   2
  25   6  -5-794.587 766.482   1
  -6 -25  -5-320.524 517.623   3
  31  -6  -2 678.107 676.831   1
 -31  25  -2 26.3669 499.397   3
  25   6  -2 402.093 531.235   2
 -31  25  -2 757.780 684.279   4
 -25  31  -2-174.255 638.267   4
 -31  25  -2 1022.43 791.736   2
 -25  31  -2 331.884 763.787   2
  25   6  -2 1332.81 799.384   1
  25   6   1 1294.78 607.821   2
 -31  25   1 328.037 598.373   3
  31  -6   1 1562.91 586.034   1
 -31  25   1 2188.43 878.584   4
 -25  31   1 726.345 703.578   4
 -31  25   1 1371.40 628.374   2
 -25  31   1 3174.51 845.615   2
  25   6   1 1029.17 699.270   1
 -31  25   4 1177.45 814.202   4
 -25  31   4 1869.06 864.915   4
 -25  31   4 472.506 453.724   2
  31  -5  -3 623.002 752.195   1
 -31  26  -3 1084.60 538.378   3
  26   5  -3 748.292 536.987   2
 -26  31  -3 1951.98 590.168   3
 -31  26  -3 902.028 728.948   4
 -26  31  -3 2208.20 911.198   4
 -31  26  -3 884.628 801.462   2
 -26  31  -3 665.789 669.188   2
  26   5  -3 1008.97 792.515   1
  31  -5   0 535.523 562.701   1
 -31  26   0 520.987 648.812   3
  26   5   0 689.658 595.845   2
 -31  26   0 2065.58 914.193   4
 -26  31   0 1660.92 843.100   4
 -31  26   0-1006.87 683.723   2
 -26  31   0 2105.41 781.754   2
  26   5   0-146.564 618.051   1
 -31  26   3 2349.43 915.860   4
 -26  31   3 2134.00 890.433   4
 -26  31   3 3109.23 670.773   2
  31  -4  -4 2161.38 917.583   1
 -31  27  -4 3044.00 721.674   3
 -31  27  -4 1207.20 792.294   4
 -27  31  -4 1561.45 914.071   4
 -31  27  -4 764.962 941.587   2
 -27  31  -4 1392.00 803.257   2
  27   4  -4 2401.89 1023.76   1
  31  -4  -1-8.04969 576.888   1
 -31  27  -1 2001.24 682.197   3
  27   4  -1 2327.52 758.754   2
 -31  27  -1 2233.73 895.666   4
 -27  31  -1 3005.02 923.258   4
 -31  27  -1 2222.11 868.801   2
 -27  31  -1 2635.27 877.623   2
  27   4  -1 1767.35 818.105   1
 -31  27   2 737.316 735.621   4
 -27  31   2 485.350 735.152   4
 -31  27   2 897.878 558.703   2
 -27  31   2-45.2618 483.036   2
  27   4   2 233.006 491.908   1
 -31  28  -2 638.865 556.035   3
 -28  31  -2-339.641 527.947   3
 -31  28  -2-137.113 695.648   4
 -28  31  -2 705.763 786.115   4
 -31  28  -2-54.9816 656.641   2
 -28  31  -2-210.707 636.195   2
  28   3  -2 1129.75 782.914   1
  31  -3  -2 277.345 636.194   1
  31  -3   1 1192.62 562.954   1
 -31  28   1 2312.36 899.347   4
 -28  31   1 1017.32 840.478   4
 -31  28   1 406.060 546.132   2
 -28  31   1 790.641 570.423   2
  28   3   1 632.046 572.243   1
 -31  29  -3 2318.38 666.093   3
 -29  31  -3 836.711 572.596   3
 -31  29  -3 1149.99 883.789   4
 -29  31  -3 1648.69 851.880   4
 -31  29  -3 870.840 835.107   2
 -29  31  -3 883.187 787.162   2
  29   2  -3 2023.89 1048.79   1
  31  -2  -3 622.080 747.642   1
  31  -2   0 897.003 631.014   1
 -31  29   0 1392.42 859.746   4
 -29  31   0 85.7221 698.191   4
 -31  29   0 746.604 668.848   2
 -29  31   0 664.395 662.860   2
  29   2   0 639.201 605.067   1
 -31  29   3 1183.62 851.644   4
 -29  31   3 1324.34 835.913   4
 -29  31   3 2101.36 635.356   2
 -31  30  -1 4681.47 865.178   3
 -31  30  -1 2068.93 988.480   4
 -30  31  -1 2001.52 956.794   4
 -31  30  -1 2889.36 908.957   2
 -30  31  -1 4671.79 1068.81   2
  30   1  -1 1838.83 808.656   1
  31  -1  -1 1299.56 790.039   1
 -31  30   2 1036.49 857.539   4
 -30  31   2-44.2003 803.032   4
 -31  30   2 917.065 574.046   2
 -30  31   2 1314.94 617.431   2
 -31  31   1 154.165 576.567   2
 -29  -3  -2 2972.82 776.058   3
 -32   3  -2 4238.12 936.175   3
  -3  32  -2 3484.62 1004.43   4
   3  29  -2 3688.49 1050.25   4
  29 -32  -2 4554.66 941.405   1
  -3  32  -2 4315.22 990.681   2
   3  29  -2 3873.02 955.186   2
  32 -29  -2 2756.03 868.914   1
  32 -29   1-47.9354 529.417   1
 -29  -3   1 665.641 671.620   3
 -32   3   1 864.957 727.516   3
  -3  32   1 1566.34 915.473   4
   3  29   1 1035.09 783.016   4
  -3  32   1 1083.33 669.274   2
  29 -32   1 811.535 644.205   1
   3  29   1-1605.91 779.890   2
 -28  -4  -3 1498.68 675.392   3
 -32   4  -3 890.628 708.660   3
  28 -32  -3 899.437 668.777   1
  -4  32  -3 596.691 815.052   4
   4  28  -3 693.729 831.761   4
  -4  32  -3 554.261 583.519   2
   4  28  -3 1382.92 714.434   2
 -28  -4   0 169.606 523.085   3
 -32   4   0 377.928 547.696   3
  32 -28   0-3.65543 501.280   1
  -4  32   0 883.809 784.296   4
  28 -32   0 468.886 525.116   1
   4  28   0 424.093 715.194   4
  -4  32   0 587.960 624.946   2
   4  28   0 9.66153 565.337   2
  32 -28   3 1425.32 613.548   1
  -4  32   3 1110.52 784.509   4
   4  28   3 1538.62 886.190   4
  -4  32   3 551.742 632.183   2
   4  28   3 806.720 733.536   2
 -27  -5  -1 788.231 521.215   3
 -32   5  -1 546.374 558.085   3
  27 -32  -1 1215.33 658.191   1
  -5  32  -1 795.414 801.738   4
   5  27  -1 2385.85 916.263   4
  -5  32  -1 743.742 619.891   2
  32 -27  -1 227.768 539.184   1
   5  27  -1-454.912 588.834   2
 -27  -5   2 251.339 631.603   3
 -32   5   2-932.692 626.413   3
  32 -27   2-240.099 474.804   1
  27 -32   2-428.593 518.437   1
  -5  32   2-75.1421 729.538   4
   5  27   2-773.881 783.503   4
  -5  32   2 877.418 648.274   2
   5  27   2 39.3548 582.416   2
 -26  -6  -2 901.817 569.564   3
 -32   6  -2 1742.42 687.045   3
  -6  32  -2 818.399 726.784   4
  32 -26  -2 2356.23 782.065   1
   6  26  -2 3896.79 1007.35   4
  -6  32  -2 2574.46 805.364   2
   6  26  -2 2359.64 742.269   2
  26 -32  -2 2737.33 796.072   1
 -26  -6   1 1063.76 574.615   3
 -32   6   1 1115.41 656.123   3
  26 -32   1 1830.18 665.520   1
  32 -26   1 300.558 506.679   1
  -6  32   1 321.596 671.294   4
   6  26   1 688.642 700.896   4
  -6  32   1 775.984 599.103   2
   6  26   1 1018.56 689.827   2
   6  26   4 5461.44 1048.79   2
  -6  32   4 5889.05 1183.64   4
  32 -26   4 3778.26 718.801   1
   6  26   4 5023.49 1263.54   4
  -6  32   4 5461.17 1017.64   2
 -25  -7  -3 596.091 556.807   3
 -32   7  -3 349.907 600.356   3
  32 -25  -3 1443.98 711.176   1
  -7  32  -3 2436.34 886.064   4
   7  25  -3 782.869 775.557   4
  -7  32  -3 1307.83 671.936   2
  25 -32  -3 1179.54 659.417   1
   7  25  -3 1128.80 658.281   2
 -25  -7   0 2704.89 670.904   3
 -32   7   0 2941.74 795.927   3
  -7  32   0 4179.12 1066.56   4
   7  25   0 2979.65 941.265   4
  -7  32   0 4043.34 930.285   2
  25 -32   0 2197.94 730.023   1
  32 -25   0 3276.93 772.806   1
   7  25   0 4105.04 933.955   2
 -25  -7   3 767.498 640.846   3
 -32   7   3 1361.66 769.486   3
  -7  32   3 684.824 703.725   4
   7  25   3 380.771 724.519   4
  32 -25   3 526.518 473.228   1
  -7  32   3 217.784 522.445   2
   7  25   3 1232.32 742.735   2
 -24  -8  -4-274.661 522.630   3
 -32   8  -4 1610.99 671.797   3
  32 -24  -4 1309.67 723.624   1
  -8  32  -4 698.681 667.692   4
   8  24  -4 1146.85 821.147   4
  24 -32  -4 1315.71 721.160   1
  -8  32  -4 1153.05 638.395   2
   8  24  -4 696.001 602.080   2
 -24  -8  -1 637.896 519.484   3
 -32   8  -1 489.850 512.297   3
  -8  32  -1 1067.16 858.174   4
  32 -24  -1 587.530 555.419   1
  24 -32  -1 517.944 587.652   1
   8  24  -1 1200.23 801.443   4
  -8  32  -1 1237.79 609.862   2
   8  24  -1 1098.99 577.891   2
 -24  -8   2 748.816 614.701   3
  24 -32   2-1.85255 514.718   1
 -32   8   2 1559.45 772.411   3
  -8  32   2 69.3730 648.421   4
   8  24   2 669.929 651.208   4
  32 -24   2 478.712 486.459   1
  -8  32   2 743.872 564.536   2
   8  24   2 348.112 656.031   2
 -23  -9  -2 2845.42 677.104   3
 -32   9  -2 3586.11 775.967   3
  32 -23  -2 3876.37 835.523   1
  -9  32  -2 3498.06 993.260   4
  -9  32  -2 4671.36 968.204   2
   9  23  -2 5593.14 1099.82   4
  23 -32  -2 4792.22 905.135   1
   9  23  -2 4932.62 938.483   2
 -23  -9   1 2891.33 688.636   3
  23 -32   1 3548.18 760.047   1
 -32   9   1 2561.36 796.376   3
  -9  32   1 5032.27 1034.90   4
   9  23   1 4217.80 984.219   4
  -9  32   1 3041.95 784.098   2
  32 -23   1 2490.72 649.167   1
   9  23   1 2310.07 749.051   2
   9  23   4 2239.20 791.797   2
  -9  32   4 2634.63 913.435   4
   9  23   4 1417.73 819.547   4
  -9  32   4 1460.23 657.805   2
 -22 -10  -3 340.548 509.671   3
 -32  10  -3 185.049 521.859   3
  22 -32  -3 2225.69 739.045   1
 -10  32  -3 886.559 670.474   4
  10  22  -3 1522.58 757.299   4
 -10  32  -3 48.5738 599.443   2
  10  22  -3 898.337 515.943   2
  32 -22  -3 797.960 614.273   1
 -22 -10   0 4052.48 738.650   3
 -32  10   0 5699.03 977.620   3
  22 -32   0 5337.48 859.552   1
 -10  32   0 3668.77 944.684   4
  32 -22   0 3814.04 790.938   1
  10  22   0 4885.91 1023.85   4
 -10  32   0 4121.41 907.369   2
  10  22   0 4405.04 904.315   2
  10  22   3 1609.13 714.709   2
  32 -22   3 1082.29 456.282   1
 -22 -10   3 1623.40 630.749   3
 -32  10   3 1747.04 785.646   3
 -10  32   3 2749.96 956.971   4
  10  22   3 728.263 646.803   4
 -10  32   3 1575.90 610.452   2
  21 -32  -4 614.336 625.523   1
 -32  11  -4-272.293 506.147   3
 -11  32  -4 1035.95 782.331   4
  11  21  -4-493.977 664.537   4
 -11  32  -4 993.944 647.328   2
  32 -21  -4 1695.19 710.397   1
  11  21  -4 849.006 623.341   2
 -21 -11  -4-485.604 537.217   3
 -21 -11  -1 1282.93 541.949   3
 -32  11  -1-977.281 557.084   3
  32 -21  -1 1679.84 625.331   1
 -11  32  -1 53.0969 605.076   4
  11  21  -1 592.047 710.283   4
 -11  32  -1 1151.67 655.074   2
  11  21  -1 462.130 532.018   2
  21 -32  -1 1702.66 672.559   1
  11  21   2-79.1194 621.139   2
  32 -21   2 461.708 430.495   1
 -21 -11   2 1259.55 583.464   3
 -32  11   2 675.598 647.714   3
 -11  32   2 1146.43 756.078   4
  11  21   2 1312.26 774.288   4
 -11  32   2 1016.26 586.268   2
  11  21   5 932.350 774.450   2
 -11  32   5 524.406 703.941   4
  11  21   5 52.0040 660.364   4
 -11  32   5 7.20215 578.999   2
 -32  12  -5 2228.54 732.494   3
  12  20  -5 758.379 767.982   1
 -12  32  -5 547.948 655.736   4
 -12  32  -5 791.317 715.451   2
  12  20  -5 2084.97 796.112   4
  32 -20  -5 1456.87 816.613   1
  12  20  -5 970.952 584.266   2
  20 -32  -5-92.3085 569.188   1
 -20 -12  -5 124.304 546.756   3
 -32  12  -2 3465.41 758.110   3
 -12  32  -2 4067.66 1092.43   4
  12  20  -2 4198.51 956.262   4
 -12  32  -2 3500.19 858.046   2
  20 -32  -2 1979.06 694.377   1
  12  20  -2 4563.80 889.263   2
  32 -20  -2 2075.90 707.517   1
 -20 -12  -2 4335.11 719.487   3
 -20 -12   1-98.4745 445.310   3
 -32  12   1 276.414 544.201   3
 -12  32   1-516.492 664.869   4
  20 -32   1 1166.77 647.258   1
  32 -20   1-242.535 489.350   1
  12  20   1 389.720 738.852   4
 -12  32   1 576.234 557.494   2
  12  20   1 889.449 646.854   2
  12  20   4 4621.49 1047.22   2
 -12  32   4 3938.82 1001.28   4
  12  20   4 2119.60 833.887   4
 -12  32   4 2421.98 743.034   2
 -19 -13  -3 1017.68 512.145   3
 -32  13  -3 726.858 571.727   3
 -13  32  -3 2005.30 821.997   4
  19 -32  -3 447.027 610.499   1
  13  19  -3 1398.46 713.842   4
 -13  32  -3 34.5857 592.685   2
  32 -19  -3 819.509 591.360   1
  13  19  -3 907.317 578.149   2
 -19 -13   0 8160.11 851.265   3
 -32  13   0 7837.66 1098.43   3
 -13  32   0 7349.79 1182.34   4
  13  19   0 7919.00 1230.16   4
 -13  32   0 9610.38 1187.85   2
  32 -19   0 8148.85 1024.45   1
  13  19   0 9466.10 1198.66   2
  19 -32   0 9629.54 1106.42   1
  13  19   3 263.103 584.798   2
 -19 -13   3-165.902 495.840   3
 -32  13   3-497.880 695.788   3
 -13  32   3 733.642 748.928   4
  32 -19   3 70.7161 378.562   1
  13  19   3 502.198 675.083   4
 -13  32   3-21.9781 461.075   2
 -32  14  -4-479.286 616.808   3
  14  18  -4 1182.36 897.116   1
 -14  32  -4 265.693 702.928   4
  18 -32  -4 327.727 612.971   1
 -14  32  -4 732.931 698.767   2
  14  18  -4 316.662 572.257   4
  32 -18  -4 466.920 603.034   1
  14  18  -4 615.535 524.798   2
 -18 -14  -4 948.209 525.316   3
 -18 -14  -1 671.882 432.231   3
 -32  14  -1 1225.72 665.162   3
 -14  32  -1 454.589 705.597   4
  14  18  -1 754.224 677.452   4
 -14  32  -1-177.624 581.650   2
  18 -32  -1 1251.85 604.244   1
  32 -18  -1 1571.87 602.824   1
  14  18  -1 420.481 527.667   2
  14  18   2 1197.94 674.516   2
 -18 -14   2 577.618 529.067   3
 -32  14   2 1713.87 719.467   3
 -14  32   2-326.926 637.889   4
  14  18   2 389.031 657.873   4
  32 -18   2 1420.07 490.464   1
 -14  32   2 740.939 519.774   2
  14  18   5 493.589 651.254   2
 -14  32   5 328.495 680.199   4
  14  18   5 1175.89 785.561   4
 -14  32   5 951.045 660.504   2
 -32  15  -5 1710.42 725.415   3
 -15  32  -5-156.020 591.082   4
  15  17  -5 1617.78 971.008   1
  17 -32  -5 1738.50 708.359   1
 -15  32  -5 504.060 687.843   2
  32 -17  -5 427.989 760.673   1
  15  17  -5-236.768 629.072   4
  15  17  -5 290.899 506.447   2
 -17 -15  -5 188.985 519.420   3
 -17 -15  -2 1015.77 506.462   3
 -32  15  -2 187.318 478.936   3
  17 -32  -2 750.574 601.320   1
 -15  32  -2 86.9808 574.211   4
 -15  32  -2 1191.03 697.360   2
  15  17  -2 362.183 601.322   4
  32 -17  -2 1279.76 628.784   1
  15  17  -2 736.338 481.696   2
  15  17   1 1216.69 638.051   2
 -17 -15   1 104.416 410.497   3
  32 -17   1 204.593 467.958   1
 -32  15   1 865.603 585.524   3
 -15  32   1 736.562 682.888   4
  15  17   1-26.8907 614.700   4
 -15  32   1 688.900 590.844   2
 -15  32   4-276.798 655.358   4
  15  17   4-273.338 673.546   4
 -15  32   4 723.877 528.914   2
 -32  16  -3 682.050 569.043   3
  16 -32  -3-20.9075 543.424   1
  16  16  -3 637.971 834.745   1
 -16  32  -3-446.453 655.203   4
 -16  32  -3 17.1398 660.181   2
  32 -16  -3 296.422 653.223   1
  16  16  -3 2188.70 763.773   4
  16  16  -3 103.400 453.318   2
 -16 -16  -3 486.542 452.054   3
 -16 -16   0 8206.12 827.976   3
 -32  16   0 9717.71 1158.79   3
 -16  32   0 11156.0 1398.66   4
  32 -16   0 9620.14 1032.19   1
 -16  32   0 10783.7 1282.07   2
  16  16   0 9611.01 1355.57   4
  16  16   0 10275.8 1213.84   2
  16  16   3 962.283 656.369   2
 -32  16   3 1026.16 685.923   3
 -16  32   3 98.7261 648.440   4
  16  16   3 1617.66 764.474   4
 -16  32   3 981.651 576.715   2
  32 -16   3 57.3810 334.859   1
 -32  17  -4 703.738 587.020   3
 -17  32  -4 926.106 673.898   4
  17  15  -4 1672.95 872.827   1
  32 -15  -4 1707.72 727.355   1
 -17  32  -4 1972.61 729.190   2
  17  15  -4 340.843 537.321   4
  15 -32  -4 826.994 712.847   3
  17  15  -4 1411.39 646.655   2
 -15 -17  -4 354.317 454.058   3
  15 -32  -4 951.790 619.561   1
  17  15  -1 1239.72 588.263   2
 -15 -17  -1 850.034 419.257   3
 -32  17  -1 67.5954 498.133   3
  17  15  -1 109.634 637.938   1
 -17  32  -1 957.682 746.581   4
 -17  32  -1 390.203 573.084   2
  17  15  -1 87.5240 570.563   4
  32 -15  -1 905.215 611.409   1
  15 -32  -1 997.059 585.643   1
  17  15   2 876.220 659.821   2
 -15 -17   2 969.878 472.957   3
 -32  17   2 699.772 642.117   3
  32 -15   2 18.9357 385.254   1
 -32  17   2-23.9851 450.239   2
 -17  32   2 1788.85 772.223   4
  17  15   2 2741.24 894.086   4
 -17  32   2 1104.21 534.323   2
  17  15   5 1975.61 813.433   2
 -32  17   5 657.776 646.733   4
 -17  32   5 311.811 656.602   4
  17  15   5 502.324 781.813   4
 -17  32   5 557.910 541.919   2
 -32  18  -5 442.007 555.793   3
 -18  32  -5 1038.79 739.387   4
  32 -14  -5 50.4176 695.793   1
  18  14  -5 759.425 836.032   1
 -18  32  -5 619.795 672.379   2
  18  14  -5 856.082 583.464   4
  14 -32  -5 1056.54 651.744   3
 -14 -18  -5 433.378 537.094   3
  14 -32  -5 344.551 591.500   1
  18  14  -5 679.431 531.900   2
 -14 -18  -2-121.026 394.349   3
  18  14  -2 826.078 569.380   2
 -32  18  -2 7.70348 501.261   3
 -18  32  -2-159.936 607.781   4
  18  14  -2 1875.13 820.641   1
  32 -14  -2-21.6454 599.568   1
 -18  32  -2 550.254 589.784   2
  18  14  -2 362.176 592.297   4
  14 -32  -2 1124.22 620.773   1
  18  14   1 1131.20 651.328   2
 -14 -18   1 699.101 403.972   3
 -32  18   1 768.518 592.017   3
 -32  18   1-178.294 532.446   2
  18  14   1 1081.93 702.542   1
 -18  32   1 2268.03 848.353   4
  18  14   1-363.330 597.318   4
 -18  32   1 195.149 530.116   2
  32 -14   1-453.163 482.246   1
  18  14   4-13.2628 597.098   2
 -32  18   4 554.698 636.424   4
 -18  32   4 694.865 644.075   4
  18  14   4 458.078 644.243   4
 -18  32   4 1407.85 575.384   2
  19  13  -3-358.407 520.601   2
 -32  19  -3 1060.12 579.279   3
  13 -32  -3 214.119 612.963   1
 -19  32  -3 1311.15 795.207   4
  32 -13  -3-568.160 644.475   1
  19  13  -3 132.875 689.475   1
 -19  32  -3 685.110 639.447   2
  19  13  -3 390.511 664.609   4
 -13 -19  -3 196.889 412.584   3
 -13 -19   0 7662.44 746.894   3
 -32  19   0 8632.87 1077.61   3
  32 -13   0 5895.18 823.383   1
 -32  19   0 5959.33 951.325   2
  19  13   0 8975.54 1226.51   1
 -19  32   0 7676.63 1212.45   4
 -19  32   0 8263.06 1118.30   2
  19  13   0 6686.00 1131.29   4
  19  13   0 9586.02 1181.40   2
  19  13   3 1733.30 729.136   2
 -32  19   3 1691.27 805.249   4
  19  13   3 830.987 526.148   1
 -19  32   3 766.426 711.162   4
  19  13   3 736.563 682.356   4
 -19  32   3 575.505 559.078   2
  20  12  -4 2633.12 664.803   2
  12 -32  -4 4382.50 881.317   1
 -32  20  -4 1850.93 671.100   3
  32 -12  -4 2005.32 811.455   1
 -20  32  -4 3512.88 945.244   4
  20  12  -4 3342.81 1017.89   1
 -20  32  -4 3359.93 956.201   2
  20  12  -4 2616.31 752.949   4
  12 -32  -4 2627.86 706.688   3
 -12 -20  -4 1845.60 537.409   3
 -12 -20  -1 1046.00 421.016   3
  20  12  -1 1253.23 647.719   2
 -32  20  -1 560.581 528.192   3
 -32  20  -1 873.564 631.723   2
 -20  32  -1 744.135 806.060   4
  20  12  -1 1018.71 723.754   1
  32 -12  -1 848.934 574.329   1
 -20  32  -1 176.120 649.784   2
  20  12  -1-42.8596 646.932   4
  20  12   2 3058.42 807.957   2
 -32  20   2 3847.45 864.178   3
 -32  20   2 1508.51 752.375   4
 -32  20   2 3186.34 686.299   2
 -20  32   2 1201.93 766.594   4
  20  12   2 2473.12 719.609   1
  20  12   2 2761.53 869.538   4
 -20  32   2 2982.39 757.290   2
  32 -12   2 1749.08 509.973   1
  20  12   5 904.455 755.907   2
 -32  20   5 1959.14 818.000   4
 -20  32   5 3017.39 882.801   4
  20  12   5 1100.45 878.557   4
 -20  32   5 1393.49 599.872   2
  21  11  -5 27.8560 504.321   2
 -32  21  -5 81.9190 492.299   3
  32 -11  -5-722.741 744.100   1
 -21  32  -5 358.688 635.197   4
 -21  32  -5 1645.19 854.961   2
  21  11  -5 1543.03 909.736   1
  11 -32  -5 1319.61 740.766   3
 -11 -21  -5 215.355 542.908   3
  11 -32  -5 330.813 536.037   1
 -11 -21  -2 629.486 371.295   3
  21  11  -2 702.998 546.000   2
 -32  21  -2 416.736 511.507   3
 -32  21  -2 1013.97 708.452   2
 -21  32  -2 1710.11 790.324   4
  21  11  -2 830.769 714.880   1
 -21  32  -2 1735.18 776.248   2
  21  11  -2-53.9104 596.853   4
  32 -11  -2 1974.48 1383.68   1
  21  11   1 1564.48 721.836   2
 -32  21   1 1343.87 639.362   3
 -32  21   1 1757.88 760.491   4
 -32  21   1 19.8447 494.244   2
 -21  32   1 1612.61 831.879   4
  21  11   1 1885.31 791.535   1
 -21  32   1 2040.48 711.623   2
  21  11   1 388.926 631.974   4
  32 -11   1 1302.21 515.917   1
  21  11   4 668.540 732.708   2
 -32  21   4-49.0146 599.458   4
 -21  32   4 837.809 693.984   4
  21  11   4 610.153 672.056   4
 -21  32   4-278.296 445.386   2
  22  10  -3 1802.95 666.124   2
 -32  22  -3 2925.91 678.500   3
  32 -10  -3 779.648 762.102   1
 -32  22  -3 724.215 687.124   2
 -22  32  -3 1360.13 755.310   4
 -22  32  -3 2724.14 911.113   2
  22  10  -3 1429.27 834.261   1
  22  10  -3 2675.60 786.103   4
 -10 -22  -3 1198.66 435.078   3
  22  10   0 3088.30 805.110   2
 -32  22   0 3548.25 781.956   3
 -32  22   0 3487.67 942.719   4
 -22  32   0 4995.90 1109.31   4
 -32  22   0 2803.12 793.956   2
  32 -10   0 3404.54 742.015   1
 -22  32   0 4848.40 981.180   2
  22  10   0 4221.95 936.417   1
  22  10   0 4538.28 1020.90   4
  22  10   3 2731.76 840.096   2
 -32  22   3 1517.60 781.269   4
 -22  32   3 1042.19 677.290   4
  22  10   3 437.013 518.661   1
  22  10   3 953.869 706.735   4
 -22  32   3 1203.48 571.865   2
 -32  23  -4 2019.46 620.949   3
  23   9  -4 2492.26 676.871   2
  32  -9  -4 2895.24 950.210   1
 -32  23  -4 2200.22 912.183   4
 -32  23  -4 176.553 712.822   2
 -23  32  -4 4302.43 1023.71   4
 -23  32  -4 1280.65 767.470   2
  23   9  -4 2901.42 1025.80   1
  -9 -23  -4 2499.40 613.004   3
  23   9  -1 1371.01 660.303   2
 -32  23  -1 2347.09 746.956   3
 -32  23  -1 1349.23 791.328   4
  32  -9  -1 2195.01 774.914   1
 -32  23  -1 1313.94 727.512   2
 -23  32  -1 3089.33 914.362   4
 -23  32  -1 2930.07 843.092   2
  23   9  -1 3920.12 980.070   1
  23   9  -1 2523.19 895.288   4
  23   9   2 4625.09 946.194   2
 -32  23   2 2101.56 823.441   4
 -23  32   2 2604.95 970.301   4
 -32  23   2 2322.54 664.523   2
  23   9   2 3371.83 812.931   1
  23   9   2 4036.85 1012.52   4
 -23  32   2 3397.94 771.357   2
  32  -9   2 1522.40 493.512   1
  24   8  -2 316.971 544.151   2
 -32  24  -2 887.349 554.919   3
  32  -8  -2-105.596 591.442   1
 -32  24  -2 454.411 696.237   4
 -32  24  -2 617.126 734.661   2
 -24  32  -2 625.762 659.609   4
 -24  32  -2 610.726 684.380   2
  24   8  -2 209.336 741.914   1
  24   8   1 391.632 597.149   2
 -32  24   1 897.843 636.782   3
 -32  24   1-230.529 706.650   4
 -24  32   1 1037.70 749.160   4
 -32  24   1 410.854 539.043   2
  32  -8   1 577.274 439.158   1
  24   8   1 640.424 666.553   1
 -24  32   1 1319.79 643.812   2
 -32  24   4 1668.09 849.884   4
 -24  32   4 1016.25 811.959   4
 -24  32   4 761.724 543.670   2
  32  -7  -3 587.532 712.429   1
 -32  25  -3 953.805 588.062   3
  25   7  -3 1657.82 675.838   2
 -32  25  -3 950.727 784.591   4
 -32  25  -3 1932.91 871.051   2
 -25  32  -3 1374.28 816.337   4
 -25  32  -3 625.561 728.721   2
  25   7  -3 1448.44 940.413   1
  25   7   0 2491.98 784.265   2
 -32  25   0 2337.46 722.778   3
  32  -7   0 2478.02 740.177   1
 -32  25   0 1380.18 820.423   4
 -25  32   0 2327.48 838.241   4
 -32  25   0 2035.79 732.949   2
 -25  32   0 1979.93 757.724   2
  25   7   0 2312.82 878.766   1
 -32  25   3 182.105 702.035   4
 -25  32   3 605.325 528.560   2
 -32  26  -4 4337.62 819.519   3
  26   6  -4 4382.27 794.468   2
 -32  26  -4 3586.96 1052.52   4
 -32  26  -4 3765.12 1100.90   2
 -26  32  -4 5246.49 1167.79   4
 -26  32  -4 4626.70 1131.66   2
  32  -6  -1 395.160 598.476   1
 -32  26  -1 794.361 588.915   3
  26   6  -1 391.722 553.442   2
 -32  26  -1-231.726 688.275   4
 -26  32  -1 424.430 688.511   4
 -32  26  -1 277.461 645.991   2
 -26  32  -1-275.272 592.408   2
  26   6  -1 12.0862 680.730   1
 -32  26   2 295.430 682.690   4
 -26  32   2 2711.50 986.830   4
 -32  26   2 1373.17 546.615   2
 -26  32   2 2199.37 696.577   2
  26   6   2 1766.63 680.074   1
  32  -5  -2 406.658 685.709   1
 -32  27  -2-168.555 522.271   3
  27   5  -2 453.780 536.561   2
 -32  27  -2 474.192 801.547   4
 -27  32  -2 2454.32 879.235   4
 -32  27  -2 643.638 747.145   2
 -27  32  -2 190.320 709.355   2
  27   5  -2 1.31231 651.364   1
  32  -5   1 271.521 528.320   1
 -32  27   1 869.201 764.950   4
 -27  32   1 1177.81 801.704   4
 -32  27   1 477.863 517.372   2
 -27  32   1 991.935 716.427   2
  27   5   1-78.8102 578.891   1
 -32  28  -3 613.620 549.405   3
 -32  28  -3 340.044 721.500   4
 -32  28  -3 489.391 779.852   2
 -28  32  -3 1715.67 840.656   2
  32  -4   0 424.222 630.948   1
 -32  28   0 115.072 548.499   3
 -32  28   0-86.7476 693.919   4
 -28  32   0 850.941 756.348   4
 -32  28   0 97.6169 653.250   2
 -28  32   0 48.6941 608.270   2
  28   4   0 1293.92 833.219   1
 -28  32   3 843.318 535.301   2
  32  -3  -1-409.744 638.965   1
 -32  29  -1 402.923 592.610   3
 -32  29  -1-217.624 760.898   4
 -29  32  -1 261.285 756.489   4
 -32  29  -1-53.9781 621.188   2
 -29  32  -1-582.569 720.227   2
  29   3  -1 809.163 705.031   1
 -32  29   2 2425.16 1005.88   4
 -29  32   2 4009.12 1083.00   4
 -29  32   2 4364.20 883.638   2
 -32  29   2 2350.12 690.177   2
 -28  -5   1 3090.11 801.523   3
 -33   5   1 3098.26 842.092   3
  28 -33   1 2816.09 812.105   1
  -5  33   1 2966.46 1021.86   4
   5  28   1 2617.65 948.589   4
  -5  33   1 1920.59 750.362   2
  33 -28   1 2782.02 718.359   1
   5  28   1 1591.34 815.231   2
  33 -27   0 560.728 526.705   1
 -27  -6   0 906.215 563.201   3
 -33   6   0 564.873 668.993   3
  -6  33   0 1334.59 772.842   4
   6  27   0 2069.69 908.680   4
  -6  33   0 828.495 696.880   2
  27 -33   0 978.987 626.284   1
   6  27   0 1168.82 615.351   2
 -26  -7  -1 404.147 535.636   3
 -33   7  -1 1007.94 647.219   3
  -7  33  -1-414.548 637.340   4
  26 -33  -1 266.751 563.608   1
   7  26  -1 2540.00 960.785   4
  33 -26  -1 106.432 512.246   1
  -7  33  -1 40.9149 583.444   2
   7  26  -1 942.636 643.805   2
  33 -26   2 385.093 507.147   1
 -26  -7   2 560.613 636.552   3
 -33   7   2 863.382 638.905   3
  -7  33   2 166.294 710.209   4
  26 -33   2 761.371 549.285   1
   7  26   2 1078.15 748.499   4
  -7  33   2 161.764 599.381   2
   7  26   2 1586.77 747.582   2
 -25  -8  -2 565.927 534.178   3
 -33   8  -2 278.915 549.373   3
  25 -33  -2 135.859 533.058   1
  33 -25  -2 548.648 616.986   1
  -8  33  -2-403.313 725.982   4
   8  25  -2 2210.88 923.759   4
  -8  33  -2 326.495 594.773   2
   8  25  -2 1342.07 751.921   2
 -25  -8   1 3265.00 806.877   3
  33 -25   1 2652.56 652.366   1
 -33   8   1 3323.26 875.884   3
  -8  33   1 3196.82 1033.36   4
   8  25   1 3703.87 971.893   4
  -8  33   1 2120.87 800.601   2
  25 -33   1 3656.62 826.205   1
   8  25   1 4457.39 907.077   2
 -24  -9  -3 2802.62 709.602   3
  24 -33  -3 4450.56 909.915   1
  33 -24  -3 2351.47 856.302   1
  -9  33  -3 3357.07 976.281   4
   9  24  -3 2348.00 873.542   4
  -9  33  -3 3414.57 952.213   2
   9  24  -3 3161.99 835.747   2
 -33   9  -3 6474.81 969.260   3
 -24  -9   0 856.608 532.262   3
 -33   9   0 2121.05 719.083   3
  24 -33   0 1384.55 566.971   1
  -9  33   0 2682.31 896.669   4
   9  24   0 2512.55 869.593   4
  33 -24   0 1093.10 546.784   1
  -9  33   0 1409.48 692.842   2
   9  24   0 2174.45 775.219   2
   9  24   3 4865.12 1068.60   2
 -24  -9   3 5417.89 1004.17   3
 -33   9   3 3654.70 961.227   3
  -9  33   3 3825.41 1026.18   4
   9  24   3 4471.14 1178.11   4
  33 -24   3 3753.23 689.220   1
  -9  33   3 4148.52 913.962   2
 -23 -10  -4 663.231 535.790   3
 -33  10  -4 757.973 556.522   3
 -10  33  -4 1303.23 770.543   4
  10  23  -4-672.469 672.144   4
 -10  33  -4 669.140 679.436   2
  10  23  -4-121.850 584.351   2
  23 -33  -4-549.504 634.998   1
  33 -23  -4 846.756 686.063   1
 -23 -10  -1 141.023 468.170   3
 -33  10  -1 649.247 634.909   3
  33 -23  -1 234.575 510.112   1
 -10  33  -1-158.598 650.135   4
  10  23  -1-37.3699 623.182   4
 -10  33  -1 546.715 591.112   2
  23 -33  -1 546.863 628.016   1
  10  23  -1-312.257 584.633   2
  10  23   2 942.247 662.735   2
 -23 -10   2 658.970 548.164   3
 -33  10   2 2201.89 894.470   3
  33 -23   2 394.813 429.673   1
 -10  33   2 1597.41 844.925   4
  10  23   2 306.096 679.320   4
 -10  33   2 1552.62 691.494   2
 -22 -11  -2 1055.59 527.183   3
 -33  11  -2 1900.70 712.240   3
 -11  33  -2 359.029 716.475   4
  11  22  -2 866.958 738.727   4
  22 -33  -2 1677.69 760.871   1
 -11  33  -2 322.731 577.227   2
  11  22  -2 1236.90 633.859   2
 -22 -11   1 2607.54 684.239   3
 -33  11   1 2043.30 744.531   3
  22 -33   1 3487.07 746.644   1
 -11  33   1 2698.20 843.911   4
  11  22   1 2601.07 822.600   4
 -11  33   1 2224.81 726.846   2
  33 -22   1 2165.26 608.199   1
  11  22   1 3151.69 855.717   2
  11  22   4 833.832 779.408   2
 -11  33   4-145.053 688.423   4
  11  22   4 236.164 723.367   4
 -11  33   4 315.615 603.500   2
 -33  12  -3 8423.66 1084.64   3
 -12  33  -3 6351.79 1155.75   4
  33 -21  -3 6433.57 1074.25   1
 -12  33  -3 9439.23 1270.43   2
  12  21  -3 8664.12 1337.67   4
  12  21  -3 7487.73 1080.77   2
  21 -33  -3 6965.17 1077.86   1
 -21 -12  -3 5467.86 848.513   3
  21 -33   0 1733.05 614.592   1
 -21 -12   0 3043.27 645.367   3
 -33  12   0 1042.82 669.918   3
  33 -21   0 1157.16 570.911   1
 -12  33   0 1542.71 811.120   4
  12  21   0 2262.58 846.575   4
 -12  33   0 1757.08 714.893   2
  12  21   0 2203.54 730.756   2
  12  21   3 4560.97 1034.19   2
 -21 -12   3 3120.07 764.696   3
 -33  12   3 4396.26 998.842   3
 -12  33   3 4685.19 1078.48   4
  12  21   3 3835.18 1049.83   4
 -12  33   3 4586.97 918.149   2
  33 -21   3 3380.13 636.443   1
 -33  13  -4 505.862 591.845   3
  20 -33  -4 368.694 609.512   1
 -13  33  -4 338.219 644.368   4
  13  20  -4 49.9382 593.969   4
 -13  33  -4 539.892 686.808   2
  33 -20  -4-448.343 604.402   1
  13  20  -4 1502.83 656.326   2
 -20 -13  -4 1127.75 569.224   3
  33 -20  -1 440.847 566.124   1
 -20 -13  -1 856.720 510.512   3
 -33  13  -1 1290.25 674.064   3
 -13  33  -1 2022.58 815.545   4
  20 -33  -1 982.911 592.939   1
  13  20  -1 1025.51 680.471   4
 -13  33  -1 676.790 575.494   2
  13  20  -1 649.799 595.243   2
  13  20   2 821.254 734.581   2
 -20 -13   2 942.250 521.025   3
 -33  13   2 794.666 625.496   3
 -13  33   2 163.730 646.426   4
  13  20   2 1200.17 808.439   4
 -13  33   2 2670.49 776.228   2
  33 -20   2 1870.75 561.457   1
 -19 -14  -2 1161.21 519.142   3
  19 -33  -2 1000.29 627.779   1
 -33  14  -2 996.689 595.441   3
 -14  33  -2 1375.45 748.402   4
  14  19  -2 812.759 665.739   4
 -14  33  -2 1349.10 695.936   2
  33 -19  -2 463.531 571.894   1
  14  19  -2 585.485 521.653   2
 -19 -14   1 942.471 526.381   3
 -33  14   1 1285.42 680.455   3
  33 -19   1 324.780 428.091   1
 -14  33   1 1843.30 812.566   4
  14  19   1 1542.80 766.903   4
 -14  33   1 2642.99 785.580   2
  14  19   4 1156.46 736.778   2
 -14  33   4 1978.95 804.112   4
  14  19   4 1166.35 769.167   4
 -14  33   4 3000.10 761.615   2
 -18 -15  -3 4046.09 689.906   3
 -33  15  -3 3236.46 819.534   3
  18 -33  -3 5544.96 943.607   1
  15  18  -3 7111.35 1334.11   1
 -15  33  -3 5570.10 1129.52   4
 -15  33  -3 5472.20 1079.71   2
  15  18  -3 6607.81 1156.77   4
  33 -18  -3 4252.21 949.240   1
  15  18  -3 5706.35 958.453   2
  15  18   0 2966.95 785.977   2
  33 -18   0 1821.12 606.320   1
 -18 -15   0 1972.49 558.922   3
 -33  15   0 1097.39 560.802   3
  18 -33   0 1908.07 666.557   1
 -15  33   0 3075.87 948.221   4
  15  18   0 1363.31 811.923   4
 -15  33   0 1083.92 652.572   2
  15  18   3 3945.77 942.337   2
 -33  15   3 4613.81 943.387   3
 -15  33   3 3803.42 1006.22   4
  15  18   3 4093.45 1035.16   4
 -15  33   3 4438.34 878.480   2
 -33  16  -4 1161.84 656.923   3
  16  17  -4 779.264 893.359   1
 -16  33  -4 3604.68 936.870   4
 -16  33  -4 1523.00 818.589   2
  33 -17  -4 472.995 654.894   1
  16  17  -4 574.549 688.623   4
  17 -33  -4 1470.74 682.986   1
  16  17  -4 193.472 514.782   2
 -17 -16  -4 923.207 547.454   3
  16  17  -1 454.272 493.757   2
 -17 -16  -1-120.990 421.179   3
 -33  16  -1 481.544 536.895   3
 -16  33  -1 731.633 661.696   4
  16  17  -1 1881.20 829.301   4
 -16  33  -1-346.625 535.983   2
  33 -17  -1 802.555 572.227   1
  17 -33  -1-614.281 531.260   1
  16  17   2 324.687 608.205   2
 -17 -16   2 1124.29 486.092   3
 -33  16   2 891.281 649.817   3
 -33  16   2 989.134 536.929   2
 -16  33   2 521.982 673.982   4
  33 -17   2 679.076 463.396   1
  16  17   2 2191.40 879.404   4
 -16  33   2 493.878 559.961   2
  17  16  -2 1339.10 576.197   2
 -16 -17  -2 755.434 466.802   3
 -33  17  -2 1243.39 566.989   3
  16 -33  -2 1081.55 638.748   1
  17  16  -2 603.540 686.509   1
 -17  33  -2 1523.45 731.239   4
 -17  33  -2 1632.16 786.179   2
  17  16  -2 1205.87 728.864   4
  33 -16  -2 2435.91 726.970   1
  33 -16   1 539.666 460.043   1
  17  16   1-561.852 551.805   2
 -16 -17   1 643.175 463.107   3
 -33  17   1-99.1371 610.283   3
 -17  33   1-38.0068 653.431   4
  17  16   1-1300.72 761.607   4
 -17  33   1 144.113 528.914   2
  17  16   4 1550.66 769.310   2
 -17  33   4 1933.49 867.948   4
  17  16   4 1636.33 749.151   4
 -17  33   4 766.460 539.280   2
  18  15  -3 4543.67 863.099   2
 -33  18  -3 2910.60 736.948   3
 -18  33  -3 2582.75 850.216   4
  18  15  -3 2717.04 1060.36   1
  33 -15  -3 4208.76 943.113   1
 -18  33  -3 3578.77 963.109   2
  18  15  -3 3168.04 864.520   4
  15 -33  -3 3254.52 794.513   1
 -15 -18  -3 3486.85 640.945   3
  18  15   0 2298.04 713.371   2
 -15 -18   0 999.770 418.238   3
 -33  18   0 2360.27 730.177   3
  18  15   0 880.791 712.222   1
 -18  33   0 1139.29 799.509   4
  18  15   0 1967.57 822.223   4
 -18  33   0 1417.96 656.614   2
  33 -15   0 968.069 474.207   1
 -18  33   3 5389.87 1071.67   4
  18  15   3 6729.48 1223.55   4
 -18  33   3 6617.08 983.305   2
  18  15   3 6313.84 1127.92   2
  19  14  -4 2105.57 652.839   2
 -33  19  -4 1512.87 669.004   3
 -19  33  -4 976.288 707.708   4
  33 -14  -4 1437.33 843.702   1
  19  14  -4 1319.34 905.725   1
 -19  33  -4 1352.23 790.392   2
  19  14  -4 1465.77 764.706   4
  14 -33  -4 1955.60 774.227   1
 -14 -19  -4 750.211 503.411   3
 -14 -19  -1 888.000 403.112   3
  19  14  -1 725.950 508.636   2
 -33  19  -1 2269.54 716.918   3
 -19  33  -1 3255.99 952.331   4
  19  14  -1 2596.97 844.573   1
 -19  33  -1 1113.42 713.000   2
  33 -14  -1 1262.48 608.092   1
  19  14  -1 4158.60 968.816   4
  19  14   2-35.9406 607.376   2
  33 -14   2 1011.23 468.864   1
 -33  19   2 1216.09 660.089   3
 -33  19   2 455.306 501.985   2
  19  14   2-162.669 591.178   1
 -19  33   2-144.768 647.804   4
  19  14   2 877.025 693.858   4
 -19  33   2 424.235 553.852   2
 -13 -20  -2 651.995 375.525   3
  20  13  -2 319.860 579.518   2
 -33  20  -2 1399.06 657.619   3
 -20  33  -2 1963.48 828.479   4
  20  13  -2 587.307 731.112   1
  33 -13  -2 1037.17 664.235   1
 -20  33  -2-206.264 627.619   2
  20  13  -2 2095.83 742.309   4
  20  13   1 315.826 643.598   2
 -33  20   1 419.320 552.604   3
 -33  20   1-87.8057 531.420   2
 -20  33   1 852.519 811.523   4
  20  13   1 695.350 695.162   1
  20  13   1 437.634 633.399   4
 -20  33   1-706.825 572.927   2
  33 -13   1 870.403 478.121   1
  20  13   4 899.362 732.995   2
 -20  33   4-9.27028 655.680   4
  20  13   4-548.089 710.064   4
 -20  33   4 956.172 533.471   2
  21  12  -3 4472.42 836.144   2
 -33  21  -3 2371.60 680.343   3
  12 -33  -3 5861.70 983.709   1
 -21  33  -3 3859.69 1062.87   4
  33 -12  -3 3196.59 895.535   1
  21  12  -3 5193.69 1149.72   1
 -21  33  -3 3598.72 987.608   2
  21  12  -3 3760.97 927.645   4
 -12 -21  -3 2657.19 577.097   3
  21  12   0 2206.63 767.524   2
 -33  21   0 3310.43 779.786   3
 -33  21   0 2442.90 733.882   2
 -21  33   0 948.599 742.789   4
  21  12   0 1645.26 796.912   1
  33 -12   0-327.741 530.179   1
 -21  33   0 137.855 622.033   2
  21  12   0 1975.87 830.334   4
  21  12   3 6456.83 1220.36   2
  21  12   3 6615.11 1031.41   1
 -33  21   3 5065.31 1070.12   4
 -21  33   3 7432.14 1230.02   4
 -21  33   3 7198.98 1011.92   2
  21  12   3 8536.75 1292.33   4
  22  11  -4 850.924 560.033   2
 -33  22  -4-339.746 509.727   3
  11 -33  -4 2297.43 800.146   1
 -33  22  -4 195.812 745.148   2
  33 -11  -4 353.697 749.003   1
 -22  33  -4-332.685 675.413   4
 -22  33  -4 419.401 830.250   2
  22  11  -4 1019.35 874.320   1
  22  11  -4 2319.30 786.648   4
 -11 -22  -4 917.578 524.899   3
  22  11  -1 1937.52 775.072   2
 -33  22  -1 2277.68 673.905   3
 -33  22  -1 1174.46 824.215   4
 -33  22  -1 1682.78 797.112   2
 -22  33  -1 2141.94 882.596   4
  33 -11  -1 1986.92 749.149   1
  22  11  -1 3112.74 948.057   1
 -22  33  -1 2289.61 800.402   2
  22  11  -1 3563.96 919.879   4
  22  11   2 2846.07 884.415   2
 -33  22   2 2515.30 807.106   3
 -33  22   2 894.238 774.506   4
 -22  33   2 1512.25 839.652   4
 -33  22   2 1065.10 586.580   2
  22  11   2 204.816 618.410   1
  22  11   2 834.004 703.318   4
 -22  33   2 1233.37 734.195   2
  23  10  -2 1142.77 625.057   2
 -33  23  -2 1291.43 580.444   3
 -33  23  -2 276.954 702.107   4
 -33  23  -2 272.153 682.548   2
  33 -10  -2 740.620 659.160   1
 -23  33  -2 485.242 690.159   4
 -23  33  -2 1438.59 792.944   2
  23  10  -2 832.181 742.701   1
  23  10  -2 1080.76 812.009   4
  23  10   1 1521.12 740.019   2
 -33  23   1 149.403 583.977   3
 -33  23   1 375.698 726.226   4
 -23  33   1 1791.89 876.617   4
 -33  23   1-19.0400 551.175   2
  23  10   1 756.975 678.281   1
  33 -10   1 509.117 502.540   1
 -23  33   1 504.292 519.013   2
  23  10   1-132.283 764.392   4
  23  10   4 996.402 767.321   2
 -33  23   4-542.870 696.926   4
 -23  33   4-189.626 691.652   4
 -23  33   4 1224.90 579.294   2
  24   9  -3 4146.48 894.526   2
 -33  24  -3 3510.91 779.180   3
  33  -9  -3 2155.46 925.228   1
 -33  24  -3 3081.58 1015.34   4
 -33  24  -3 2602.02 953.473   2
 -24  33  -3 3308.55 928.415   4
 -24  33  -3 3763.17 1017.71   2
  24   9  -3 3943.53 1089.22   1
  24   9   0-452.830 593.343   2
 -33  24   0 1873.94 706.004   3
 -33  24   0 1518.13 858.899   4
 -24  33   0 2174.58 887.872   4
 -33  24   0-356.091 573.233   2
  33  -9   0 697.351 569.574   1
  24   9   0 554.178 693.155   1
 -24  33   0 1426.81 699.495   2
  24   9   3 2243.11 830.346   2
 -33  24   3 2825.71 976.276   4
 -24  33   3 2286.96 956.394   4
 -24  33   3 2657.71 741.579   2
  25   8  -1 2661.99 759.600   2
 -33  25  -1 3592.88 822.661   3
 -33  25  -1 1222.59 800.673   4
  33  -8  -1 3375.38 857.309   1
 -25  33  -1 1442.87 819.515   4
 -33  25  -1 2385.38 808.213   2
 -25  33  -1 2552.18 851.897   2
  25   8  -1 2729.87 876.763   1
  25   8   2 1056.74 739.183   2
 -33  25   2 484.156 756.487   4
 -25  33   2-1559.70 866.758   4
  25   8   2 1424.35 701.279   1
 -25  33   2 886.260 617.542   2
 -33  26  -2 1128.38 642.052   3
  26   7  -2 397.644 536.514   2
  33  -7  -2 836.031 794.475   1
 -33  26  -2 146.910 691.812   4
 -33  26  -2-123.911 740.854   2
 -26  33  -2 1212.38 803.298   2
  26   7  -2 346.115 762.394   1
  26   7   1 227.905 716.464   2
 -33  26   1 1730.39 786.537   3
 -33  26   1-462.974 733.023   4
 -26  33   1 1004.43 878.921   4
  33  -7   1 174.748 510.326   1
 -33  26   1 171.705 530.157   2
 -26  33   1 165.011 561.810   2
  26   7   1 321.471 594.479   1
 -33  27   0 607.381 577.750   3
  27   6   0 1989.32 713.540   2
  33  -6   0-125.342 580.332   1
 -33  27   0 1068.96 830.311   4
 -27  33   0 761.994 690.060   4
 -33  27   0 761.675 683.473   2
 -27  33   0 1047.72 729.003   2
  27   6   0 695.892 701.486   1
  33  -5  -1 1498.33 727.441   1
 -33  28  -1 1578.78 724.893   3
 -33  28  -1 2405.04 1078.79   4
 -28  33  -1 3691.94 1070.91   4
 -33  28  -1 3006.99 903.354   2
 -28  33  -1 1275.06 752.837   2
  28   5  -1 1694.59 866.574   1
  26 -34   0 85.2455 538.643   1
 -26  -8   0 609.673 547.174   3
 -34   8   0-579.745 589.888   3
  -8  34   0 1651.60 911.650   4
   8  26   0 1335.45 803.886   4
  -8  34   0 333.342 661.056   2
  34 -26   0 520.263 586.925   1
   8  26   0 955.312 676.002   2
 -25  -9  -1 1830.67 625.527   3
 -34   9  -1 351.390 540.456   3
  -9  34  -1 793.216 823.123   4
  34 -25  -1 700.178 587.284   1
   9  25  -1 1420.73 823.098   4
  -9  34  -1 864.964 677.244   2
  25 -34  -1 501.914 662.560   1
   9  25  -1 988.212 613.334   2
 -25  -9   2 102.325 618.199   3
 -34   9   2 630.831 673.967   3
  -9  34   2-597.383 703.276   4
   9  25   2 1176.58 757.464   4
  -9  34   2-74.6811 563.151   2
  34 -25   2 954.053 526.182   1
   9  25   2-726.391 706.780   2
 -24 -10  -2 875.565 524.416   3
 -34  10  -2 1888.52 762.966   3
  34 -24  -2 2774.13 769.936   1
 -10  34  -2 750.868 694.230   4
  10  24  -2 2816.04 934.616   4
  24 -34  -2 2608.05 773.336   1
 -10  34  -2 1859.25 780.971   2
  10  24  -2 1185.71 655.001   2
 -24 -10   1 1411.99 599.023   3
 -34  10   1 3178.27 848.980   3
 -10  34   1 2413.35 988.322   4
  10  24   1 735.080 803.748   4
 -10  34   1 1638.46 766.988   2
  24 -34   1 2340.38 738.793   1
  10  24   1 983.418 668.312   2
  34 -24   1 642.676 527.518   1
 -23 -11  -3 2247.30 666.563   3
  34 -23  -3 2794.72 836.451   1
 -34  11  -3 1674.94 719.592   3
  23 -34  -3 4108.99 942.428   1
 -11  34  -3 3009.70 997.647   4
  11  23  -3 2840.49 956.717   4
 -11  34  -3 2725.06 888.235   2
  11  23  -3 2436.78 769.141   2
 -23 -11   0-14.3198 503.156   3
 -34  11   0 925.001 657.671   3
 -11  34   0 818.834 707.781   4
  34 -23   0 1904.38 640.516   1
  11  23   0-602.603 776.098   4
 -11  34   0 1000.36 655.767   2
  23 -34   0 221.640 575.578   1
  11  23   0 1711.56 760.012   2
  11  23   3 2076.18 811.033   2
 -23 -11   3 2176.00 708.623   3
 -34  11   3 783.146 697.517   3
 -11  34   3 1028.11 830.904   4
  11  23   3 2124.13 900.503   4
 -11  34   3 1694.16 668.729   2
 -22 -12  -1 1868.21 565.566   3
 -34  12  -1 1355.77 621.417   3
  34 -22  -1 2146.73 691.893   1
  22 -34  -1 2188.42 726.423   1
 -12  34  -1 648.373 691.883   4
  12  22  -1 776.601 839.851   4
 -12  34  -1 1996.84 782.941   2
  12  22  -1 1033.98 625.633   2
  12  22   2-187.357 619.070   2
  34 -22   2-57.7850 432.228   1
 -22 -12   2-14.7198 506.851   3
 -34  12   2 905.160 703.754   3
 -12  34   2-692.163 689.131   4
  12  22   2 641.020 707.268   4
 -12  34   2 780.790 634.736   2
  21 -34  -2 3595.76 865.810   1
 -21 -13  -2 1434.28 581.945   3
 -34  13  -2 3380.27 790.122   3
 -13  34  -2 2977.27 959.724   4
  13  21  -2 3248.53 884.344   4
 -13  34  -2 2461.74 832.334   2
  13  21  -2 3691.80 905.256   2
  34 -21  -2 3548.14 820.572   1
  13  21   1 2497.40 871.955   2
 -21 -13   1 1009.99 513.106   3
 -34  13   1 108.629 635.009   3
 -13  34   1 860.257 801.327   4
  34 -21   1 346.721 470.381   1
  13  21   1-367.656 655.200   4
 -13  34   1 1521.88 604.980   2
 -20 -14  -3 3544.35 718.810   3
 -34  14  -3 2513.07 708.240   3
 -14  34  -3 5026.09 1070.03   4
  14  20  -3 4544.48 1045.01   4
 -14  34  -3 2827.54 913.751   2
  20 -34  -3 3113.96 879.097   1
  34 -20  -3 3016.02 889.697   1
  14  20  -3 3325.00 812.731   2
  14  20   0 2354.51 767.289   2
 -20 -14   0 2610.51 601.263   3
 -34  14   0 2346.77 821.464   3
  34 -20   0 194.112 494.061   1
 -14  34   0 1653.12 846.178   4
  14  20   0 1722.02 770.320   4
  20 -34   0 3611.93 819.413   1
 -14  34   0 1951.83 721.797   2
  14  20   3 3146.69 850.458   2
 -34  14   3 3761.81 1008.70   3
 -20 -14   3 2908.09 715.995   3
 -14  34   3 3603.13 1011.80   4
  14  20   3 5629.12 1192.14   4
 -14  34   3 4552.44 915.755   2
 -19 -15  -1 91.2865 421.630   3
 -34  15  -1 600.431 588.476   3
  19 -34  -1-313.347 532.167   1
 -15  34  -1 454.746 637.741   4
  15  19  -1 335.418 693.615   4
 -15  34  -1 60.9848 565.481   2
  34 -19  -1 785.081 560.583   1
  15  19  -1 8.96915 502.375   2
  15  19   2 616.515 622.512   2
 -19 -15   2 804.660 520.915   3
 -34  15   2 1443.04 704.539   3
 -15  34   2 423.934 723.029   4
  15  19   2 1125.73 797.359   4
  34 -19   2 124.948 421.922   1
 -15  34   2 1395.88 659.983   2
 -18 -16  -2 865.887 478.432   3
 -34  16  -2 2844.76 763.124   3
  16  18  -2 1056.64 813.620   1
 -16  34  -2-12.3505 635.077   4
  16  18  -2 2695.46 893.538   4
 -16  34  -2 1787.48 785.320   2
  34 -18  -2 1037.24 631.180   1
  18 -34  -2 2053.89 706.276   1
  16  18  -2 1536.02 634.377   2
  16  18   1 474.709 632.328   2
 -18 -16   1 632.342 495.873   3
 -34  16   1 630.358 554.163   3
  34 -18   1-384.367 445.568   1
 -16  34   1 199.087 663.547   4
  16  18   1-1134.87 770.950   4
 -16  34   1 815.679 669.976   2
  16  18   4 1913.01 770.512   2
 -16  34   4 4214.39 1023.67   4
  16  18   4 1867.13 836.965   4
 -16  34   4 2979.14 776.599   2
 -34  17  -3 6973.93 1024.08   3
  17  17  -3 7578.59 1316.44   1
 -17  34  -3 5986.11 1218.59   4
  17 -34  -3 4555.50 939.781   1
 -17  34  -3 4450.71 1028.02   2
  17  17  -3 3897.93 927.826   4
  34 -17  -3 4414.99 976.140   1
  17  17  -3 4886.47 956.623   2
 -17 -17  -3 4612.63 750.709   3
  17  17   0 3748.16 894.364   2
 -17 -17   0 2379.47 585.544   3
 -34  17   0 2644.83 817.249   3
 -17  34   0 2704.41 905.015   4
  17  17   0 2460.74 929.882   4
 -17  34   0 3250.01 917.393   2
  34 -17   0 2798.47 679.263   1
 -34  17   3 8640.07 1301.74   3
 -17  34   3 3346.88 999.764   4
  17  17   3 4404.98 1087.21   4
 -17  34   3 4915.59 902.309   2
  17  17   3 6891.83 1166.58   2
 -34  18  -4 2531.15 766.913   3
  16 -34  -4 6255.06 1067.37   1
 -18  34  -4 2412.33 906.124   4
  18  16  -4 3179.52 1107.98   1
 -18  34  -4 4425.84 1080.01   2
  18  16  -4 5171.40 1067.81   4
 -16 -18  -4 2944.90 671.435   3
  18  16  -4 3198.60 779.505   2
  18  16  -1 91.5464 565.069   2
 -16 -18  -1-304.767 428.906   3
 -34  18  -1 943.017 676.948   3
  18  16  -1-96.7405 698.677   1
 -18  34  -1-41.1871 723.716   4
  18  16  -1 997.497 721.279   4
 -18  34  -1 181.598 599.010   2
  34 -16  -1-175.274 484.343   1
  18  16   2 769.645 715.616   2
 -34  18   2 1322.44 716.649   3
  34 -16   2 238.068 435.612   1
 -18  34   2 2398.04 891.826   4
  18  16   2 1799.67 778.969   4
 -18  34   2 1668.52 729.231   2
 -15 -19  -2 471.657 415.804   3
  19  15  -2 340.696 578.220   2
  15 -34  -2 628.882 566.228   1
 -34  19  -2 1036.49 601.848   3
 -19  34  -2 810.340 754.212   4
  19  15  -2 1616.92 892.031   1
 -19  34  -2 1226.11 704.345   2
  34 -15  -2 951.512 652.437   1
  19  15  -2 605.960 716.630   4
  19  15   1 490.483 588.163   2
 -34  19   1 634.356 592.410   3
 -34  19   1-47.2515 548.248   2
  19  15   1 1005.26 711.622   1
 -19  34   1 1363.57 848.289   4
  19  15   1 2517.52 829.255   4
 -19  34   1 1391.80 747.364   2
  34 -15   1-155.096 451.842   1
 -14 -20  -3 2003.14 529.572   3
  20  14  -3 2706.60 727.958   2
 -34  20  -3 3003.15 706.987   3
  14 -34  -3 3919.54 942.980   1
 -20  34  -3 1954.01 848.400   4
  20  14  -3 4302.58 1150.62   1
  34 -14  -3 3826.58 950.108   1
 -20  34  -3 1999.52 847.161   2
  20  14  -3 4353.14 1012.30   4
  20  14   0 1665.37 724.997   2
 -34  20   0 2620.17 780.350   3
 -34  20   0 2116.57 729.578   2
 -20  34   0 1186.62 790.146   4
  20  14   0 1791.83 902.162   1
  20  14   0 2273.23 913.630   4
 -20  34   0 1232.47 755.737   2
  34 -14   0 767.909 491.033   1
  20  14   3 5182.88 1041.39   2
 -34  20   3 2153.01 903.069   4
  20  14   3 2596.34 800.896   1
 -20  34   3 3078.86 980.764   4
  20  14   3 2030.42 975.931   4
 -20  34   3 3405.98 787.694   2
  21  13  -1 1525.78 644.296   2
 -34  21  -1 742.877 589.487   3
 -34  21  -1 1355.17 736.223   2
 -21  34  -1 1178.80 678.471   4
  21  13  -1 584.645 727.942   1
  34 -13  -1 730.755 679.679   1
 -21  34  -1 282.482 659.008   2
  21  13  -1 33.3880 631.007   4
  21  13   2 3492.76 908.877   2
 -34  21   2 2993.92 830.783   3
 -34  21   2 4140.01 1061.87   4
 -21  34   2 2652.41 904.029   4
  21  13   2 3043.46 848.524   1
  21  13   2 1935.18 895.985   4
 -21  34   2 3545.49 840.286   2
  22  12  -2 774.572 565.676   2
 -34  22  -2 1394.40 712.550   3
 -34  22  -2-560.979 710.686   2
 -22  34  -2 872.351 741.757   4
  34 -12  -2 633.449 675.153   1
  22  12  -2 1120.06 819.212   1
 -22  34  -2 937.549 761.252   2
  22  12  -2-102.376 621.077   4
  22  12   1 1752.70 787.268   2
 -34  22   1 1611.30 760.910   3
 -34  22   1 173.134 707.015   4
 -34  22   1 1563.57 715.619   2
 -22  34   1 2517.10 858.454   4
  22  12   1 1611.62 784.529   1
  22  12   1 2366.81 877.051   4
 -22  34   1 1258.61 669.210   2
  34 -12   1 1084.45 560.347   1
  23  11  -3 2019.96 706.570   2
 -34  23  -3 1060.35 623.415   3
 -34  23  -3 1177.21 776.834   4
 -34  23  -3 1813.79 990.304   2
  34 -11  -3 1856.70 831.883   1
 -23  34  -3 845.091 691.991   4
 -23  34  -3 1167.08 821.793   2
  23  11  -3 1997.83 1046.21   1
  23  11  -3 1744.95 803.869   4
  23  11   0-157.461 638.535   2
 -34  23   0 1126.14 652.303   3
 -34  23   0 961.012 792.494   4
 -34  23   0 1164.76 671.036   2
 -23  34   0 134.252 808.069   4
  23  11   0-133.084 703.785   1
  34 -11   0 637.843 558.874   1
 -23  34   0 2740.85 829.774   2
  23  11   0 1873.81 896.853   4
  23  11   3 616.662 682.603   2
 -34  23   3 1995.59 842.873   4
 -23  34   3 2237.74 891.774   4
  23  11   3 2980.44 961.256   4
 -23  34   3 4091.72 872.498   2
  24  10  -1 1525.84 780.454   2
 -34  24  -1 1299.58 667.128   3
 -34  24  -1 904.124 875.525   4
 -34  24  -1 931.282 669.802   2
 -24  34  -1 637.408 768.896   4
  34 -10  -1 967.532 633.789   1
  24  10  -1 1924.57 810.512   1
 -24  34  -1 3781.30 968.609   2
  24  10   2 2616.79 857.100   2
 -34  24   2 1363.97 864.467   4
 -24  34   2 1402.73 882.684   4
  24  10   2 1358.48 771.039   1
 -24  34   2 2961.41 861.744   2
  25   9  -2 906.472 701.643   2
 -34  25  -2 1111.87 695.420   3
 -34  25  -2 1293.20 890.016   4
  34  -9  -2-63.7075 584.879   1
 -34  25  -2-272.706 739.841   2
 -25  34  -2 908.927 787.209   4
 -25  34  -2 714.070 752.855   2
  25   9  -2 306.573 790.585   1
  25   9   1 1554.47 757.396   2
 -34  25   1 1759.78 759.823   3
 -34  25   1 1101.16 778.743   4
 -25  34   1 953.963 884.084   4
 -34  25   1 120.084 553.182   2
  34  -9   1 240.175 487.738   1
  25   9   1 992.386 769.206   1
 -25  34   1 747.652 675.335   2
  26   8   0 1278.26 717.042   2
 -34  26   0 922.724 676.926   3
 -34  26   0 539.164 793.324   4
 -26  34   0 906.855 815.777   4
  34  -8   0 760.853 583.046   1
 -34  26   0-617.258 715.068   2
 -26  34   0-57.5557 624.055   2
  26   8   0-3.57364 675.410   1
 -24 -11  -1 666.329 544.345   3
 -35  11  -1 728.146 620.497   3
  24 -35  -1 1238.05 684.688   1
  11  24  -1 2090.52 870.232   4
 -11  35  -1 1234.59 759.205   2
  12  23   1 3974.55 987.374   2
 -23 -12   1 1143.33 607.096   3
 -35  12   1 2597.63 770.750   3
 -12  35   1 2775.97 969.181   4
  12  23   1 1715.72 846.023   4
 -12  35   1 2675.33 810.320   2
  35 -23   1 2143.33 681.368   1
 -22 -13   0 3577.39 738.357   3
 -35  13   0 3510.77 879.289   3
 -13  35   0 5175.82 1186.23   4
 -13  35   0 6116.85 1098.08   2
  13  22   0 5350.31 1150.51   4
  35 -22   0 4387.56 876.382   1
  13  22   0 5541.90 1048.19   2
  22 -35   0 5587.32 987.800   1
 -21 -14  -1 517.858 470.666   3
  35 -21  -1 725.104 596.579   1
 -35  14  -1-252.109 595.634   3
 -14  35  -1-337.021 691.185   4
  14  21  -1 947.504 768.665   4
 -14  35  -1 467.735 596.893   2
  21 -35  -1 463.438 649.046   1
  14  21  -1 1932.98 799.889   2
  14  21   2 378.729 621.472   2
 -21 -14   2 89.8272 505.402   3
 -35  14   2 104.096 633.336   3
 -14  35   2 591.621 726.801   4
  14  21   2 591.739 771.157   4
 -14  35   2-820.766 617.410   2
  35 -21   2 280.420 445.739   1
 -20 -15  -2-135.196 453.427   3
 -35  15  -2 961.410 649.237   3
 -15  35  -2-1041.43 837.917   4
  20 -35  -2 286.448 556.693   1
  15  20  -2 672.962 747.760   4
 -15  35  -2 695.424 644.296   2
  35 -20  -2-239.826 542.916   1
  15  20  -2 1258.22 670.053   2
  15  20   1 860.102 635.626   2
 -20 -15   1 1198.78 561.520   3
 -35  15   1 3928.75 928.136   3
 -15  35   1 1551.63 887.570   4
  35 -20   1 1417.57 571.014   1
  15  20   1 1958.23 924.807   4
 -15  35   1 1939.79 714.718   2
 -19 -16   0 4516.25 749.420   3
 -35  16   0 5864.09 1033.36   3
 -16  35   0 6183.01 1177.81   4
  35 -19   0 5280.37 893.722   1
  16  19   0 6989.72 1260.07   4
 -16  35   0 5377.79 1058.66   2
  16  19   0 4153.64 1050.29   2
  17  18  -1-370.086 584.326   2
 -18 -17  -1 840.118 498.882   3
 -35  17  -1 1201.80 639.475   3
 -17  35  -1 2128.72 859.494   4
  18 -35  -1 106.705 568.458   1
  17  18  -1 424.282 681.156   4
 -17  35  -1 710.855 660.095   2
  35 -18  -1 616.034 568.108   1
  17  18   2 42.7101 621.267   2
 -35  17   2-408.343 657.090   3
 -17  35   2 425.712 707.432   4
  17  18   2 893.558 747.498   4
 -17  35   2 557.244 563.528   2
  18  17  -2 10.1881 626.027   2
 -17 -18  -2 23.3440 406.463   3
 -35  18  -2 64.2071 600.699   3
  18  17  -2 1674.85 940.969   1
 -18  35  -2 1348.72 824.138   4
 -18  35  -2-632.003 647.905   2
  18  17  -2-609.154 758.319   4
  35 -17  -2 220.116 553.207   1
  17 -35  -2 1104.86 731.558   1
  18  17   1 718.318 654.329   2
  35 -17   1 1142.85 541.841   1
 -35  18   1 1417.05 701.963   3
 -35  18   1 412.224 556.480   2
 -18  35   1 895.609 833.138   4
  18  17   1-441.178 759.610   4
 -18  35   1 860.905 654.865   2
  19  16   0 5606.75 990.294   2
 -35  19   0 7126.10 1106.99   3
 -35  19   0 2300.38 788.688   2
 -19  35   0 6276.56 1219.67   4
  19  16   0 5559.15 1151.73   1
 -19  35   0 6312.50 1112.40   2
  19  16   0 3232.82 1033.40   4
  35 -16   0 3637.11 781.726   1
  20  15  -1 2359.71 816.118   2
 -35  20  -1 3510.85 872.645   3
 -20  35  -1 2862.98 982.223   4
  20  15  -1 2190.71 969.845   1
 -20  35  -1 2082.05 846.392   2
  20  15  -1 1257.82 789.477   4
  35 -15  -1 1654.02 677.605   1
  20  15   2 199.298 738.776   2
 -35  20   2-1156.00 738.911   3
  20  15   2-129.619 651.972   1
 -20  35   2 104.993 700.125   4
  20  15   2 916.359 781.140   4
 -20  35   2 269.214 561.658   2
  21  14  -2-262.832 555.986   2
 -35  21  -2 522.518 616.040   3
 -35  21  -2 148.044 673.265   2
 -21  35  -2-962.554 777.630   4
  21  14  -2 1489.80 891.923   1
  35 -14  -2-29.0668 585.653   1
 -21  35  -2 807.321 788.588   2
  21  14  -2-158.696 651.654   4
  21  14   1 1048.22 681.865   2
 -35  21   1 1127.70 752.929   3
 -35  21   1 240.290 548.504   2
 -21  35   1 377.241 711.174   4
  21  14   1 161.742 638.621   1
  21  14   1 459.347 679.064   4
 -21  35   1 860.206 573.126   2
  35 -14   1-440.364 534.169   1
  22  13   0 4203.63 944.206   2
 -35  22   0 4072.75 879.294   3
 -35  22   0 2540.50 1044.37   4
 -35  22   0 4415.86 934.371   2
 -22  35   0 4825.04 1156.43   4
  22  13   0 3344.04 1151.24   1
 -22  35   0 3564.29 961.507   2
  22  13   0 3547.57 1047.79   4
  35 -13   0 2009.92 644.577   1
  23  12  -1 1792.43 670.588   2
 -35  23  -1 1604.77 719.823   3
 -35  23  -1 1265.35 849.821   4
 -35  23  -1 3735.94 941.403   2
 -23  35  -1 2177.43 954.927   4
  23  12  -1 1586.37 884.721   1
  35 -12  -1 1410.59 719.863   1
 -23  35  -1 2406.23 902.443   2
  23  12  -1 829.263 727.867   4
 -35  24   1 305.165 588.050   2
 -24  35   1 1585.12 722.841   2
  24  11   1 673.580 730.269   4
   0   0   0    0.00    0.00   0

TITL YY_Zn_Gly_Pyr_DMF in R3c
REM R3c (#161 in standard setting)
CELL 0.71073  28.726335  28.726335  10.134804  90.0000  90.0000 120.0000
ZERR   18.00   0.000876   0.000876   0.000353   0.0000   0.0000   0.0000
LATT -3
SYMM -y, x-y, z
SYMM -x+y,-x, z
SYMM -y,-x, z+1/2
SYMM -x+y, y, z+1/2
SYMM  x, x-y, z+1/2
SFAC C H N O Zn
UNIT 144.00 144.00 54.00 54.00 18.00
TREF
HKLF 4
END
;
_shelx_hkl_checksum              80825
_olex2_submission_special_instructions 'No special instructions were received'
_oxdiff_exptl_absorpt_empirical_details
;
Empirical correction (ABSPACK) includes:
- Absorption correction using spherical harmonics
- Frame scaling
- Detector area scaling
;
_oxdiff_exptl_absorpt_empirical_full_max 1.415
_oxdiff_exptl_absorpt_empirical_full_min 0.675
loop_
_space_group_symop_operation_xyz
'x, y, z'
'-y, x-y, z'
'-x+y, -x, z'
'-x+y, y, z+1/2'
'x, x-y, z+1/2'
'-y, -x, z+1/2'
'x+2/3, y+1/3, z+1/3'
'-y+2/3, x-y+1/3, z+1/3'
'-x+y+2/3, -x+1/3, z+1/3'
'-x+y+2/3, y+1/3, z+5/6'
'x+2/3, x-y+1/3, z+5/6'
'-y+2/3, -x+1/3, z+5/6'
'x+1/3, y+2/3, z+2/3'
'-y+1/3, x-y+2/3, z+2/3'
'-x+y+1/3, -x+2/3, z+2/3'
'-x+y+1/3, y+2/3, z+7/6'
'x+1/3, x-y+2/3, z+7/6'
'-y+1/3, -x+2/3, z+7/6'
loop_
_atom_site_label
_atom_site_type_symbol
_atom_site_fract_x
_atom_site_fract_y
_atom_site_fract_z
_atom_site_U_iso_or_equiv
_atom_site_adp_type
_atom_site_occupancy
_atom_site_site_symmetry_order
_atom_site_calc_flag
_atom_site_refinement_flags_posn
_atom_site_refinement_flags_adp
_atom_site_refinement_flags_occupancy
_atom_site_disorder_assembly
_atom_site_disorder_group
Zn1 Zn 0.98019(3) 0.33703(4) 0.13220(12) 0.0231(3) Uani 1 1 d . . . . .
N1 N 1.0263(3) 0.3075(3) 0.0796(7) 0.0279(16) Uani 1 1 d . U . . .
O3 O 0.7909(3) 0.2073(3) 0.0686(6) 0.0438(18) Uani 1 1 d . . . . .
C6 C 0.9023(3) 0.3007(3) -0.0961(8) 0.0231(17) Uani 1 1 d . U . . .
O2 O 0.9325(2) 0.3339(2) -0.0098(6) 0.0289(13) Uani 1 1 d . U . . .
N2 N 0.9317(3) 0.3037(3) 0.2822(7) 0.0226(14) Uani 1 1 d . U . . .
C4 C 0.7832(3) 0.1962(3) -0.0510(8) 0.0276(18) Uani 1 1 d . . . . .
N3 N 0.8069(3) 0.2340(3) -0.1446(7) 0.0272(15) Uani 1 1 d . . . . .
H3 H 0.7991 0.2253 -0.2282 0.033 Uiso 1 1 calc R . . . .
O1 O 1.0279(2) 0.4158(2) 0.1535(6) 0.0295(13) Uani 1 1 d . U . . .
C5 C 0.8460(3) 0.2896(3) -0.1083(8) 0.0263(17) Uani 1 1 d . . . . .
H5A H 0.8350 0.2981 -0.0232 0.032 Uiso 1 1 calc R . . . .
H5B H 0.8450 0.3140 -0.1758 0.032 Uiso 1 1 calc R . . . .
C3 C 0.7471(3) 0.1413(3) -0.0954(8) 0.0276(18) Uani 1 1 d . U . . .
C2 C 0.8781(3) 0.2706(3) 0.2788(8) 0.0248(17) Uani 1 1 d . U . . .
H2 H 0.8567 0.2608 0.2012 0.030 Uiso 1 1 calc R . . . .
C1 C 1.0566(4) 0.2937(4) 0.1504(8) 0.034(2) Uani 1 1 d . U . . .
H1 H 1.0612 0.2980 0.2432 0.041 Uiso 1 1 calc R . . . .
O4 O 0.9320(11) 0.1703(14) 0.390(2) 0.133(14) Uiso 0.397(10) 1 d . U P A -1
C7 C 0.9365(8) 0.1810(9) 0.273(2) 0.052(8) Uiso 0.397(10) 1 d G U P A -1
H7 H 0.9706 0.2084 0.2432 0.062 Uiso 0.397(10) 1 calc R . P A -1
N4 N 0.8969(8) 0.1572(8) 0.181(2) 0.052(8) Uiso 0.397(10) 1 d G . P A -1
C8 C 0.8435(8) 0.1148(12) 0.218(3) 0.074(10) Uiso 0.397(10) 1 d G U P A -1
H8A H 0.8203 0.1025 0.1399 0.111 Uiso 0.397(10) 1 calc R . P A -1
H8B H 0.8458 0.0847 0.2565 0.111 Uiso 0.397(10) 1 calc R . P A -1
H8C H 0.8283 0.1288 0.2833 0.111 Uiso 0.397(10) 1 calc R . P A -1
C9 C 0.9062(13) 0.1729(14) 0.043(2) 0.087(13) Uiso 0.397(10) 1 d G . P A -1
H9A H 0.8731 0.1512 -0.0072 0.131 Uiso 0.397(10) 1 calc R . P A -1
H9B H 0.9172 0.2110 0.0349 0.131 Uiso 0.397(10) 1 calc R . P A -1
H9C H 0.9347 0.1669 0.0082 0.131 Uiso 0.397(10) 1 calc R . P A -1
C9A C 0.860(2) 0.0874(13) 0.188(5) 0.16(2) Uiso 0.397(10) 1 d . U P A -2
H9AA H 0.8741 0.0729 0.2554 0.245 Uiso 0.397(10) 1 calc R . P A -2
H9AB H 0.8247 0.0810 0.2151 0.245 Uiso 0.397(10) 1 calc R . P A -2
H9AC H 0.8572 0.0696 0.1037 0.245 Uiso 0.397(10) 1 calc R . P A -2
N4A N 0.8966(12) 0.1447(12) 0.175(3) 0.084(13) Uiso 0.397(10) 1 d G U P A -2
C8A C 0.9443(18) 0.1692(17) 0.257(5) 0.110(16) Uiso 0.397(10) 1 d G U P A -2
H8AA H 0.9447 0.1417 0.3134 0.166 Uiso 0.397(10) 1 calc R . P A -2
H8AB H 0.9765 0.1856 0.2014 0.166 Uiso 0.397(10) 1 calc R . P A -2
H8AC H 0.9439 0.1970 0.3128 0.166 Uiso 0.397(10) 1 calc R . P A -2
C7A C 0.8870(12) 0.1751(14) 0.087(3) 0.119(19) Uiso 0.397(10) 1 d G U P A -2
H7A H 0.8552 0.1570 0.0358 0.143 Uiso 0.397(10) 1 calc R . P A -2
O4A O 0.9153(15) 0.2232(14) 0.070(4) 0.126(14) Uiso 0.397(10) 1 d G . P A -2
loop_
_atom_site_aniso_label
_atom_site_aniso_U_11
_atom_site_aniso_U_22
_atom_site_aniso_U_33
_atom_site_aniso_U_23
_atom_site_aniso_U_13
_atom_site_aniso_U_12
Zn1 0.0272(5) 0.0314(5) 0.0116(4) 0.0011(3) 0.0012(4) 0.0155(4)
N1 0.029(4) 0.042(4) 0.017(4) -0.003(3) -0.001(3) 0.020(3)
O3 0.054(4) 0.036(4) 0.018(3) 0.000(3) -0.004(3) 0.005(3)
C6 0.029(4) 0.023(4) 0.014(4) 0.004(3) -0.001(3) 0.010(3)
O2 0.036(3) 0.028(3) 0.022(3) -0.005(2) -0.009(3) 0.016(3)
N2 0.025(3) 0.024(3) 0.012(3) -0.003(3) -0.002(3) 0.008(3)
C4 0.026(4) 0.030(4) 0.023(5) 0.000(3) -0.002(3) 0.011(3)
N3 0.033(4) 0.031(4) 0.013(3) -0.001(3) -0.006(3) 0.012(3)
O1 0.035(3) 0.022(3) 0.026(3) 0.000(2) -0.013(3) 0.010(3)
C5 0.028(4) 0.027(4) 0.023(4) 0.000(3) -0.002(3) 0.013(4)
C3 0.028(4) 0.029(4) 0.021(5) 0.000(3) -0.003(3) 0.011(3)
C2 0.029(4) 0.026(4) 0.013(4) -0.006(3) -0.003(3) 0.008(3)
C1 0.046(5) 0.058(6) 0.010(4) -0.005(4) -0.005(4) 0.034(5)
loop_
_atom_type_symbol
_atom_type_description
_atom_type_scat_dispersion_real
_atom_type_scat_dispersion_imag
_atom_type_scat_source
C C 0.0033 0.0016 'International Tables Vol C Tables 4.2.6.8 and 6.1.1.4'
H H 0.0000 0.0000 'International Tables Vol C Tables 4.2.6.8 and 6.1.1.4'
N N 0.0061 0.0033 'International Tables Vol C Tables 4.2.6.8 and 6.1.1.4'
O O 0.0106 0.0060 'International Tables Vol C Tables 4.2.6.8 and 6.1.1.4'
Zn Zn 0.2839 1.4301 'International Tables Vol C Tables 4.2.6.8 and 6.1.1.4'
loop_
_geom_angle_atom_site_label_1
_geom_angle_atom_site_label_2
_geom_angle_atom_site_label_3
_geom_angle
_geom_angle_site_symmetry_1
_geom_angle_site_symmetry_3
_geom_angle_publ_flag
N1 Zn1 O1 106.9(3) . . ?
O2 Zn1 N1 112.8(3) . . ?
O2 Zn1 N2 103.7(3) . . ?
O2 Zn1 O1 101.6(2) . . ?
N2 Zn1 N1 117.8(3) . . ?
N2 Zn1 O1 112.9(3) . . ?
N2 N1 Zn1 121.5(5) 14_644 . ?
C1 N1 Zn1 131.5(6) . . ?
C1 N1 N2 107.0(7) . 14_644 ?
O2 C6 C5 118.6(8) . . ?
O1 C6 O2 124.5(8) 14_644 . ?
O1 C6 C5 116.7(7) 14_644 . ?
C6 O2 Zn1 138.0(5) . . ?
N1 N2 Zn1 125.0(5) 9_665 . ?
C2 N2 Zn1 127.5(6) . . ?
C2 N2 N1 107.3(7) . 9_665 ?
O3 C4 N3 121.8(8) . . ?
O3 C4 C3 121.1(8) . . ?
N3 C4 C3 117.1(8) . . ?
C4 N3 C5 120.4(7) . . ?
C6 O1 Zn1 116.8(5) 9_665 . ?
N3 C5 C6 114.1(7) . . ?
C2 C3 C4 129.7(8) 6_664 . ?
C1 C3 C4 125.9(8) 11_444 . ?
C1 C3 C2 104.4(7) 11_444 6_664 ?
N2 C2 C3 110.1(7) . 6_665 ?
N1 C1 C3 111.2(8) . 17_544 ?
O4 C7 N4 126.0 . . ?
C7 N4 C8 120.5 . . ?
C7 N4 C9 121.8 . . ?
C9 N4 C8 117.7 . . ?
C9A N4A C8A 117.7 . . ?
C7A N4A C9A 121.8 . . ?
C7A N4A C8A 120.5 . . ?
O4A C7A N4A 125.9 . . ?
loop_
_geom_bond_atom_site_label_1
_geom_bond_atom_site_label_2
_geom_bond_distance
_geom_bond_site_symmetry_2
_geom_bond_publ_flag
Zn1 N1 1.970(8) . ?
Zn1 O2 1.958(6) . ?
Zn1 N2 1.958(7) . ?
Zn1 O1 1.986(6) . ?
N1 N2 1.392(10) 14_644 ?
N1 C1 1.331(12) . ?
O3 C4 1.245(11) . ?
C6 O2 1.264(10) . ?
C6 O1 1.258(10) 14_644 ?
C6 C5 1.491(12) . ?
N2 N1 1.392(10) 9_665 ?
N2 C2 1.347(11) . ?
C4 N3 1.343(11) . ?
C4 C3 1.459(12) . ?
N3 C5 1.469(11) . ?
O1 C6 1.258(10) 9_665 ?
C3 C2 1.383(11) 6_664 ?
C3 C1 1.379(12) 11_444 ?
C2 C3 1.383(11) 6_665 ?
C1 C3 1.379(12) 17_544 ?
O4 C7 1.2161 . ?
C7 N4 1.3623 . ?
N4 C8 1.4533 . ?
N4 C9 1.4502 . ?
C9A N4A 1.4503 . ?
N4A C8A 1.4529 . ?
N4A C7A 1.3625 . ?
C7A O4A 1.2168 . ?
