#------------------------------------------------------------------------------
#$Date: 2020-08-07 01:43:43 +0300 (Fri, 07 Aug 2020) $
#$Revision: 255126 $
#$URL: file:///home/coder/svn-repositories/cod/cif/4/13/51/4135146.cif $
#------------------------------------------------------------------------------
#
# This file is available in the Crystallography Open Database (COD),
# http://www.crystallography.net/
#
# All data on this site have been placed in the public domain by the
# contributors.
#
data_4135146
loop_
_publ_author_name
'Wen, Qiang'
'Tenenholtz, Shira'
'Shimon, Linda J. W.'
'Bar-Elli, Omri'
'Beck, Lior'
'Houben, Lothar'
'Cohen, Sidney R.'
'Feldman, Yishay'
'Oron, Dan'
'Lahav, Michal'
'van der Boom, Milko E.'
_publ_section_title
;
 Chiral and SHG-Active Metal-Organic Frameworks Formed in Solution and on
 Surfaces: Uniformity, Morphology Control, Oriented Growth, and
 Post-assembly Functionalization.
;
_journal_name_full               'Journal of the American Chemical Society'
_journal_paper_doi               10.1021/jacs.0c05384
_journal_year                    2020
_chemical_absolute_configuration unk
_chemical_formula_moiety         'C62 H52 N4'
_chemical_formula_sum            'C62 H52 N4'
_chemical_formula_weight         853.07
_space_group_crystal_system      tetragonal
_space_group_IT_number           81
_space_group_name_Hall           'P -4'
_space_group_name_H-M_alt        'P -4'
_atom_sites_solution_hydrogens   geom
_audit_creation_method           SHELXL-2013
_cell_angle_alpha                90
_cell_angle_beta                 90
_cell_angle_gamma                90
_cell_formula_units_Z            1
_cell_length_a                   13.6468(9)
_cell_length_b                   13.6468(9)
_cell_length_c                   7.0913(4)
_cell_measurement_reflns_used    1031
_cell_measurement_temperature    100(2)
_cell_measurement_theta_max      19.95
_cell_measurement_theta_min      2.98
_cell_volume                     1320.65(14)
_computing_cell_refinement       'Bruker Apex2'
_computing_data_collection       'Bruker Apex2'
_computing_data_reduction        'Bruker Apex2'
_computing_structure_refinement  'SHELXL-2013 (Sheldrick, 2013)'
_computing_structure_solution    'SHELXT-2013 (Sheldrick, 2013)'
_diffrn_ambient_temperature      100(2)
_diffrn_measured_fraction_theta_full 0.989
_diffrn_measured_fraction_theta_max 0.989
_diffrn_measurement_device_type  'Bruker KappaApexII CCD'
_diffrn_measurement_method       'omega scans'
_diffrn_radiation_type           MoK\a
_diffrn_radiation_wavelength     0.71073
_diffrn_reflns_av_R_equivalents  0.0336
_diffrn_reflns_av_unetI/netI     0.0591
_diffrn_reflns_Laue_measured_fraction_full 0.989
_diffrn_reflns_Laue_measured_fraction_max 0.989
_diffrn_reflns_limit_h_max       16
_diffrn_reflns_limit_h_min       -10
_diffrn_reflns_limit_k_max       16
_diffrn_reflns_limit_k_min       -13
_diffrn_reflns_limit_l_max       8
_diffrn_reflns_limit_l_min       -7
_diffrn_reflns_number            5303
_diffrn_reflns_point_group_measured_fraction_full 0.948
_diffrn_reflns_point_group_measured_fraction_max 0.948
_diffrn_reflns_theta_full        25.242
_diffrn_reflns_theta_max         25.350
_diffrn_reflns_theta_min         3.237
_diffrn_source                   'sealed tube'
_exptl_absorpt_coefficient_mu    0.062
_exptl_absorpt_correction_T_max  0.9938
_exptl_absorpt_correction_T_min  0.9816
_exptl_absorpt_correction_type   multi-scan
_exptl_absorpt_process_details   SADABS
_exptl_crystal_colour            colourless
_exptl_crystal_density_diffrn    1.073
_exptl_crystal_description       needle
_exptl_crystal_F_000             452
_exptl_crystal_size_max          0.300
_exptl_crystal_size_mid          0.200
_exptl_crystal_size_min          0.100
_platon_squeeze_details
;
;
_refine_diff_density_max         0.243
_refine_diff_density_min         -0.171
_refine_diff_density_rms         0.039
_refine_ls_abs_structure_details
;
 Flack x determined using 602 quotients [(I+)-(I-)]/[(I+)+(I-)]
 (Parsons and Flack (2004), Acta Cryst. A60, s61).
;
_refine_ls_extinction_method     none
_refine_ls_goodness_of_fit_ref   0.907
_refine_ls_hydrogen_treatment    constr
_refine_ls_matrix_type           full
_refine_ls_number_parameters     159
_refine_ls_number_reflns         2300
_refine_ls_number_restraints     1
_refine_ls_restrained_S_all      0.911
_refine_ls_R_factor_all          0.0832
_refine_ls_R_factor_gt           0.0572
_refine_ls_shift/su_max          0.000
_refine_ls_shift/su_mean         0.000
_refine_ls_structure_factor_coef Fsqd
_refine_ls_weighting_details
'w=1/[\s^2^(Fo^2^)+(0.1154P)^2^] where P=(Fo^2^+2Fc^2^)/3'
_refine_ls_weighting_scheme      calc
_refine_ls_wR_factor_gt          0.1452
_refine_ls_wR_factor_ref         0.1617
_reflns_Friedel_coverage         0.756
_reflns_Friedel_fraction_full    0.899
_reflns_Friedel_fraction_max     0.898
_reflns_number_gt                1632
_reflns_number_total             2300
_reflns_threshold_expression     'I > 2\s(I)'
_cod_data_source_file            ja0c05384_si_004.cif
_cod_data_source_block           v199s-sr
_cod_original_cell_volume        1320.65(19)
_cod_database_code               4135146
_shelx_space_group_comment
;
The symmetry employed for this shelxl refinement is uniquely defined
by the following loop, which should always be used as a source of
symmetry information in preference to the above space-group names.
They are only intended as comments.
;
_shelx_estimated_absorpt_t_min   0.982
_shelx_estimated_absorpt_t_max   0.994
_shelxl_version_number           2013-4
_shelx_res_file
;
TITL v199 in P-4
CELL 0.71073 13.6468 13.6468 7.0913 90.000 90.000 90.000
ZERR 1.00 0.0009 0.0009 0.0004 0.000 0.000 0.000
LATT -1
SYMM y, -x, -z
SYMM -y, x, -z
SYMM -x, -y, z
SFAC C  H  N
UNIT 62   52  4
L.S. 8
ACTA
BOND $H
conf
FMAP 2
rem shira milko colorless prism
size 0.3 0.2 0.1
shel 8.0 0.83
omit -2 4 0
omit -1 3 0
omit 2 2 0
omit -2 3 0
omit 0 3 0
omit 1 3 1
omit -3 1 1
omit -1 1 1
omit 0 4 0
sadi c8 c11a c8 c11b

bond c8 c11b
PLAN 20
TEMP -173.000
WGHT    0.115400
FVAR       2.54983   0.57506
N1    3   -0.169765    0.745530   -0.108397    11.00000    0.04187    0.05976 =
         0.06407    0.02200   -0.01526   -0.00641
C1    1    0.410383    0.525747    0.873537    11.00000    0.02316    0.02435 =
         0.01575    0.00174   -0.00116    0.00032
C2    1    0.436406    0.612949    1.000261    11.00000    0.02494    0.02231 =
         0.01750    0.00193    0.00257    0.00303
AFIX  23
H2A   2    0.379461    0.629363    1.080777    11.00000   -1.20000
H2B   2    0.451281    0.670708    0.920791    11.00000   -1.20000
AFIX   0
C3    1    0.500000    0.500000    0.752629    10.50000    0.02872    0.02054 =
         0.01562    0.00000    0.00000   -0.00138
AFIX  23
H3A   2    0.483804    0.443630    0.670467    10.50000   -1.20000
H3B   2    0.516196    0.556372    0.670472    10.50000   -1.20000
AFIX   0
C4    1    0.323204    0.552487    0.746786    11.00000    0.03430    0.02594 =
         0.02084   -0.00417   -0.00274    0.00551

C5    1    0.231858    0.510496    0.764551    11.00000    0.03863    0.03726 =
         0.05409    0.00983   -0.01731   -0.00319
AFIX  43
H5    2    0.221687    0.462236    0.859096    11.00000   -1.20000
AFIX   0
C6    1    0.155051    0.536327    0.649639    11.00000    0.04116    0.05449 =
         0.08043    0.01112   -0.03118   -0.00432
AFIX  43
H6    2    0.092865    0.506930    0.670253    11.00000   -1.20000
AFIX   0
C7    1    0.164874    0.602801    0.506708    11.00000    0.05405    0.05421 =
         0.05021   -0.00595   -0.03436    0.01130
C8    1    0.258177    0.647041    0.485775    11.00000    0.06994    0.05184 =
         0.02187   -0.00023   -0.00308    0.02889
AFIX  43
H8    2    0.267990    0.694242    0.389135    11.00000   -1.20000
AFIX   0
C9    1    0.335191    0.622729    0.603507    11.00000    0.03961    0.04172 =
         0.02353    0.00394    0.00062    0.01233
AFIX  43
H9    2    0.396909    0.653827    0.587433    11.00000   -1.20000
AFIX   0
part 1
C10A  1    0.075389    0.624473    0.404238    21.00000    0.01922    0.04710 =
         0.02659    0.01785   -0.01155   -0.01006
AFIX  43
H10A  2    0.014332    0.608134    0.460380    21.00000   -1.20000
AFIX   0
C11A  1    0.075515    0.669006    0.223906    21.00000    0.02271    0.03702 =
         0.01086    0.01542   -0.00475   -0.00430
AFIX  43
H11A  2    0.136279    0.686851    0.168289    21.00000   -1.20000
AFIX   0
part 2
C10B  1    0.113734    0.648177    0.316588   -21.00000    0.07273
AFIX  43
H10B  2    0.143534    0.684444    0.217658   -21.00000   -1.20000
AFIX   0
C11B  1    0.037661    0.626722    0.331264   -21.00000    0.09757
AFIX  43
H11B  2    0.006755    0.587636    0.424816   -21.00000   -1.20000
AFIX   0
part 0
C12   1   -0.014703    0.688174    0.121534    11.00000    0.05848    0.06714 =
         0.08476   -0.01197   -0.03898    0.02079
C13   1   -0.110535    0.699382    0.192743    11.00000    0.09011    0.06427 =
         0.04693    0.00910   -0.03125    0.00476
AFIX  43
H13   2   -0.124143    0.687182    0.322011    11.00000   -1.20000
AFIX   0
C14   1   -0.183486    0.728051    0.072961    11.00000    0.04621    0.04931 =
         0.05485    0.01494   -0.01107   -0.00860
AFIX  43
H14   2   -0.247631    0.735854    0.122793    11.00000   -1.20000
AFIX   0

C15   1   -0.080147    0.732479   -0.170058    11.00000    0.05644    0.08791 =
         0.06198    0.01947   -0.00813   -0.00461
AFIX  43
H15   2   -0.068822    0.743005   -0.300679    11.00000   -1.20000
AFIX   0
C16   1   -0.003042    0.705554   -0.064776    11.00000    0.04611    0.11638 =
         0.07641   -0.01987   -0.02017    0.00921
AFIX  43
H16   2    0.059737    0.698704   -0.121143    11.00000   -1.20000
AFIX   0
HKLF 4 1 1 0 0 0 1 0 0 0 1

REM  v199 in P-4
REM R1 =  0.0572 for    1632 Fo > 4sig(Fo)  and  0.0832 for all    2300 data
REM    159 parameters refined using      1 restraints

END

WGHT      0.0824      0.0000

REM Highest difference peak  0.243,  deepest hole -0.171,  1-sigma level  0.039
Q1    1  -0.0568  0.6546  0.1812  11.00000  0.05    0.24
Q2    1   0.2209  0.6224  0.4571  11.00000  0.05    0.17
Q3    1   0.0877  0.7266  0.4287  11.00000  0.05    0.15
Q4    1  -0.0398  0.7670  0.2244  11.00000  0.05    0.15
Q5    1   0.1910  0.5349  0.5638  11.00000  0.05    0.15
Q6    1   0.2444  0.6471  0.5033  11.00000  0.05    0.14
Q7    1   0.5000  0.5000  1.0000  10.25000  0.05    0.13
Q8    1  -0.1411  0.7782  0.2341  11.00000  0.05    0.13
Q9    1  -0.1089  0.6070  0.2517  11.00000  0.05    0.13
Q10   1  -0.0982  0.7640  0.3089  11.00000  0.05    0.13
Q11   1   0.4711  0.5513  0.9310  11.00000  0.05    0.12
Q12   1   0.1711  0.6307 -0.0730  11.00000  0.05    0.12
Q13   1   0.2138  0.5403  0.3210  11.00000  0.05    0.12
Q14   1  -0.1430  0.6657 -0.1763  11.00000  0.05    0.12
Q15   1  -0.1589  0.6564  0.1844  11.00000  0.05    0.12
Q16   1  -0.0539  0.5955  0.0700  11.00000  0.05    0.12
Q17   1   0.1967  0.5518  0.4329  11.00000  0.05    0.11
Q18   1  -0.1394  0.6873  0.2555  11.00000  0.05    0.11
Q19   1   0.3543  0.5562  1.1720  11.00000  0.05    0.11
Q20   1   0.0139  0.6475  0.5384  11.00000  0.05    0.11
;
_shelx_res_checksum              46974
_shelx_hkl_file
;
   1   0   0    9091       2                                                          -2   37.44    0.00  1.0000
   1   0   0    9091       2                                                          -1   37.44    0.00  1.0000
   0   1   0    9091       2                                                           0   37.44   -0.00  1.0000
  -1  -1   0    5892       4                                                           4   30.93   -0.00  1.0000
  -1  -1   0    6203       3                                                           0   30.93   -0.00  1.0000
   1   1   0    5856       4                                                           5   30.93    0.00  1.0000
  -2  -2   0    2870      29                                                         420   12.99   -0.00  1.0000
  -2  -2   0    2734      25                                                         369   12.99   -0.00  1.0000
  -3  -2   0    1604      23                                                         172   10.58   -0.00  1.0000
   3   2   0    1532      23                                                         149   10.58    0.00  1.0000
   3   2   0    1610      21                                                         174   10.58    0.00  1.0000
  -3  -2   0    1561      21                                                         158   10.58   -0.00  1.0000
   3   1   0     879      17                                                          65    8.48    0.00  1.0000
  -3  -1   0     905      17                                                          72    8.48   -0.00  1.0000
   3   1   0     883      14                                                          66    8.48    0.00  1.0000
  -3  -1   0     946      15                                                          84    8.48   -0.00  1.0000
   1  -3   0     936      15                                                          81    8.48    0.00  1.0000
  -3   0   0    9739     347                                                       12157    4.55   -0.00  1.0000
   3   0   0    9391     346                                                       11768    4.55    0.00  1.0000
  -3   0   0    9882     322                                                       12317    4.55   -0.00  1.0000
   3   0   0    9630     322                                                       12035    4.55    0.00  1.0000
   0  -3   0   10362     323                                                       12852    4.55    0.00  1.0000
   0  -3   0   10018     347                                                       12469    4.55    0.00  1.0000
   1   3   0   86125    2403                                                       91515    3.55   -0.00  1.0000
   3  -1   0   90494    2413                                                       96017    3.55    0.00  1.0000
  -1  -3   0   92921    2553                                                       98516    3.55    0.00  1.0000
   1   3   0   91642    2554                                                       97199    3.55   -0.00  1.0000
  -1  -3   0   89631    2419                                                       95128    3.55    0.00  1.0000
  -2  -3   0   18229     617                                                       22749    6.21   -0.00  1.0000
   2   3   0   17703     578                                                       22160    6.21    0.00  1.0000
   2   3   0   17631     617                                                       22080    6.21    0.00  1.0000
  -3  -3   0    7426     336                                                       11597    8.45   -0.00  1.0000
   3   3   0    7390     337                                                       11553    8.45    0.00  1.0000
   4   3   0    2445      48                                                         917    7.52    0.00  1.0000
   4   3   0    2336      52                                                         851    7.52    0.00  1.0000
  -4  -3   0    2508      54                                                         956    7.52   -0.00  1.0000
   2  -4   0       1      27                                                         304    7.18   -0.00  1.0000
   4   2   0       3      31                                                         271    7.18    0.00  1.0000
  -4  -2   0       0      34                                                         343    7.18   -0.00  1.0000
   4   2   0       0      29                                                         311    7.18    0.00  1.0000
   1  -4   0   13990     416                                                       16149    3.46   -0.00  1.0000
  -4  -1   0   13747     448                                                       15888    3.46   -0.00  1.0000
   4   1   0   13972     450                                                       16130    3.46    0.00  1.0000
  -4  -1   0   13293     418                                                       15399    3.46   -0.00  1.0000
   4   1   0   13558     418                                                       15684    3.46    0.00  1.0000
  -1   4   0   13789     419                                                       15933    3.46    0.00  1.0000
   0  -4   0     432      34                                                         385   -0.46   -0.00  1.0000
   4   0   0     399      33                                                         354   -0.46    0.00  1.0000
   0  -4   0     526      29                                                         474   -0.46   -0.00  1.0000
  -4   0   0     439      30                                                         392   -0.46   -0.00  1.0000
   4   0   0     428      27                                                         381   -0.46    0.00  1.0000
   1   4   0    1294      67                                                        1473   -0.95   -0.00  1.0000
  -1  -4   0    1330      60                                                        1512   -0.95    0.00  1.0000
   1   4   0    1380      60                                                        1565   -0.95   -0.00  1.0000
   4  -1   0    1413      58                                                        1600   -0.95   -0.00  1.0000
  -4   1   0    1355      57                                                        1538   -0.95    0.00  1.0000
  -1  -4   0    1413      69                                                        1600   -0.95    0.00  1.0000
  -2  -4   0     942      44                                                         705    1.62    0.00  1.0000
   4  -2   0    1042      38                                                         792    1.62   -0.00  1.0000
   2   4   0    1009      41                                                         763    1.62   -0.00  1.0000
   2   4   0    1015      47                                                         769    1.62   -0.00  1.0000
   3   4   0    3863     103                                                        2647    4.20    0.00  1.0000
   4   4   0     152      48                                                         656    5.22    0.00  1.0000
   4   4   0     146      42                                                         645    5.22    0.00  1.0000
  -4  -4   0     152      47                                                         657    5.22   -0.00  1.0000
  -5  -4   0    1299     101                                                        2431    5.21   -0.00  1.0000
   5   4   0    1202      92                                                        2298    5.21    0.00  1.0000
   5   3   0     167      14                                                         -26    5.08    0.00  1.0000
   5   3   0      37      21                                                          47    5.08    0.00  1.0000
  -5  -3   0     167      16                                                           0    5.08   -0.00  1.0000
   5   2   0     236      38                                                         584    3.46    0.00  1.0000
   5   2   0     145      43                                                         434    3.46    0.00  1.0000
  -5  -1   0      75      24                                                         120    0.90   -0.00  1.0000
   5   1   0      68      20                                                         111    0.90    0.00  1.0000
  -1   5   0      79      23                                                         125    0.90    0.00  1.0000
   5   1   0     132      30                                                         190    0.90    0.00  1.0000
   1  -5   0      67      24                                                         110    0.90   -0.00  1.0000
   5   0   0    2066      83                                                        2321   -1.07    0.00  1.0000
   0   5   0    2222      87                                                        2486   -1.07    0.00  1.0000
   5   0   0    2002      95                                                        2253   -1.07    0.00  1.0000
  -5   0   0    2106      84                                                        2363   -1.07   -0.00  1.0000
   0  -5   0    2229      95                                                        2494   -1.07   -0.00  1.0000
   5  -1   0   16052     497                                                       17117   -1.62   -0.00  1.0000
   5  -1   0   16266     458                                                       17338   -1.62   -0.00  1.0000
   1   5   0   16603     498                                                       17686   -1.62    0.00  1.0000
  -1  -5   0   16163     495                                                       17232   -1.62   -0.00  1.0000
   1   5   0   16493     463                                                       17572   -1.62    0.00  1.0000
  -5   1   0   16204     457                                                       17274   -1.62    0.00  1.0000
   2   5   0    3616     130                                                        3923   -0.98    0.00  1.0000
   5  -2   0    3844     124                                                        4161   -0.98    0.00  1.0000
  -2  -5   0    3734     141                                                        4046   -0.98   -0.00  1.0000
   2   5   0    3593     143                                                        3899   -0.98    0.00  1.0000
   3   5   0     159      32                                                         199    0.59    0.00  1.0000
  -3  -5   0     202      33                                                         247    0.59   -0.00  1.0000
   3   5   0     164      30                                                         205    0.59    0.00  1.0000
   4   5   0    1233      49                                                         792    2.74    0.00  1.0000
  -4  -5   0    1151      51                                                         727    2.74   -0.00  1.0000
   4   5   0    1175      56                                                         746    2.74    0.00  1.0000
   5   5   0     385      27                                                          75    4.31    0.00  1.0000
  -5  -5   0     385      25                                                          75    4.31   -0.00  1.0000
   5   5   0     410      25                                                          86    4.31    0.00  1.0000
   6   5   0     551      34                                                         160    4.25    0.00  1.0000
  -6  -5   0     480      31                                                         123    4.25   -0.00  1.0000
   6   5   0     538      31                                                         153    4.25    0.00  1.0000
   6   4   0    1351      97                                                        2358    4.63    0.00  1.0000
   6   4   0    1449     110                                                        2486    4.63    0.00  1.0000
  -6  -4   0    1369     105                                                        2381    4.63   -0.00  1.0000
   6   3   0      55      16                                                           2    3.46    0.00  1.0000
   6   3   0      78      19                                                          -8    3.46    0.00  1.0000
  -6  -3   0      29      20                                                          12    3.46   -0.00  1.0000
  -6  -2   0      78      20                                                          29    1.36   -0.00  1.0000
   6   2   0      12      20                                                         -13    1.36    0.00  1.0000
   6   2   0      88      18                                                          35    1.36    0.00  1.0000
   1  -6   0    3971     151                                                        4133   -0.50   -0.00  1.0000
  -1   6   0    4015     138                                                        4178   -0.50    0.00  1.0000
  -6  -1   0    4211     152                                                        4378   -0.50   -0.00  1.0000
   6   1   0    4089     136                                                        4254   -0.50    0.00  1.0000
   6   1   0    3808     151                                                        3967   -0.50    0.00  1.0000
   0  -6   0    1016      54                                                         753   -1.74   -0.00  1.0000
   0   6   0    1115      50                                                         839   -1.74    0.00  1.0000
   6   0   0    1195      48                                                         908   -1.74    0.00  1.0000
   1   6   0    1016      48                                                         629   -2.67    0.00  1.0000
  -1  -6   0     875      47                                                         519   -2.67   -0.00  1.0000
   6  -1   0     837      47                                                         490   -2.67    0.00  1.0000
   6  -1   0     959      38                                                         584   -2.67    0.00  1.0000
   1   6   0     884      50                                                         526   -2.67    0.00  1.0000
   6  -2   0     575      30                                                         276   -2.90    0.00  1.0000
  -2  -6   0     560      36                                                         265   -2.90   -0.00  1.0000
   2   6   0     666      42                                                         340   -2.90    0.00  1.0000
   2   6   0     733      39                                                         388   -2.90    0.00  1.0000
   6  -3   0    1344      53                                                        1077   -1.51    0.00  1.0000
   3   6   0    1340      66                                                        1074   -1.51    0.00  1.0000
   3   6   0    1544      63                                                        1257   -1.51    0.00  1.0000
  -3  -6   0    1299      64                                                        1037   -1.51   -0.00  1.0000
  -4  -6   0    2049     102                                                        2293    1.03   -0.00  1.0000
   4   6   0    1901     102                                                        2136    1.03    0.00  1.0000
   4   6   0    1912      93                                                        2148    1.03    0.00  1.0000
   5   6   0     421      65                                                         762    2.78    0.00  1.0000
  -5  -6   0     336      59                                                         646    2.78   -0.00  1.0000
   5   6   0     340      55                                                         651    2.78    0.00  1.0000
  -6  -6   0    4229     137                                                        3358    2.78   -0.00  1.0000
   6   6   0    3832     137                                                        3005    2.78    0.00  1.0000
   6   6   0    4060     125                                                        3207    2.78    0.00  1.0000
   7   6   0     787      77                                                        1092    1.96   -0.00  1.0000
  -7  -6   0     746      71                                                        1044    1.96    0.00  1.0000
   7   6   0     660      64                                                         942    1.96   -0.00  1.0000
  -7  -5   0     242      57                                                         546    3.06    0.00  1.0000
   7   5   0     123      49                                                         357    3.06   -0.00  1.0000
   7   5   0     165      47                                                         426    3.06   -0.00  1.0000
   7   4   0    1162      54                                                         642    3.44   -0.00  1.0000
   7   4   0    1140      62                                                         625    3.44   -0.00  1.0000
  -7  -4   0    1011      54                                                         531    3.44    0.00  1.0000
   7   3   0    3564     167                                                        4377    2.54    0.00  1.0000
   7   3   0    3552     148                                                        4363    2.54    0.00  1.0000
  -7  -3   0    3426     163                                                        4224    2.54   -0.00  1.0000
  -7  -2   0     530      48                                                         436    0.84   -0.00  1.0000
   7   2   0     570      50                                                         472    0.84    0.00  1.0000
   2  -7   0     539      48                                                         444    0.84   -0.00  1.0000
   7   2   0     583      45                                                         484    0.84    0.00  1.0000
   7   1   0     246      43                                                         315   -0.81    0.00  1.0000
   1  -7   0     279      43                                                         352   -0.81   -0.00  1.0000
  -1   7   0     321      42                                                         399   -0.81    0.00  1.0000
  -7  -1   0     309      45                                                         386   -0.81   -0.00  1.0000
   7   1   0     348      40                                                         429   -0.81    0.00  1.0000
   0  -7   0     193      25                                                          68   -2.21   -0.00  1.0000
   0   7   0     174      22                                                          57   -2.21    0.00  1.0000
   7   0   0     131      23                                                          34   -2.21    0.00  1.0000
   7   0   0     137      20                                                          37   -2.21    0.00  1.0000
   1   7   0    3375     112                                                        2478   -3.26    0.00  1.0000
   7  -1   0    3438      94                                                        2532   -3.26    0.00  1.0000
   1   7   0    3287      99                                                        2403   -3.26    0.00  1.0000
   7  -1   0    3588     114                                                        2661   -3.26    0.00  1.0000
  -1  -7   0    3362     109                                                        2467   -3.26   -0.00  1.0000
   7  -2   0     696      44                                                         325   -3.28    0.00  1.0000
   7  -2   0     715      35                                                         338   -3.28    0.00  1.0000
  -2  -7   0     801      46                                                         398   -3.28   -0.00  1.0000
   2   7   0     739      47                                                         355   -3.28    0.00  1.0000
   2   7   0     672      38                                                         309   -3.28    0.00  1.0000
   7  -3   0     759      55                                                        1046   -1.88    0.00  1.0000
  -3  -7   0     763      68                                                        1051   -1.88   -0.00  1.0000
   3   7   0     837      65                                                        1137   -1.88    0.00  1.0000
   3   7   0     804      72                                                        1098   -1.88    0.00  1.0000
  -4  -7   0      21      22                                                          22   -0.02    0.00  1.0000
   4   7   0      49      27                                                          50   -0.02   -0.00  1.0000
   7  -4   0       5      17                                                           5   -0.02    0.00  1.0000
   4   7   0      62      24                                                          63   -0.02   -0.00  1.0000
   5   7   0      76      26                                                          37    1.05   -0.00  1.0000
   5   7   0       7      20                                                         -17    1.05   -0.00  1.0000
  -5  -7   0      56      21                                                          23    1.05    0.00  1.0000
   6   7   0     673      75                                                         841    1.20   -0.00  1.0000
   6   7   0     562      64                                                         717    1.20   -0.00  1.0000
  -6  -7   0     669      73                                                         837    1.20    0.00  1.0000
   7   7   0     821      70                                                         976    1.02    0.00  1.0000
  -7  -7   0     880      76                                                        1041    1.02   -0.00  1.0000
   7   7   0     939      82                                                        1105    1.02    0.00  1.0000
  -8  -7   0     821      72                                                         722    0.70   -0.00  1.0000
   8   7   0     624      61                                                         538    0.70    0.00  1.0000
   8   7   0     744      73                                                         650    0.70    0.00  1.0000
   8   6   0     137      40                                                         230    1.36   -0.00  1.0000
  -8  -6   0     171      46                                                         273    1.36    0.00  1.0000
   8   6   0      96      42                                                         176    1.36   -0.00  1.0000
  -8  -5   0      24      21                                                           0    1.92    0.00  1.0000
   8   5   0      24      22                                                          -9    1.92   -0.00  1.0000
   8   5   0       8      31                                                          60    1.92   -0.00  1.0000
  -8  -4   0      24      20                                                          -4    1.94    0.00  1.0000
   8   4   0      24      20                                                         -12    1.94   -0.00  1.0000
   8   4   0      10      23                                                           3    1.94   -0.00  1.0000
   8   3   0     274      37                                                         175    1.31   -0.00  1.0000
  -8  -3   0      98      24                                                          43    1.31    0.00  1.0000
   8   3   0     229      30                                                         139    1.31   -0.00  1.0000
   8   2   0      10      19                                                          17    0.38    0.00  1.0000
   2  -8   0      34      26                                                          46    0.38    0.00  1.0000
  -8  -2   0      10      22                                                          17    0.38   -0.00  1.0000
   8   2   0       8      23                                                          14    0.38    0.00  1.0000
  -1   8   0     616      51                                                         543   -0.60    0.00  1.0000
   1  -8   0     606      56                                                         534   -0.60   -0.00  1.0000
   8   1   0     498      44                                                         433   -0.60    0.00  1.0000
   8   1   0     642      57                                                         567   -0.60    0.00  1.0000
   0  -8   0     396      41                                                         262   -1.46   -0.00  1.0000
   8   0   0     315      38                                                         197   -1.46    0.00  1.0000
   0   8   0     391      38                                                         258   -1.46    0.00  1.0000
   8   0   0     445      36                                                         302   -1.46    0.00  1.0000
   1   8   0    1634      91                                                        2027   -1.81    0.00  1.0000
   8  -1   0    1580     100                                                        1967   -1.81    0.00  1.0000
  -1  -8   0    1500      98                                                        1878   -1.81   -0.00  1.0000
   1   8   0    1610     102                                                        2001   -1.81    0.00  1.0000
   8  -1   0    1613      82                                                        2004   -1.81    0.00  1.0000
   8  -2   0     356      57                                                         501   -1.39    0.00  1.0000
  -2  -8   0     501      62                                                         671   -1.39   -0.00  1.0000
   2   8   0     563      66                                                         743   -1.39    0.00  1.0000
   2   8   0     452      55                                                         615   -1.39    0.00  1.0000
   8  -2   0     434      48                                                         593   -1.39    0.00  1.0000
   3   8   0    2090     111                                                        2246   -0.66   -0.00  1.0000
   8  -3   0    2022      89                                                        2175   -0.66    0.00  1.0000
  -3  -8   0    2134     108                                                        2291   -0.66    0.00  1.0000
   3   8   0    2056      98                                                        2211   -0.66   -0.00  1.0000
   4   8   0     440      55                                                         412   -0.26   -0.00  1.0000
   8  -4   0     286      36                                                         264   -0.26    0.00  1.0000
  -4  -8   0     302      44                                                         279   -0.26    0.00  1.0000
   4   8   0     330      44                                                         306   -0.26   -0.00  1.0000
   5   8   0    1012      68                                                        1025   -0.08   -0.00  1.0000
   5   8   0    1186      81                                                        1200   -0.08   -0.00  1.0000
  -5  -8   0    1067      75                                                        1080   -0.08    0.00  1.0000
   8  -5   0    1042      59                                                        1055   -0.08    0.00  1.0000
   6   8   0     878      66                                                         923    0.29   -0.00  1.0000
   6   8   0     887      85                                                         932    0.29   -0.00  1.0000
  -6  -8   0     920      73                                                         966    0.29    0.00  1.0000
   7   8   0     418      58                                                         361    0.56    0.00  1.0000
  -7  -8   0     281      47                                                         235    0.56   -0.00  1.0000
   7   8   0     386      49                                                         332    0.56    0.00  1.0000
   8   8   0     568      65                                                         530    0.32    0.00  1.0000
   8   8   0     619      74                                                         579    0.32    0.00  1.0000
  -8  -8   0     611      67                                                         572    0.32   -0.00  1.0000
   9   8   0       0      27                                                         -21    0.03    0.00  1.0000
   9   8   0       6      33                                                           6    0.03    0.00  1.0000
   9   7   0     132      43                                                         152    0.32    0.00  1.0000
   9   7   0      77      36                                                          92    0.32    0.00  1.0000
   9   6   0      71      40                                                         113    0.86    0.00  1.0000
   9   6   0      29      31                                                          57    0.86    0.00  1.0000
  -9  -6   0      27      32                                                          54    0.86   -0.00  1.0000
  -9  -5   0     284      42                                                         204    1.00   -0.00  1.0000
   9   5   0     242      37                                                         169    1.00    0.00  1.0000
   9   5   0     279      44                                                         200    1.00    0.00  1.0000
   9   4   0     274      40                                                         229    0.55   -0.00  1.0000
  -9  -4   0     358      48                                                         307    0.55    0.00  1.0000
   9   4   0     479      56                                                         419    0.55   -0.00  1.0000
   9   3   0       0      22                                                          -4   -0.03   -0.00  1.0000
  -9  -3   0      19      23                                                          18   -0.03    0.00  1.0000
   3  -9   0       0      24                                                         -13   -0.03   -0.00  1.0000
   9   3   0      17      21                                                          16   -0.03   -0.00  1.0000
   9   2   0     400      52                                                         365   -0.35   -0.00  1.0000
  -9  -2   0     403      50                                                         368   -0.35    0.00  1.0000
   9   2   0     320      40                                                         289   -0.35   -0.00  1.0000
   2  -9   0     428      52                                                         392   -0.35   -0.00  1.0000
  -1   9   0     538      58                                                         588   -0.42    0.00  1.0000
   9   1   0     655      70                                                         710   -0.42    0.00  1.0000
   1  -9   0     601      65                                                         654   -0.42   -0.00  1.0000
   9   1   0     577      54                                                         629   -0.42    0.00  1.0000
   9   0   0     587      64                                                         613   -0.21    0.00  1.0000
   0  -9   0     665      66                                                         693   -0.21   -0.00  1.0000
   0   9   0     616      59                                                         643   -0.21    0.00  1.0000
   9   0   0     708      50                                                         736   -0.21    0.00  1.0000
  -1  -9   0     115      34                                                         138    0.41   -0.00  1.0000
   9  -1   0      69      32                                                          87    0.41    0.00  1.0000
   9  -1   0     108      28                                                         131    0.41    0.00  1.0000
   1   9   0      67      29                                                          85    0.41    0.00  1.0000
   9  -2   0     411      38                                                         313    1.01    0.00  1.0000
   2   9   0     392      42                                                         297    1.01    0.00  1.0000
   9  -2   0     388      48                                                         293    1.01    0.00  1.0000
  -2  -9   0     381      46                                                         287    1.01   -0.00  1.0000
   2   9   0     367      47                                                         275    1.01    0.00  1.0000
   9  -3   0    3308     129                                                        3568    0.87    0.00  1.0000
   3   9   0    3259     142                                                        3517    0.87   -0.00  1.0000
   9  -3   0    3286     157                                                        3545    0.87    0.00  1.0000
   3   9   0    3485     159                                                        3752    0.87   -0.00  1.0000
  -3  -9   0    3544     155                                                        3813    0.87    0.00  1.0000
   4   9   0     178      42                                                         169    0.13   -0.00  1.0000
   9  -4   0     233      35                                                         223    0.13    0.00  1.0000
   4   9   0     211      40                                                         201    0.13   -0.00  1.0000
  -4  -9   0     196      40                                                         187    0.13    0.00  1.0000
   5   9   0     117      36                                                         128   -0.20   -0.00  1.0000
  -5  -9   0     113      37                                                         124   -0.20    0.00  1.0000
   5   9   0      44      36                                                          51   -0.20   -0.00  1.0000
   9  -5   0     150      31                                                         163   -0.20    0.00  1.0000
  -6  -9   0       0      25                                                           1    0.16    0.00  1.0000
   6   9   0      32      29                                                          37    0.16   -0.00  1.0000
   9  -6   0      32      25                                                          37    0.16   -0.00  1.0000
   6   9   0       0      26                                                         -33    0.16   -0.00  1.0000
  -7  -9   0      19      33                                                          30    0.46    0.00  1.0000
   7   9   0      54      37                                                          72    0.46   -0.00  1.0000
   7   9   0      68      39                                                          89    0.46   -0.00  1.0000
   9  -7   0      33      28                                                          48    0.46   -0.00  1.0000
   8   9   0      60      39                                                          48    0.31    0.00  1.0000
   8   9   0      19      32                                                          13    0.31    0.00  1.0000
   9   9   0      77      41                                                          65    0.28    0.00  1.0000
   9   9   0      11      38                                                           7    0.28    0.00  1.0000
  10   9   0    1015     109                                                        1112    0.58    0.00  1.0000
  10   9   0     679      83                                                         759    0.58    0.00  1.0000
  10   8   0     168      47                                                         191    0.33    0.00  1.0000
  10   8   0     176      54                                                         199    0.33    0.00  1.0000
  10   7   0      34      37                                                          26    0.29    0.00  1.0000
  10   7   0      11      35                                                           7    0.29    0.00  1.0000
  10   6   0       0      33                                                         -14    0.26    0.00  1.0000
  10   6   0       0      26                                                         -40    0.26    0.00  1.0000
  10   5   0     293      46                                                         281   -0.13    0.00  1.0000
  10   5   0     365      57                                                         352   -0.13    0.00  1.0000
  10   4   0      96      36                                                          64   -0.71    0.00  1.0000
 -10  -4   0      89      31                                                          58   -0.71   -0.00  1.0000
   4 -10   0     117      36                                                          81   -0.71   -0.00  1.0000
  10   4   0      75      29                                                          47   -0.71    0.00  1.0000
 -10  -3   0       2      25                                                           1   -0.93   -0.00  1.0000
  10   3   0       6      28                                                         -13   -0.93    0.00  1.0000
  10   3   0       2      25                                                          14   -0.93    0.00  1.0000
   3 -10   0       6      24                                                         -13   -0.93   -0.00  1.0000
  10   2   0      32      33                                                          55   -0.68   -0.00  1.0000
  10   2   0      28      27                                                          50   -0.68   -0.00  1.0000
   2 -10   0      18      32                                                          36   -0.68   -0.00  1.0000
   1 -10   0     911      81                                                         884   -0.18    0.00  1.0000
  10   1   0    1184      84                                                        1153   -0.18   -0.00  1.0000
  10   1   0     932      63                                                         905   -0.18   -0.00  1.0000
  -1  10   0     903      74                                                         876   -0.18   -0.00  1.0000
  10   0   0       0      21                                                           3    0.58    0.00  1.0000
   0  10   0       2      22                                                         -30    0.58    0.00  1.0000
   0 -10   0      12      27                                                          24    0.58   -0.00  1.0000
  10   0   0      17      29                                                          31    0.58    0.00  1.0000
  10  -1   0     445      39                                                         299    1.50    0.00  1.0000
  10  -1   0     365      47                                                         234    1.50    0.00  1.0000
  -1 -10   0     429      48                                                         286    1.50   -0.00  1.0000
   1  10   0     238      37                                                         135    1.50    0.00  1.0000
  -2 -10   0     714      84                                                         999    1.92   -0.00  1.0000
   2  10   0     573      81                                                         831    1.92    0.00  1.0000
   2  10   0     683      68                                                         963    1.92    0.00  1.0000
  10  -2   0     654      58                                                         928    1.92    0.00  1.0000
  10  -2   0     738      89                                                        1028    1.92    0.00  1.0000
   3  10   0     264      39                                                         164    1.35    0.00  1.0000
  10  -3   0     346      36                                                         230    1.35    0.00  1.0000
  -3 -10   0     213      36                                                         124    1.35   -0.00  1.0000
  10  -3   0     255      42                                                         157    1.35    0.00  1.0000
   3  10   0     278      44                                                         175    1.35    0.00  1.0000
  10  -4   0    3267     127                                                        3382    0.39   -0.00  1.0000
   4  10   0    3105     141                                                        3217    0.39    0.00  1.0000
  10  -4   0    3154     157                                                        3267    0.39   -0.00  1.0000
  -4 -10   0    3297     155                                                        3412    0.39   -0.00  1.0000
   4  10   0    3559     163                                                        3679    0.39    0.00  1.0000
  -5 -10   0    2587     130                                                        2587    0.00    0.00  1.0000
  10  -5   0    2430     104                                                        2430    0.00   -0.00  1.0000
   5  10   0    2355     121                                                        2355    0.00   -0.00  1.0000
   5  10   0    2737     138                                                        2737    0.00   -0.00  1.0000
  10  -6   0      59      29                                                          68    0.21   -0.00  1.0000
   6  10   0     134      43                                                         147    0.21   -0.00  1.0000
  -6 -10   0      62      34                                                          71    0.21    0.00  1.0000
   6  10   0      49      38                                                          57    0.21   -0.00  1.0000
  10  -7   0     731      65                                                         792    0.43   -0.00  1.0000
   7  10   0     798      84                                                         862    0.43   -0.00  1.0000
   7  10   0     924      95                                                         992    0.43   -0.00  1.0000
   8  10   0      61      36                                                          41    0.55   -0.00  1.0000
  10  -8   0      41      28                                                          25    0.55    0.00  1.0000
   8  10   0     122      45                                                          93    0.55   -0.00  1.0000
   9  10   0     102      44                                                          68    0.73    0.00  1.0000
  10  -9   0     131      36                                                          92    0.73    0.00  1.0000
   9  10   0      87      45                                                          56    0.73    0.00  1.0000
  10  10   0     185      59                                                         238    0.72    0.00  1.0000
  11  10   0      21      40                                                          16    0.21    0.00  1.0000
  11   9   0      17      42                                                          33    0.62    0.00  1.0000
  11   8   0     340      63                                                         265    0.85   -0.00  1.0000
  11   8   0     306      52                                                         235    0.85   -0.00  1.0000
  11   7   0       1      31                                                           7    0.66   -0.00  1.0000
  11   7   0       3      36                                                          -4    0.66   -0.00  1.0000
  11   6   0     370      66                                                         381   -0.11    0.00  1.0000
  11   6   0     332      54                                                         342   -0.11    0.00  1.0000
  11   5   0       9      31                                                          -9   -1.15    0.00  1.0000
  11   5   0     154      41                                                          90   -1.15    0.00  1.0000
  11   4   0      18      30                                                          -8   -1.68    0.00  1.0000
  11   4   0      48      28                                                           7   -1.68    0.00  1.0000
   4 -11   0      81      35                                                          22   -1.68   -0.00  1.0000
  11   3   0      61      28                                                          19   -1.36    0.00  1.0000
   3 -11   0      12      28                                                          -4   -1.36   -0.00  1.0000
  11   3   0     112      33                                                          51   -1.36    0.00  1.0000
   2 -11   0     481      67                                                         551   -0.61   -0.00  1.0000
  11   2   0     463      58                                                         532   -0.61    0.00  1.0000
  11   2   0     570      76                                                         646   -0.61    0.00  1.0000
  11   1   0     464      64                                                         453    0.10    0.00  1.0000
   1 -11   0     472      63                                                         461    0.10   -0.00  1.0000
  11   1   0     376      49                                                         366    0.10    0.00  1.0000
  11   0   0     512      58                                                         608    0.79    0.00  1.0000
   0  11   0     349      56                                                         429    0.79   -0.00  1.0000
  11   0   0     391      65                                                         475    0.79    0.00  1.0000
   0 -11   0     445      67                                                         534    0.79    0.00  1.0000
  11  -1   0    2627     123                                                        3021    1.46    0.00  1.0000
  11  -1   0    2550     150                                                        2938    1.46    0.00  1.0000
  -1 -11   0    2653     148                                                        3048    1.46   -0.00  1.0000
   1  11   0    2785     139                                                        3190    1.46    0.00  1.0000
   2  11   0    8700     262                                                        7950    1.61    0.00  1.0000
  -2 -11   0    8473     277                                                        7733    1.61   -0.00  1.0000
  11  -2   0    8155     240                                                        7430    1.61    0.00  1.0000
  11  -2   0    8234     283                                                        7505    1.61    0.00  1.0000
  11  -3   0    5583     192                                                        5996    1.07   -0.00  1.0000
   3  11   0    4997     207                                                        5388    1.07    0.00  1.0000
  -3 -11   0    5046     221                                                        5439    1.07   -0.00  1.0000
   3  11   0    5379     231                                                        5785    1.07    0.00  1.0000
  11  -3   0    5463     232                                                        5872    1.07   -0.00  1.0000
  11  -4   0    1961      89                                                        1885    0.34   -0.00  1.0000
   4  11   0    1903     115                                                        1829    0.34    0.00  1.0000
  -4 -11   0    1721     106                                                        1650    0.34   -0.00  1.0000
   4  11   0    1732     103                                                        1661    0.34    0.00  1.0000
  11  -4   0    2088     119                                                        2010    0.34   -0.00  1.0000
   5  11   0      62      37                                                          62   -0.01   -0.00  1.0000
  11  -5   0      86      42                                                          87   -0.01   -0.00  1.0000
   5  11   0      77      41                                                          78   -0.01   -0.00  1.0000
  11  -5   0      50      29                                                          50   -0.01   -0.00  1.0000
  11  -6   0       9      29                                                           9    0.03   -0.00  1.0000
   6  11   0      40      34                                                          41    0.03   -0.00  1.0000
   6  11   0       0      35                                                          -3    0.03   -0.00  1.0000
   7  11   0     652      88                                                         691    0.30   -0.00  1.0000
  11  -7   0     548      58                                                         584    0.30    0.00  1.0000
   7  11   0     622      77                                                         660    0.30   -0.00  1.0000
  11  -8   0      79      31                                                          51    0.68    0.00  1.0000
   8  11   0       3      39                                                         -40    0.68   -0.00  1.0000
   8  11   0      56      40                                                          33    0.68   -0.00  1.0000
   9  11   0      83      45                                                          48    0.86    0.00  1.0000
  11  -9   0      46      33                                                          21    0.86    0.00  1.0000
  10  11   0      60      46                                                          43    0.48    0.00  1.0000
  11  11   0      86      50                                                          78   -0.18    0.00  1.0000
  12  11   0      65      51                                                          84   -0.43    0.00  1.0000
  12  10   0       1      32                                                         -86   -0.35    0.00  1.0000
  12   9   0    1330     114                                                        1303    0.15   -0.00  1.0000
  12   8   0     740      89                                                         853    0.79   -0.00  1.0000
  12   7   0     287      54                                                         219    0.84   -0.00  1.0000
  12   6   0     427      74                                                         420   -0.07   -0.00  1.0000
  12   6   0     317      57                                                         311   -0.07   -0.00  1.0000
  12   5   0     384      67                                                         525   -1.30    0.00  1.0000
  12   5   0     529      87                                                         692   -1.30    0.00  1.0000
  12   4   0      16      40                                                          72   -1.78    0.00  1.0000
  12   4   0       2      34                                                          35   -1.78    0.00  1.0000
  12   3   0      11      30                                                         -32   -1.29    0.00  1.0000
  12   3   0       7      31                                                          34   -1.29    0.00  1.0000
  12   2   0       2      33                                                          -9   -0.48    0.00  1.0000
  12   2   0      15      29                                                           7   -0.48    0.00  1.0000
  12   1   0     791      85                                                         772    0.13   -0.00  1.0000
  12   1   0     780      70                                                         761    0.13   -0.00  1.0000
  12   0   0    1400     109                                                        1523    0.63   -0.00  1.0000
   0  12   0    1431      97                                                        1555    0.63   -0.00  1.0000
  12   0   0    1456      88                                                        1581    0.63   -0.00  1.0000
  12  -1   0     981      69                                                         821    1.05   -0.00  1.0000
   1  12   0     831      76                                                         684    1.05    0.00  1.0000
  12  -1   0     722      77                                                         586    1.05   -0.00  1.0000
   2  12   0      70      36                                                          29    1.16    0.00  1.0000
  12  -2   0      66      29                                                          27    1.16   -0.00  1.0000
  12  -2   0     102      41                                                          51    1.16   -0.00  1.0000
  12  -3   0     698      58                                                         581    0.91   -0.00  1.0000
  12  -3   0     682      77                                                         566    0.91   -0.00  1.0000
   3  12   0     588      66                                                         481    0.91    0.00  1.0000
   3  12   0     691      79                                                         575    0.91    0.00  1.0000
   4  12   0    1719     121                                                        1828    0.51    0.00  1.0000
  12  -4   0    1635     119                                                        1742    0.51   -0.00  1.0000
   4  12   0    1702     108                                                        1811    0.51    0.00  1.0000
  12  -4   0    1555      87                                                        1659    0.51   -0.00  1.0000
  12  -5   0       0      27                                                          -4    0.15   -0.00  1.0000
   5  12   0      39      41                                                          44    0.15   -0.00  1.0000
  12  -5   0       0      34                                                         -27    0.15   -0.00  1.0000
   5  12   0       0      38                                                         -24    0.15   -0.00  1.0000
   6  12   0     932      93                                                         938   -0.04   -0.00  1.0000
   6  12   0     870      95                                                         875   -0.04   -0.00  1.0000
  12  -6   0     767      67                                                         772   -0.04    0.00  1.0000
   7  12   0       1      42                                                           1    0.11   -0.00  1.0000
  12  -7   0      23      31                                                          26    0.11    0.00  1.0000
   7  12   0       0      33                                                         -33    0.11   -0.00  1.0000
   8  12   0      28      41                                                          41    0.45   -0.00  1.0000
   9  12   0     119      45                                                          93    0.49   -0.00  1.0000
  10  12   0       0      40                                                         -51    0.08    0.00  1.0000
  11  12   0     244      68                                                         220   -0.31    0.00  1.0000
  13  10   0       2      42                                                           6   -0.34   -0.00  1.0000
  13   9   0     445      73                                                         427   -0.17   -0.00  1.0000
  13   8   0     921      95                                                         874    0.31   -0.00  1.0000
  13   7   0    1375     117                                                        1468    0.48   -0.00  1.0000
  13   6   0       0      36                                                          -7   -0.01   -0.00  1.0000
  13   5   0      57      39                                                          87   -0.70    0.00  1.0000
  13   4   0      25      36                                                          54   -0.90    0.00  1.0000
  13   3   0     564      63                                                         496   -0.58    0.00  1.0000
  13   2   0       0      30                                                          -3   -0.16    0.00  1.0000
  13   2   0       0      37                                                          -5   -0.16    0.00  1.0000
  13   1   0     257      47                                                         244    0.16   -0.00  1.0000
  13   1   0     364      69                                                         349    0.16   -0.00  1.0000
   0  13   0     372      65                                                         415    0.42    0.00  1.0000
  13   0   0     434      59                                                         480    0.42   -0.00  1.0000
  13   0   0     524      80                                                         575    0.42   -0.00  1.0000
  13  -1   0       2      36                                                         -14    0.60   -0.00  1.0000
   1  13   0       3      35                                                          10    0.60    0.00  1.0000
  13  -1   0       2      27                                                         -20    0.60   -0.00  1.0000
   2  13   0     235      56                                                         288    0.65    0.00  1.0000
  13  -2   0     148      43                                                         191    0.65   -0.00  1.0000
  13  -2   0     231      61                                                         284    0.65   -0.00  1.0000
   3  13   0       3      30                                                         -26    0.70   -0.00  1.0000
  13  -3   0       3      28                                                          -3    0.70   -0.00  1.0000
   4  13   0       4      38                                                         -22    0.76   -0.00  1.0000
   4  13   0      67      39                                                          39    0.76   -0.00  1.0000
  13  -4   0       4      28                                                         -11    0.76   -0.00  1.0000
   5  13   0      20      47                                                          38    0.65   -0.00  1.0000
  13  -5   0      17      33                                                          34    0.65   -0.00  1.0000
   5  13   0      72      48                                                         103    0.65   -0.00  1.0000
  13  -6   0       1      30                                                         -17    0.35    0.00  1.0000
   6  13   0       4      39                                                           9    0.35   -0.00  1.0000
   7  13   0       0      39                                                         -12    0.10   -0.00  1.0000
   8  13   0      15      39                                                          15    0.02   -0.00  1.0000
   9  13   0       0      40                                                          -8   -0.02   -0.00  1.0000
  10  13   0       0      41                                                         -78   -0.10   -0.00  1.0000
  14   8   0     842      98                                                         856    0.09   -0.00  1.0000
  14   7   0    1250     112                                                        1247    0.02   -0.00  1.0000
  14   6   0     106      48                                                          99   -0.13   -0.00  1.0000
  14   5   0      22      36                                                          25   -0.10    0.00  1.0000
  14   4   0      17      35                                                          14    0.14    0.00  1.0000
  14   3   0     155      48                                                         177    0.34    0.00  1.0000
  14   2   0       3      37                                                           8    0.41   -0.00  1.0000
  14   1   0     141      41                                                         113    0.50   -0.00  1.0000
  14   0   0      17      31                                                           7    0.56   -0.00  1.0000
   1  14   0      46      45                                                          60    0.37    0.00  1.0000
  14  -1   0       1      33                                                           3    0.37   -0.00  1.0000
   2  14   0      42      42                                                          41    0.04   -0.00  1.0000
  14  -2   0      36      34                                                          35    0.04    0.00  1.0000
   3  14   0       0      34                                                         -43    0.02   -0.00  1.0000
  14  -3   0      25      32                                                          25    0.02   -0.00  1.0000
  14  -4   0     354      53                                                         395    0.42   -0.00  1.0000
   4  14   0     388      73                                                         431    0.42   -0.00  1.0000
   5  14   0     120      51                                                          80    0.79   -0.00  1.0000
   6  14   0       3      38                                                         -55    0.68   -0.00  1.0000
   7  14   0       0      43                                                         -20    0.21   -0.00  1.0000
   8  14   0     107      52                                                          98   -0.17   -0.00  1.0000
  15   6   0      51      49                                                          60   -0.23    0.00  1.0000
  15   5   0      18      40                                                          21    0.13    0.00  1.0000
  15   4   0     127      45                                                          94    0.61   -0.00  1.0000
  15   3   0      44      41                                                          74    0.76   -0.00  1.0000
  15   2   0     139      43                                                         101    0.69   -0.00  1.0000
  15   1   0      46      42                                                          75    0.75   -0.00  1.0000
  15   0   0       5      35                                                          19    0.83    0.00  1.0000
   1  15   0       2      40                                                          -4    0.53    0.00  1.0000
  15  -1   0       3      34                                                          10    0.53    0.00  1.0000
   2  15   0       0      39                                                         -45   -0.13   -0.00  1.0000
  15  -2   0       0      33                                                         -21   -0.13    0.00  1.0000
  15  -3   0      12      35                                                          23   -0.54    0.00  1.0000
   3  15   0      18      43                                                          32   -0.54   -0.00  1.0000
   4  15   0     389      76                                                         419   -0.29   -0.00  1.0000
   5  15   0      52      50                                                          61    0.24   -0.00  1.0000
   6  15   0      52      54                                                          70    0.44    0.00  1.0000
  16   3   0     120      54                                                         152    0.55   -0.00  1.0000
  16   2   0     165      52                                                         140    0.40    0.00  1.0000
  16   1   0      38      42                                                          54    0.47    0.00  1.0000
  16   0   0      64      46                                                          96    0.70    0.00  1.0000
  16  -1   0      36      39                                                          19    0.65    0.00  1.0000
   2  16   0       0      37                                                         -32    0.16   -0.00  1.0000
   3  16   0     229      64                                                         203   -0.35   -0.00  1.0000
   0  -1  -1    1275      15                                                         199  -17.83    0.25  1.0000
   0   1  -1    1077      23                                                         384  -17.83    0.25  1.0000
   0   1   1    1173      17                                                         280  -17.83   -0.25  1.0000
  -1  -1  -1    3528      32                                                         612  -14.13    2.03  1.0000
   2   1  -1   86538    2489                                                       97575   -7.18    1.59  1.0000
   1  -2  -1   88821    2463                                                      100000   -7.18   -1.59  1.0000
   2   1  -1   84662    2631                                                       95582   -7.18    1.59  1.0000
  -2  -1  -1   86570    2462                                                       97609   -7.18    1.59  1.0000
   2   1   1   86491    2636                                                       97527   -7.18   -1.59  1.0000
  -1   2   1   87881    2466                                                       99001   -7.18    1.59  1.0000
   2   1   1   86955    2462                                                       98020   -7.18   -1.59  1.0000
   0   2  -1   21360     640                                                       22767   -7.10    1.04  1.0000
   2   0  -1   22451     636                                                       23901   -7.10   -1.04  1.0000
   0  -2  -1   21573     595                                                       22988   -7.10    1.04  1.0000
   2   0  -1   22286     592                                                       23730   -7.10   -1.04  1.0000
   2   0   1   22489     604                                                       23940   -7.10    1.04  1.0000
   0   2   1   21567     595                                                       22983   -7.10   -1.04  1.0000
   1   2  -1   16512     405                                                       14722   -5.70    2.98  1.0000
   2  -1  -1   16314     396                                                       14535   -5.70   -2.98  1.0000
  -1  -2  -1   16785     391                                                       14982   -5.70    2.98  1.0000
   1   2  -1   16534     379                                                       14743   -5.70    2.98  1.0000
  -1  -2  -1   16560     377                                                       14768   -5.70    2.98  1.0000
   1   2   1   16998     391                                                       15185   -5.70   -2.98  1.0000
   1   2   1   16062     376                                                       14295   -5.70   -2.98  1.0000
  -1  -2   1   13506     401                                                       11872   -5.70   -2.98  1.0000
   2   2  -1    4329     163                                                        5712   -4.73    2.62  1.0000
   2   2  -1    4268     178                                                        5641   -4.73    2.62  1.0000
  -2  -2  -1    4563     169                                                        5982   -4.73    2.62  1.0000
  -2  -2  -1    4366     166                                                        5754   -4.73    2.62  1.0000
  -2  -2   1    4295     178                                                        5673   -4.73   -2.62  1.0000
   2   2   1    4395     166                                                        5789   -4.73   -2.62  1.0000
   2   2   1    4305     168                                                        5685   -4.73   -2.62  1.0000
  -2  -2   1    4567     163                                                        5988   -4.73   -2.62  1.0000
   3   2  -1    4198     108                                                        3031   -3.69    1.03  1.0000
   3   2  -1    4005      92                                                        2867   -3.69    1.03  1.0000
   2  -3  -1    4114      81                                                        2960   -3.69   -1.03  1.0000
  -3  -2  -1    4229      99                                                        3057   -3.69    1.03  1.0000
   3   2   1    3865      98                                                        2749   -3.69   -1.03  1.0000
  -3  -2   1    3964      91                                                        2833   -3.69   -1.03  1.0000
  -3  -2   1    3958     104                                                        2828   -3.69   -1.03  1.0000
  -2   3   1    3982      82                                                        2848   -3.69    1.03  1.0000
   3   2   1    4110      98                                                        2956   -3.69   -1.03  1.0000
   3   1  -1    5200     152                                                        4784   -1.91   -0.26  1.0000
   3   1  -1    5079     133                                                        4668   -1.91   -0.26  1.0000
  -3  -1  -1    5032     142                                                        4623   -1.91   -0.26  1.0000
   1  -3  -1    5329     130                                                        4908   -1.91    0.26  1.0000
  -3  -1   1    5030     133                                                        4621   -1.91    0.26  1.0000
   3   1   1    5202     147                                                        4786   -1.91    0.26  1.0000
   3   1   1    5346     145                                                        4924   -1.91    0.26  1.0000
  -1   3   1    5246     130                                                        4829   -1.91   -0.26  1.0000
  -3  -1   1    4983     150                                                        4576   -1.91    0.26  1.0000
  -3   0  -1   14273     352                                                       13130    0.71   -1.89  1.0000
   3   0  -1   14008     338                                                       12875    0.72   -1.89  1.0000
   0  -3  -1   14314     362                                                       13169    0.71    1.89  1.0000
   0   3  -1   14076     377                                                       12941    0.72    1.89  1.0000
   3   0  -1   14106     372                                                       12969    0.72   -1.89  1.0000
   0  -3  -1   14441     344                                                       13291    0.71    1.89  1.0000
   0  -3   1   14584     353                                                       13428    0.72   -1.89  1.0000
  -3   0   1   14281     372                                                       13137    0.72    1.89  1.0000
   0   3   1   14257     343                                                       13114    0.71   -1.89  1.0000
  -3   0   1   14223     339                                                       13082    0.72    1.89  1.0000
   3   0   1   14652     354                                                       13493    0.71    1.89  1.0000
   0  -3   1   14515     377                                                       13362    0.72   -1.89  1.0000
   1   3  -1     250      22                                                         134    1.00    2.52  1.0000
  -1  -3  -1     312      21                                                         184    1.00    2.52  1.0000
   3  -1  -1     186      19                                                          84    1.00   -2.52  1.0000
   1   3  -1     311      27                                                         183    1.00    2.52  1.0000
  -1  -3  -1     294      19                                                         169    1.00    2.52  1.0000
   3  -1  -1     299      12                                                         173    1.00   -2.52  1.0000
  -1  -3   1     253      21                                                         136    1.00   -2.52  1.0000
  -1  -3   1     305      26                                                         178    1.00   -2.52  1.0000
  -2  -3  -1   12185     313                                                       11774   -1.10    2.01  1.0000
  -2  -3  -1   11187     301                                                       10792   -1.10    2.01  1.0000
   2   3  -1   11600     326                                                       11199   -1.10    2.01  1.0000
   2   3  -1   11522     302                                                       11122   -1.10    2.01  1.0000
   2   3   1   11274     313                                                       10877   -1.10   -2.01  1.0000
   2   3   1   11500     302                                                       11099   -1.10   -2.01  1.0000
  -2  -3   1   11142     299                                                       10747   -1.10   -2.01  1.0000
  -2  -3   1   11566     326                                                       11164   -1.10   -2.01  1.0000
  -3  -3  -1     345      40                                                         685   -2.61    1.45  1.0000
   3   3  -1     445      43                                                         823   -2.61    1.45  1.0000
   3   3  -1     344      47                                                         684   -2.61    1.45  1.0000
   3  -3  -1     382      26                                                         736   -2.61   -1.45  1.0000
   3   3   1     389      44                                                         747   -2.61   -1.45  1.0000
   3   3   1     425      43                                                         796   -2.61   -1.45  1.0000
   3  -4  -1    1710      65                                                        2214   -2.02   -1.14  1.0000
  -4  -3  -1    1604      84                                                        2094   -2.02    1.14  1.0000
   4   3  -1    1527      91                                                        2005   -2.02    1.14  1.0000
   4   3  -1    1705      80                                                        2209   -2.02    1.14  1.0000
  -4  -3   1    1669      91                                                        2168   -2.02   -1.14  1.0000
   4   3   1    1563      83                                                        2047   -2.02   -1.14  1.0000
   4   3   1    1621      86                                                        2113   -2.02   -1.14  1.0000
   2  -4  -1     271      23                                                         406   -1.50    0.01  1.0000
  -4  -2  -1     234      33                                                         360   -1.50   -0.01  1.0000
   4   2  -1     247      30                                                         377   -1.50   -0.01  1.0000
   4   2  -1     174      34                                                         285   -1.50   -0.01  1.0000
   4   2   1     293      38                                                         433   -1.50    0.01  1.0000
  -4  -2   1     226      36                                                         351   -1.50    0.01  1.0000
  -4  -2   1     234      30                                                         361   -1.50    0.01  1.0000
   4   2   1     262      35                                                         395   -1.50    0.01  1.0000
  -2   4   1     231      24                                                         357   -1.50   -0.01  1.0000
   1  -4  -1    8496     244                                                        9257    0.97    1.27  1.0000
   4   1  -1    8342     274                                                        9096    0.97   -1.27  1.0000
   4   1  -1    8465     246                                                        9225    0.97   -1.27  1.0000
   1  -4   1    8078     276                                                        8821    0.97   -1.27  1.0000
  -4  -1   1    8337     273                                                        9091    0.97    1.27  1.0000
  -4  -1   1    8254     246                                                        9004    0.97    1.27  1.0000
   4   1   1    8686     260                                                        9455    0.97    1.27  1.0000
   4   1   1    8352     270                                                        9107    0.97    1.27  1.0000
  -1   4   1    8254     244                                                        9004    0.97   -1.27  1.0000
   0  -4  -1   18902     594                                                       21664    3.41    1.81  1.0000
   0  -4  -1   18988     561                                                       21756    3.41    1.81  1.0000
   4   0  -1   18792     554                                                       21547    3.41   -1.81  1.0000
   0   4  -1   18992     611                                                       21760    3.41    1.81  1.0000
   4   0  -1   18742     604                                                       21493    3.41   -1.81  1.0000
   0   4   1   18927     561                                                       21692    3.41   -1.81  1.0000
   0  -4   1   19055     609                                                       21829    3.41   -1.81  1.0000
  -4   0   1   18695     603                                                       21442    3.41    1.81  1.0000
   4   0   1   19248     572                                                       22035    3.41    1.81  1.0000
  -4   0   1   18882     555                                                       21643    3.41    1.81  1.0000
   4  -1  -1     821      65                                                        1379    3.67   -1.47  1.0000
   4  -1  -1     839      46                                                        1403    3.67   -1.47  1.0000
  -1  -4  -1     890      59                                                        1469    3.67    1.47  1.0000
  -1  -4  -1     877      58                                                        1452    3.67    1.47  1.0000
   1   4  -1    1033      66                                                        1654    3.67    1.47  1.0000
   1   4  -1     924      71                                                        1513    3.67    1.47  1.0000
   1   4   1     843      57                                                        1408    3.67   -1.47  1.0000
  -1  -4   1     912      71                                                        1498    3.67   -1.47  1.0000
   1   4   1     943      61                                                        1538    3.67   -1.47  1.0000
  -4   1   1     884      48                                                        1461    3.67    1.47  1.0000
   4  -1   1     857      62                                                        1426    3.67    1.47  1.0000
  -2  -4  -1    4464     130                                                        4084    2.02    1.24  1.0000
   4  -2  -1    4338     108                                                        3963    2.02   -1.24  1.0000
   4  -2  -1    4315     136                                                        3941    2.02   -1.24  1.0000
   2   4  -1    4463     130                                                        4083    2.02    1.24  1.0000
   2   4  -1    4181     142                                                        3813    2.02    1.24  1.0000
  -2  -4   1    4614     143                                                        4228    2.02   -1.24  1.0000
   2   4   1    4266     127                                                        3894    2.02   -1.24  1.0000
   2   4   1    4559     133                                                        4175    2.02   -1.24  1.0000
  -3  -4  -1    1514      62                                                        1410    0.23    1.69  1.0000
   3   4  -1    1352      70                                                        1253    0.23    1.69  1.0000
   3   4  -1    1438      61                                                        1337    0.23    1.69  1.0000
   3   4   1    1506      64                                                        1403    0.23   -1.69  1.0000
  -3  -4   1    1414      69                                                        1314    0.23   -1.69  1.0000
   3   4   1    1493      62                                                        1390    0.23   -1.69  1.0000
  -4  -4  -1     560      37                                                         420   -0.99    1.90  1.0000
   4   4  -1     419      39                                                         296   -0.99    1.90  1.0000
   4   4  -1     646      43                                                         496   -0.99    1.90  1.0000
   4  -4  -1     561      23                                                         421   -0.99   -1.90  1.0000
   4   4   1     578      41                                                         436   -0.99   -1.90  1.0000
  -4  -4   1     503      41                                                         370   -0.99   -1.90  1.0000
   4   4   1     529      39                                                         393   -0.99   -1.90  1.0000
  -5  -4  -1    3362     144                                                        4053   -1.98    1.06  1.0000
   4  -5  -1    3428     117                                                        4126   -1.98   -1.06  1.0000
   5   4  -1    3410     136                                                        4106   -1.98    1.06  1.0000
   5   4   1    3299     146                                                        3984   -1.98   -1.06  1.0000
  -5  -4   1    3245     151                                                        3925   -1.98   -1.06  1.0000
   5   4   1    3291     140                                                        3975   -1.98   -1.06  1.0000
   5   3  -1    1189      63                                                        1031   -0.94    0.39  1.0000
   3  -5  -1    1091      39                                                         939   -0.94   -0.39  1.0000
  -5  -3  -1    1052      54                                                         903   -0.94    0.39  1.0000
   5   3  -1    1089      49                                                         938   -0.94    0.39  1.0000
   5   3   1    1063      57                                                         913   -0.94   -0.39  1.0000
  -5  -3   1     977      57                                                         834   -0.94   -0.39  1.0000
   5   3   1    1183      57                                                        1025   -0.94   -0.39  1.0000
   5   2  -1     689      51                                                         591    0.81   -0.48  1.0000
   5   2  -1     685      37                                                         587    0.81   -0.48  1.0000
   2  -5  -1     777      34                                                         673    0.81    0.48  1.0000
  -5  -2  -1     715      43                                                         615    0.81   -0.48  1.0000
   5   2   1     751      44                                                         648    0.81    0.48  1.0000
  -2   5   1     737      35                                                         635    0.81   -0.48  1.0000
   5   2   1     795      45                                                         689    0.81    0.48  1.0000
   1  -5  -1    2768      83                                                        2162    2.78    1.05  1.0000
   1  -5  -1    2630      71                                                        2040    2.78    1.05  1.0000
   5   1  -1    2721      72                                                        2120    2.78   -1.05  1.0000
  -5  -1   1    2676      89                                                        2080    2.78    1.05  1.0000
   5   1   1    2616      87                                                        2027    2.78    1.05  1.0000
  -5  -1   1    2592      73                                                        2006    2.78    1.05  1.0000
   1  -5   1    2673      92                                                        2078    2.78   -1.05  1.0000
  -1   5   1    2675      72                                                        2079    2.78   -1.05  1.0000
   5   1   1    2484      81                                                        1911    2.78    1.05  1.0000
   5   0  -1     808      49                                                         739    4.27   -0.87  1.0000
   0   5  -1     812      59                                                         744    4.27    0.87  1.0000
   0  -5  -1     799      43                                                         730    4.27    0.87  1.0000
   5   0  -1     779      34                                                         709    4.27   -0.87  1.0000
   0  -5   1     741      50                                                         670    4.27   -0.87  1.0000
   5   0   1     842      49                                                         775    4.27    0.87  1.0000
   0   5   1     788      40                                                         719    4.27   -0.87  1.0000
  -5   0   1     931      51                                                         867    4.27    0.87  1.0000
   5   0   1     838      46                                                         771    4.27    0.87  1.0000
  -5   0   1     797      36                                                         728    4.27    0.87  1.0000
   5  -1  -1    9743     237                                                        7557    4.89   -0.54  1.0000
  -1  -5  -1    9445     227                                                        7293    4.89    0.54  1.0000
   5  -1  -1    9791     203                                                        7599    4.89   -0.54  1.0000
   1   5  -1    9867     225                                                        7665    4.89    0.54  1.0000
   1   5  -1    9592     243                                                        7423    4.89    0.54  1.0000
   1   5   1    9712     216                                                        7529    4.89   -0.54  1.0000
  -1  -5   1    9718     241                                                        7535    4.89   -0.54  1.0000
  -5   1   1    9797     205                                                        7603    4.89    0.54  1.0000
   5  -1   1    9861     223                                                        7660    4.89    0.54  1.0000
   1   5   1    9879     231                                                        7677    4.89   -0.54  1.0000
   5  -2  -1    2075      51                                                        1492    4.48   -1.00  1.0000
   5  -2  -1    2242      75                                                        1637    4.48   -1.00  1.0000
   2   5  -1    2053      79                                                        1471    4.48    1.00  1.0000
   2   5  -1    2120      70                                                        1530    4.48    1.00  1.0000
  -2  -5  -1    2131      68                                                        1539    4.48    1.00  1.0000
   5  -2   1    2219      71                                                        1616    4.48    1.00  1.0000
   2   5   1    2181      71                                                        1584    4.48   -1.00  1.0000
   2   5   1    2073      65                                                        1490    4.48   -1.00  1.0000
  -2  -5   1    2183      79                                                        1586    4.48   -1.00  1.0000
   5  -3  -1     516      18                                                         206    2.81   -1.97  1.0000
   3   5  -1     626      33                                                         278    2.81    1.97  1.0000
   3   5  -1     679      40                                                         314    2.81    1.97  1.0000
  -3  -5  -1     519      28                                                         208    2.81    1.97  1.0000
   3   5   1     479      28                                                         183    2.81   -1.97  1.0000
   3   5   1     581      33                                                         248    2.81   -1.97  1.0000
  -3  -5   1     579      35                                                         247    2.81   -1.97  1.0000
   4   5  -1    4923     162                                                        4941    0.16    2.22  1.0000
  -4  -5  -1    5250     170                                                        5269    0.16    2.22  1.0000
   4   5  -1    5094     183                                                        5112    0.16    2.22  1.0000
  -4  -5   1    4986     179                                                        5003    0.16   -2.22  1.0000
   4   5   1    4876     170                                                        4893    0.16   -2.22  1.0000
   4   5   1    4736     162                                                        4752    0.16   -2.22  1.0000
  -5  -5  -1    1151      77                                                        1527   -2.12    1.46  1.0000
   5  -5  -1    1224      57                                                        1612   -2.12   -1.46  1.0000
   5   5  -1    1245      89                                                        1636   -2.12    1.46  1.0000
   5   5  -1    1296      78                                                        1694   -2.12    1.46  1.0000
   5   5   1    1178      77                                                        1558   -2.12   -1.46  1.0000
   5   5   1    1293      83                                                        1691   -2.12   -1.46  1.0000
  -5  -5   1    1275      87                                                        1670   -2.12   -1.46  1.0000
  -6  -5  -1     482      58                                                         820   -2.80    0.57  1.0000
   6   5  -1     589      58                                                         958   -2.80    0.57  1.0000
   6   5  -1     425      70                                                         744   -2.80    0.57  1.0000
   5  -6  -1     507      40                                                         853   -2.80   -0.57  1.0000
  -6  -5   1     602      67                                                         975   -2.80   -0.57  1.0000
   6   5   1     515      58                                                         863   -2.80   -0.57  1.0000
   6   5   1     550      62                                                         909   -2.80   -0.57  1.0000
   6   4  -1    2217      80                                                        1836   -2.57   -0.13  1.0000
  -6  -4  -1    1991      83                                                        1630   -2.57   -0.13  1.0000
   4  -6  -1    2182      64                                                        1804   -2.57    0.13  1.0000
   6   4  -1    2186      95                                                        1808   -2.57   -0.13  1.0000
  -6  -4   1    2094      89                                                        1724   -2.57    0.13  1.0000
   6   4   1    2252      85                                                        1868   -2.57    0.13  1.0000
   6   4   1    2305      90                                                        1917   -2.57    0.13  1.0000
   6   3  -1    1283      70                                                        1113   -0.87   -0.74  1.0000
  -6  -3  -1    1272      63                                                        1103   -0.87   -0.74  1.0000
   6   3  -1    1292      57                                                        1122   -0.87   -0.74  1.0000
   3  -6  -1    1324      48                                                        1152   -0.87    0.74  1.0000
  -6  -3   1    1167      65                                                        1005   -0.87    0.74  1.0000
   6   3   1    1190      60                                                        1027   -0.87    0.74  1.0000
   6   3   1    1178      63                                                        1016   -0.87    0.74  1.0000
   6   2  -1    1037      44                                                         783    1.49   -1.09  1.0000
  -6  -2  -1     850      48                                                         621    1.49   -1.09  1.0000
   6   2  -1    1190      60                                                         917    1.49   -1.09  1.0000
  -2   6   1     999      43                                                         750    1.49   -1.09  1.0000
   2  -6   1    1106      61                                                         843    1.49   -1.09  1.0000
   6   2   1    1044      52                                                         789    1.49    1.09  1.0000
   6   2   1     929      57                                                         689    1.49    1.09  1.0000
  -6  -2   1     934      53                                                         693    1.49    1.09  1.0000
   6   1  -1    1029      80                                                        1600    3.54   -0.95  1.0000
   1  -6  -1     931      71                                                        1477    3.54    0.95  1.0000
   6   1  -1    1063      64                                                        1643    3.54   -0.95  1.0000
  -1   6   1    1012      65                                                        1579    3.54   -0.95  1.0000
   1  -6   1    1077      84                                                        1661    3.54   -0.95  1.0000
   6   1   1    1003      75                                                        1568    3.54    0.95  1.0000
  -6  -1   1    1001      79                                                        1565    3.54    0.95  1.0000
   0  -6  -1    1970      71                                                        1579    5.05    0.46  1.0000
   6   0  -1    1722      75                                                        1348    5.05   -0.46  1.0000
   0   6  -1    1781      72                                                        1403    5.05    0.46  1.0000
   6   0  -1    1828      57                                                        1446    5.05   -0.46  1.0000
  -6   0   1    1703      58                                                        1330    5.05    0.46  1.0000
  -6   0   1    1837      75                                                        1455    5.05    0.46  1.0000
   0   6   1    1826      63                                                        1444    5.05   -0.46  1.0000
   0  -6   1    1879      78                                                        1494    5.05   -0.46  1.0000
   6   0   1    1850      75                                                        1467    5.05    0.46  1.0000
   6   0   1    1859      72                                                        1475    5.05    0.46  1.0000
   6  -1  -1    4100     186                                                        5339    6.07   -0.37  1.0000
   1   6  -1    4154     176                                                        5405    6.07    0.37  1.0000
   6  -1  -1    4194     154                                                        5448    6.07   -0.37  1.0000
  -1  -6  -1    4495     179                                                        5799    6.07    0.37  1.0000
   1   6   1    4000     166                                                        5223    6.07   -0.37  1.0000
   1   6   1    4270     180                                                        5536    6.07   -0.37  1.0000
   6  -1   1    4195     174                                                        5452    6.07    0.37  1.0000
  -1  -6   1    4062     189                                                        5295    6.07   -0.37  1.0000
  -6   1   1    4057     156                                                        5292    6.07    0.37  1.0000
   6  -2  -1    1160      44                                                         411    5.96   -1.01  1.0000
  -2  -6  -1    1063      37                                                         352    5.96    1.01  1.0000
   2   6  -1    1029      44                                                         332    5.96    1.01  1.0000
   2   6  -1    1272      47                                                         481    5.96    1.01  1.0000
   6  -2  -1    1181      26                                                         424    5.96   -1.01  1.0000
   6  -2   1    1386      49                                                         554    5.96    1.01  1.0000
   2   6   1    1118      38                                                         385    5.96   -1.01  1.0000
  -2  -6   1    1006      43                                                         318    5.96   -1.01  1.0000
   2   6   1    1191      41                                                         430    5.96   -1.01  1.0000
   3   6  -1    3860     175                                                        4517    3.97    1.71  1.0000
   3   6  -1    4149     159                                                        4832    3.97    1.71  1.0000
  -3  -6  -1    3997     161                                                        4666    3.97    1.71  1.0000
   6  -3  -1    4243     135                                                        4935    3.97   -1.71  1.0000
   6  -3   1    4216     157                                                        4906    3.97    1.71  1.0000
   3   6   1    3917     155                                                        4579    3.97   -1.71  1.0000
   3   6   1    3775     162                                                        4424    3.97   -1.71  1.0000
   4   6  -1    2101     105                                                        2547    0.89    1.77  1.0000
  -4  -6  -1    1975     105                                                        2408    0.89    1.77  1.0000
   4   6  -1    2167     119                                                        2620    0.89    1.77  1.0000
   6  -4  -1    2245      83                                                        2705    0.89   -1.77  1.0000
   4   6   1    2162     111                                                        2614    0.89   -1.77  1.0000
   4   6   1    2103     104                                                        2549    0.89   -1.77  1.0000
  -4  -6   1    2163     117                                                        2615    0.89   -1.77  1.0000
   5   6  -1     499      68                                                         690   -1.31    1.41  1.0000
   5   6  -1     565      61                                                         768   -1.31    1.41  1.0000
  -5  -6  -1     575      54                                                         780   -1.31    1.41  1.0000
  -5  -6   1     547      66                                                         747   -1.31   -1.41  1.0000
   5   6   1     536      55                                                         734   -1.31   -1.41  1.0000
   5   6   1     523      60                                                         718   -1.31   -1.41  1.0000
   6  -6  -1     200      21                                                         172   -1.71   -1.10  1.0000
  -6  -6  -1     163      31                                                         135   -1.71    1.10  1.0000
   6   6  -1     148      35                                                         120   -1.71    1.10  1.0000
   6   6  -1     215      36                                                         187   -1.71    1.10  1.0000
  -6  -6   1     147      33                                                         119   -1.71   -1.10  1.0000
   6   6   1     174      35                                                         146   -1.71   -1.10  1.0000
   6   6   1     190      33                                                         162   -1.71   -1.10  1.0000
   7   6  -1      48      24                                                          14   -1.13    0.80  1.0000
  -7  -6  -1      44      23                                                          12   -1.13    0.80  1.0000
   7   6  -1      83      29                                                          36   -1.13    0.80  1.0000
   7   6   1      43      22                                                          11   -1.13   -0.80  1.0000
   7   6   1      66      27                                                          25   -1.13   -0.80  1.0000
  -7  -6   1      12      21                                                          -5   -1.13   -0.80  1.0000
  -7  -5  -1     205      38                                                         260   -2.14    0.13  1.0000
   7   5  -1     162      41                                                         208   -2.14    0.13  1.0000
   7   5  -1     172      37                                                         220   -2.14    0.13  1.0000
   7   5   1     211      41                                                         267   -2.14   -0.13  1.0000
   7   5   1     155      38                                                         199   -2.14   -0.13  1.0000
  -7  -5   1     201      41                                                         255   -2.14   -0.13  1.0000
   7   4  -1     322      42                                                         233   -2.24   -0.66  1.0000
   7   4  -1     296      33                                                         209   -2.24   -0.66  1.0000
  -7  -4  -1     435      43                                                         335   -2.24   -0.66  1.0000
   7   4   1     315      38                                                         226   -2.24    0.66  1.0000
  -7  -4   1     281      37                                                         196   -2.24    0.66  1.0000
   7   4   1     296      36                                                         209   -2.24    0.66  1.0000
  -7  -3  -1    1137      59                                                         879   -1.08   -1.29  1.0000
   7   3  -1    1167      66                                                         905   -1.08   -1.29  1.0000
   7   3  -1    1172      53                                                         910   -1.08   -1.29  1.0000
  -7  -3   1    1372      68                                                        1087   -1.08    1.29  1.0000
   7   3   1    1016      55                                                         773   -1.08    1.29  1.0000
   7   3   1    1050      61                                                         803   -1.08    1.29  1.0000
   7   2  -1     606      41                                                         608    0.86   -1.54  1.0000
   7   2  -1     573      57                                                         574    0.86   -1.54  1.0000
   2  -7  -1     553      51                                                         553    0.86    1.54  1.0000
  -2   7   1     646      42                                                         649    0.86   -1.54  1.0000
   7   2   1     671      55                                                         674    0.86    1.54  1.0000
  -7  -2   1     644      60                                                         646    0.86    1.54  1.0000
   2  -7   1     533      57                                                         533    0.86   -1.54  1.0000
   7   2   1     608      57                                                         610    0.86    1.54  1.0000
   7   1  -1    1054      57                                                         608    2.86   -1.36  1.0000
   7   1  -1    1264      43                                                         770    2.86   -1.36  1.0000
   1  -7  -1    1093      55                                                         638    2.86    1.36  1.0000
  -1   7   1    1088      43                                                         634    2.86   -1.36  1.0000
   7   1   1    1262      63                                                         769    2.86    1.36  1.0000
   7   1   1    1184      57                                                         708    2.86    1.36  1.0000
  -7  -1   1    1281      57                                                         784    2.86    1.36  1.0000
   1  -7   1    1215      66                                                         732    2.86   -1.36  1.0000
   0  -7  -1    3282     161                                                        4724    4.53    1.08  1.0000
   7   0  -1    3045     139                                                        4438    4.53   -1.08  1.0000
   0   7  -1    3111     160                                                        4518    4.53    1.08  1.0000
   7   0  -1    3109     169                                                        4515    4.53   -1.08  1.0000
   0  -7   1    3090     171                                                        4493    4.53   -1.08  1.0000
   7   0   1    3127     156                                                        4537    4.53    1.08  1.0000
   0   7   1    3163     147                                                        4581    4.53   -1.08  1.0000
  -7   0   1    3104     168                                                        4510    4.53    1.08  1.0000
   1   7  -1    4687     211                                                        6619    5.49    1.04  1.0000
   1   7  -1    4706     231                                                        6641    5.49    1.04  1.0000
   7  -1  -1    4600     223                                                        6517    5.49   -1.04  1.0000
   7  -1  -1    4566     187                                                        6476    5.49   -1.04  1.0000
  -1  -7  -1    4490     213                                                        6384    5.49    1.04  1.0000
  -1  -7   1    4811     228                                                        6768    5.49   -1.04  1.0000
   7  -1   1    4660     207                                                        6587    5.49    1.04  1.0000
   7  -1   1    4652     225                                                        6577    5.49    1.04  1.0000
  -7   1   1    4427     189                                                        6308    5.49    1.04  1.0000
   1   7   1    4617     200                                                        6537    5.49   -1.04  1.0000
   1   7   1    4672     217                                                        6603    5.49   -1.04  1.0000
   2   7  -1      84      32                                                         149    5.06    1.10  1.0000
   7  -2  -1      78      18                                                          99    5.06   -1.10  1.0000
  -2  -7  -1      79      24                                                          86    5.06    1.10  1.0000
   2   7  -1      78      31                                                          95    5.06    1.10  1.0000
   7  -2  -1      89      25                                                          42    5.06   -1.10  1.0000
   2   7   1      79      25                                                          85    5.06   -1.10  1.0000
  -2  -7   1      79      30                                                         110    5.06   -1.10  1.0000
   7  -2   1      82      26                                                          62    5.06    1.10  1.0000
   2   7   1      81      26                                                         130    5.06   -1.10  1.0000
  -3  -7  -1    2267     116                                                        2880    3.25    0.93  1.0000
   7  -3  -1    2193      90                                                        2797    3.25   -0.93  1.0000
   3   7  -1    2249     129                                                        2860    3.25    0.93  1.0000
   7  -3  -1    2241     123                                                        2852    3.25   -0.93  1.0000
   3   7  -1    2230     115                                                        2838    3.25    0.93  1.0000
  -3  -7   1    2111     125                                                        2703    3.25   -0.93  1.0000
   3   7   1    2226     112                                                        2834    3.25   -0.93  1.0000
   7  -3   1    2273     112                                                        2887    3.25    0.93  1.0000
   3   7   1    2375     121                                                        3004    3.25   -0.93  1.0000
   4   7  -1     285      40                                                         179    1.18    0.73  1.0000
  -4  -7  -1     228      29                                                         134    1.18    0.73  1.0000
   4   7  -1     209      29                                                         120    1.18    0.73  1.0000
   7  -4  -1     245      20                                                         147    1.18   -0.73  1.0000
   4   7   1     285      33                                                         179    1.18   -0.73  1.0000
  -4  -7   1     243      36                                                         146    1.18   -0.73  1.0000
   4   7   1     346      37                                                         228    1.18   -0.73  1.0000
   5   7  -1     776      69                                                         664    0.01    0.83  1.0000
   7  -5  -1     580      32                                                         484    0.01   -0.83  1.0000
   5   7  -1     620      54                                                         520    0.01    0.83  1.0000
  -5  -7  -1     646      53                                                         544    0.01    0.83  1.0000
   5   7   1     623      57                                                         523    0.01   -0.83  1.0000
  -5  -7   1     508      53                                                         418    0.01   -0.83  1.0000
   5   7   1     659      54                                                         556    0.01   -0.83  1.0000
   6   7  -1     200      46                                                         232   -0.22    1.05  1.0000
  -6  -7  -1     136      35                                                         162   -0.22    1.05  1.0000
   7  -6  -1     154      23                                                         181   -0.22   -1.05  1.0000
   6   7  -1     179      40                                                         209   -0.22    1.05  1.0000
  -6  -7   1     174      41                                                         203   -0.22   -1.05  1.0000
   6   7   1     140      36                                                         166   -0.22   -1.05  1.0000
   6   7   1     161      36                                                         189   -0.22   -1.05  1.0000
   7   7  -1      26      30                                                          47   -0.04    0.96  1.0000
   7   7  -1      58      37                                                          89   -0.04    0.96  1.0000
  -7  -7  -1      37      28                                                          62   -0.04    0.96  1.0000
   7   7   1      92      37                                                         131   -0.04   -0.96  1.0000
   7   7   1      68      31                                                         101   -0.04   -0.96  1.0000
  -7  -7   1      53      33                                                          82   -0.04   -0.96  1.0000
   8   7  -1     327      59                                                         356    0.26    0.65  1.0000
   8   7  -1     315      52                                                         344    0.26    0.65  1.0000
  -8  -7  -1     266      49                                                         292    0.26    0.65  1.0000
  -8  -7   1     253      52                                                         279    0.26   -0.65  1.0000
   8   7   1     296      52                                                         324    0.26   -0.65  1.0000
   8   7   1     260      48                                                         286    0.26   -0.65  1.0000
   8   6  -1     211      39                                                         192   -0.54    0.39  1.0000
   8   6  -1     168      43                                                         150   -0.54    0.39  1.0000
  -8  -6  -1     282      44                                                         260   -0.54    0.39  1.0000
   8   6   1     294      48                                                         271   -0.54   -0.39  1.0000
  -8  -6   1     168      38                                                         150   -0.54   -0.39  1.0000
   8   6   1     171      37                                                         153   -0.54   -0.39  1.0000
   8   5  -1     134      45                                                         211   -1.15   -0.11  1.0000
  -8  -5  -1     145      41                                                         225   -1.15   -0.11  1.0000
   8   5  -1     197      42                                                         288   -1.15   -0.11  1.0000
  -8  -5   1     162      44                                                         245   -1.15    0.11  1.0000
   8   5   1     132      39                                                         208   -1.15    0.11  1.0000
   8   5   1     110      39                                                         180   -1.15    0.11  1.0000
   8   4  -1     563      72                                                         693   -1.15   -0.66  1.0000
   8   4  -1     492      56                                                         614   -1.15   -0.66  1.0000
  -8  -4  -1     496      59                                                         618   -1.15   -0.66  1.0000
   8   4   1     497      63                                                         619   -1.15    0.66  1.0000
   8   4   1     489      60                                                         610   -1.15    0.66  1.0000
  -8  -4   1     502      63                                                         625   -1.15    0.66  1.0000
   8   3  -1     132      29                                                         152   -0.51   -1.06  1.0000
  -8  -3  -1     149      34                                                         171   -0.51   -1.06  1.0000
   8   3  -1     137      37                                                         157   -0.51   -1.06  1.0000
   8   3   1     177      38                                                         202   -0.51    1.06  1.0000
  -8  -3   1      92      31                                                         107   -0.51    1.06  1.0000
   8   3   1     157      35                                                         180   -0.51    1.06  1.0000
   8   2  -1     556      44                                                         498    0.45   -1.24  1.0000
   2  -8  -1     469      47                                                         415    0.45    1.24  1.0000
   8   2  -1     464      52                                                         410    0.45   -1.24  1.0000
   2  -8   1     534      56                                                         477    0.45   -1.24  1.0000
  -2   8   1     489      43                                                         434    0.45   -1.24  1.0000
   8   2   1     511      50                                                         455    0.45    1.24  1.0000
   8   2   1     511      53                                                         455    0.45    1.24  1.0000
  -8  -2   1     496      51                                                         441    0.45    1.24  1.0000
   8   1  -1     881      50                                                         898    1.50   -1.31  1.0000
   8   1  -1     894      66                                                         912    1.50   -1.31  1.0000
   1  -8  -1     731      63                                                         744    1.50    1.31  1.0000
   8   1   1     869      58                                                         886    1.50    1.31  1.0000
   1  -8   1     889      68                                                         907    1.50   -1.31  1.0000
  -8  -1   1     893      65                                                         910    1.50    1.31  1.0000
   8   1   1     747      67                                                         760    1.50    1.31  1.0000
  -1   8   1     830      53                                                         846    1.50   -1.31  1.0000
   8   0  -1    1428      87                                                        1508    2.34   -1.44  1.0000
   8   0  -1    1540      67                                                        1625    2.34   -1.44  1.0000
   0  -8  -1    1409      79                                                        1488    2.34    1.44  1.0000
   8   0   1    1426      86                                                        1506    2.34    1.44  1.0000
   8   0   1    1406      79                                                        1485    2.34    1.44  1.0000
   0   8   1    1412      72                                                        1492    2.34   -1.44  1.0000
   0  -8   1    1537      91                                                        1622    2.34   -1.44  1.0000
   1   8  -1     135      27                                                          53    2.49    1.46  1.0000
   8  -1  -1     112      17                                                          35    2.49   -1.46  1.0000
   8  -1  -1     101      24                                                          27    2.49   -1.46  1.0000
   1   8  -1     152      29                                                          66    2.49    1.46  1.0000
  -1  -8  -1     109      22                                                          33    2.49    1.46  1.0000
   8  -1   1     134      23                                                          52    2.49    1.46  1.0000
   1   8   1     102      22                                                          28    2.49   -1.46  1.0000
   8  -1   1      78      22                                                          11    2.49    1.46  1.0000
  -1  -8   1     144      27                                                          60    2.49   -1.46  1.0000
   2   8  -1     179      29                                                          68    1.86    1.03  1.0000
   8  -2  -1     176      29                                                          66    1.86   -1.03  1.0000
  -2  -8  -1     212      27                                                          89    1.86    1.03  1.0000
   2   8  -1     252      35                                                         116    1.86    1.03  1.0000
   8  -2  -1     242      21                                                         109    1.86   -1.03  1.0000
   2   8   1     216      29                                                          92    1.86   -1.03  1.0000
   8  -2   1     269      30                                                         128    1.86    1.03  1.0000
   2   8   1     212      27                                                          89    1.86   -1.03  1.0000
  -2  -8   1     199      31                                                          81    1.86   -1.03  1.0000
  -3  -8  -1    1694      79                                                        1464    1.12    0.33  1.0000
   8  -3  -1    1494      55                                                        1279    1.12   -0.33  1.0000
   3   8  -1    1640      79                                                        1414    1.12    0.33  1.0000
   3   8  -1    1555      86                                                        1335    1.12    0.33  1.0000
   8  -3  -1    1511      82                                                        1295    1.12   -0.33  1.0000
   3   8   1    1546      74                                                        1327    1.12   -0.33  1.0000
   3   8   1    1671      80                                                        1443    1.12   -0.33  1.0000
   8  -3   1    1460      71                                                        1247    1.12    0.33  1.0000
  -3  -8   1    1624      85                                                        1399    1.12   -0.33  1.0000
   8  -4  -1      72      19                                                          83    0.88    0.02  1.0000
  -4  -8  -1      89      29                                                         102    0.88   -0.02  1.0000
   4   8  -1      83      30                                                          95    0.88   -0.02  1.0000
   4   8  -1     107      36                                                         121    0.88   -0.02  1.0000
   8  -4  -1      44      30                                                          52    0.88    0.02  1.0000
   8  -4   1      50      26                                                          58    0.88   -0.02  1.0000
   4   8   1      48      26                                                          56    0.88    0.02  1.0000
  -4  -8   1     112      34                                                         127    0.88    0.02  1.0000
   4   8   1      49      26                                                          57    0.88    0.02  1.0000
   8  -5  -1     338      34                                                         429    0.90   -0.20  1.0000
  -5  -8  -1     262      47                                                         343    0.90    0.20  1.0000
   5   8  -1     280      50                                                         364    0.90    0.20  1.0000
   5   8  -1     349      60                                                         442    0.90    0.20  1.0000
   5   8   1     235      47                                                         312    0.90   -0.20  1.0000
   8  -5   1     296      47                                                         382    0.90    0.20  1.0000
  -5  -8   1     280      52                                                         364    0.90   -0.20  1.0000
   5   8   1     410      58                                                         510    0.90   -0.20  1.0000
   8  -6  -1     837      43                                                         728    0.75   -0.53  1.0000
  -6  -8  -1     883      70                                                         771    0.75    0.53  1.0000
   6   8  -1     925      84                                                         810    0.75    0.53  1.0000
   6   8  -1     847      70                                                         737    0.75    0.53  1.0000
   6   8   1     819      67                                                         711    0.75   -0.53  1.0000
   6   8   1     908      73                                                         794    0.75   -0.53  1.0000
  -6  -8   1     752      71                                                         649    0.75   -0.53  1.0000
  -7  -8  -1     304      51                                                         378    0.63    0.59  1.0000
   7   8  -1     346      63                                                         425    0.63    0.59  1.0000
   8  -7  -1     322      36                                                         398    0.63   -0.59  1.0000
   7   8  -1     256      52                                                         324    0.63    0.59  1.0000
  -7  -8   1     300      57                                                         374    0.63   -0.59  1.0000
   7   8   1     376      57                                                         458    0.63   -0.59  1.0000
   7   8   1     374      61                                                         456    0.63   -0.59  1.0000
   8   8  -1     935      77                                                         794    0.78    0.53  1.0000
   8   8  -1     819      81                                                         687    0.78    0.53  1.0000
  -8  -8  -1    1002      78                                                         856    0.78    0.53  1.0000
   8   8   1     974      82                                                         830    0.78   -0.53  1.0000
   8   8   1     923      77                                                         783    0.78   -0.53  1.0000
   9   8  -1     159      50                                                         206    0.66    0.56  1.0000
   9   8  -1     151      55                                                         197    0.66    0.56  1.0000
   9   8   1      75      44                                                         108    0.66   -0.56  1.0000
   9   8   1      99      44                                                         137    0.66   -0.56  1.0000
   9   7  -1     422      62                                                         357    0.43    0.48  1.0000
  -9  -7  -1     335      49                                                         277    0.43    0.48  1.0000
   9   7  -1     469      57                                                         400    0.43    0.48  1.0000
   9   7   1     426      60                                                         361    0.43   -0.48  1.0000
   9   7   1     356      53                                                         297    0.43   -0.48  1.0000
   9   6  -1     209      41                                                         201   -0.07    0.15  1.0000
  -9  -6  -1     267      47                                                         258   -0.07    0.15  1.0000
   9   6  -1     278      53                                                         269   -0.07    0.15  1.0000
   9   6   1     215      46                                                         207   -0.07   -0.15  1.0000
   9   6   1     181      42                                                         174   -0.07   -0.15  1.0000
  -9  -5  -1      21      25                                                          28   -0.23   -0.30  1.0000
   9   5  -1      29      32                                                          38   -0.23   -0.30  1.0000
   9   5  -1      19      26                                                          26   -0.23   -0.30  1.0000
  -9  -5   1       2      25                                                           4   -0.23    0.30  1.0000
   9   5   1       1      26                                                          -3   -0.23    0.30  1.0000
   9   5   1      28      28                                                          37   -0.23    0.30  1.0000
  -9  -4  -1     137      36                                                         136    0.10   -0.68  1.0000
   9   4  -1     210      36                                                         210    0.10   -0.68  1.0000
   9   4  -1     125      37                                                         124    0.10   -0.68  1.0000
   9   4   1     131      34                                                         130    0.10    0.68  1.0000
   9   4   1     143      37                                                         142    0.10    0.68  1.0000
  -9  -4   1     124      36                                                         123    0.10    0.68  1.0000
   9   3  -1     415      61                                                         486    0.50   -0.79  1.0000
  -9  -3  -1     655      69                                                         744    0.50   -0.79  1.0000
   9   3  -1     553      55                                                         635    0.50   -0.79  1.0000
   3  -9  -1     481      59                                                         557    0.50    0.79  1.0000
   3  -9   1     479      67                                                         555    0.50   -0.79  1.0000
  -9  -3   1     565      67                                                         647    0.50    0.79  1.0000
   9   3   1     480      59                                                         556    0.50    0.79  1.0000
   9   3   1     468      62                                                         543    0.50    0.79  1.0000
   9   2  -1     603      50                                                         703    0.64   -0.64  1.0000
   9   2  -1     761      78                                                         873    0.64   -0.64  1.0000
   2  -9  -1     681      70                                                         787    0.64    0.64  1.0000
   9   2   1     849      80                                                         967    0.64    0.64  1.0000
   9   2   1     702      68                                                         810    0.64    0.64  1.0000
   2  -9   1     685      76                                                         791    0.64   -0.64  1.0000
  -2   9   1     709      56                                                         817    0.64   -0.64  1.0000
  -9  -2   1     826      71                                                         943    0.64    0.64  1.0000
   1  -9  -1     362      46                                                         337    0.55    0.54  1.0000
   9   1  -1     289      46                                                         266    0.55   -0.54  1.0000
   9   1  -1     324      36                                                         300    0.55   -0.54  1.0000
   9   1   1     322      46                                                         298    0.55    0.54  1.0000
  -9  -1   1     304      46                                                         281    0.55    0.54  1.0000
   9   1   1     385      46                                                         359    0.55    0.54  1.0000
   1  -9   1     291      46                                                         268    0.55   -0.54  1.0000
  -1   9   1     274      37                                                         252    0.55   -0.54  1.0000
   9   0  -1     139      35                                                         116    0.17   -0.65  1.0000
   9   0  -1     109      23                                                          88    0.17   -0.65  1.0000
   0  -9  -1     139      33                                                         116    0.17    0.65  1.0000
   9   0   1      81      30                                                          63    0.17    0.65  1.0000
   0  -9   1     183      40                                                         156    0.17   -0.65  1.0000
   9   0   1     115      30                                                          94    0.17    0.65  1.0000
   0   9   1     114      27                                                          93    0.17   -0.65  1.0000
   9  -1  -1     712      46                                                         834   -0.54   -0.70  1.0000
   9  -1  -1     539      66                                                         646   -0.54   -0.70  1.0000
   1   9  -1     481      62                                                         582   -0.54    0.70  1.0000
  -1  -9  -1     623      65                                                         737   -0.54    0.70  1.0000
   1   9   1     669      62                                                         787   -0.54   -0.70  1.0000
   9  -1   1     653      65                                                         770   -0.54    0.70  1.0000
  -1  -9   1     658      76                                                         776   -0.54   -0.70  1.0000
   2   9  -1    2508     129                                                        2539   -1.08    0.43  1.0000
  -2  -9  -1    2397     111                                                        2427   -1.08    0.43  1.0000
   9  -2  -1    2374      88                                                        2404   -1.08   -0.43  1.0000
   2   9  -1    2111     109                                                        2139   -1.08    0.43  1.0000
   9  -2  -1    2416     121                                                        2447   -1.08   -0.43  1.0000
   9  -2   1    2254     105                                                        2283   -1.08    0.43  1.0000
   9  -2   1    2521     123                                                        2552   -1.08    0.43  1.0000
  -2  -9   1    2272     121                                                        2301   -1.08   -0.43  1.0000
   2   9   1    2432     115                                                        2463   -1.08   -0.43  1.0000
   2   9   1    2297     103                                                        2327   -1.08   -0.43  1.0000
   3   9  -1    2599     109                                                        2414   -0.74    0.03  1.0000
  -3  -9  -1    2300     103                                                        2126   -0.74    0.03  1.0000
   9  -3  -1    2169     109                                                        2000   -0.74   -0.03  1.0000
   9  -3  -1    2082      77                                                        1917   -0.74   -0.03  1.0000
   3   9  -1    2514     121                                                        2332   -0.74    0.03  1.0000
  -3  -9   1    2258     112                                                        2086   -0.74   -0.03  1.0000
   3   9   1    2132     105                                                        1965   -0.74   -0.03  1.0000
   3   9   1    2282      98                                                        2109   -0.74   -0.03  1.0000
   9  -3   1    2242      98                                                        2071   -0.74    0.03  1.0000
   9  -4  -1     589      36                                                         555    0.27    0.09  1.0000
  -4  -9  -1     543      55                                                         510    0.27   -0.09  1.0000
   4   9  -1     501      63                                                         469    0.27   -0.09  1.0000
   4   9  -1     530      58                                                         498    0.27   -0.09  1.0000
   9  -4  -1     492      58                                                         461    0.27    0.09  1.0000
  -4  -9   1     656      68                                                         620    0.27    0.09  1.0000
   4   9   1     687      62                                                         650    0.27    0.09  1.0000
   9  -4   1     574      55                                                         540    0.27   -0.09  1.0000
   4   9   1     623      61                                                         588    0.27    0.09  1.0000
   5   9  -1     323      53                                                         278    0.94    0.05  1.0000
   9  -5  -1     242      44                                                         202    0.94   -0.05  1.0000
  -5  -9  -1     227      39                                                         189    0.94    0.05  1.0000
   5   9  -1     336      47                                                         290    0.94    0.05  1.0000
   9  -5  -1     341      32                                                         294    0.94   -0.05  1.0000
   9  -5   1     330      44                                                         284    0.94    0.05  1.0000
  -5  -9   1     302      50                                                         258    0.94   -0.05  1.0000
   5   9   1     312      46                                                         267    0.94   -0.05  1.0000
   5   9   1     257      44                                                         216    0.94   -0.05  1.0000
   6   9  -1     422      63                                                         508    0.94    0.16  1.0000
   6   9  -1     422      69                                                         508    0.94    0.16  1.0000
  -6  -9  -1     452      62                                                         541    0.94    0.16  1.0000
   9  -6  -1     454      39                                                         543    0.94   -0.16  1.0000
  -6  -9   1     458      68                                                         547    0.94   -0.16  1.0000
   9  -6   1     430      56                                                         516    0.94    0.16  1.0000
   6   9   1     374      58                                                         455    0.94   -0.16  1.0000
   6   9   1     503      67                                                         596    0.94   -0.16  1.0000
  -7  -9  -1     166      40                                                         163    0.83    0.18  1.0000
   9  -7  -1     147      27                                                         144    0.83   -0.18  1.0000
   7   9  -1     157      44                                                         154    0.83    0.18  1.0000
   7   9  -1     194      51                                                         192    0.83    0.18  1.0000
   7   9   1     126      41                                                         123    0.83   -0.18  1.0000
   7   9   1     142      42                                                         139    0.83   -0.18  1.0000
   8   9  -1      49      39                                                          24    0.80    0.25  1.0000
   8   9  -1      39      36                                                          17    0.80    0.25  1.0000
  -8  -9  -1      93      34                                                          57    0.80    0.25  1.0000
   9  -8  -1     115      25                                                          74    0.80   -0.25  1.0000
   8   9   1     126      39                                                          83    0.80   -0.25  1.0000
   8   9   1     121      38                                                          79    0.80   -0.25  1.0000
   9   9  -1       2      33                                                         -20    0.32    0.40  1.0000
   9   9  -1      14      39                                                           6    0.32    0.40  1.0000
   9   9   1       2      36                                                         -20    0.32   -0.40  1.0000
   9   9   1       2      34                                                          -5    0.32   -0.40  1.0000
  10   9  -1     565      72                                                         551   -0.50    0.49  1.0000
  10   9   1     387      71                                                         375   -0.50   -0.49  1.0000
  10   9   1     451      65                                                         438   -0.50   -0.49  1.0000
  10   8  -1     478      72                                                         436   -0.11    0.54  1.0000
  10   8  -1     551      67                                                         506   -0.11    0.54  1.0000
  10   8   1     507      70                                                         464   -0.11   -0.54  1.0000
  10   8   1     447      65                                                         407   -0.11   -0.54  1.0000
  10   7  -1     334      66                                                         366    0.11    0.48  1.0000
  10   7  -1     278      52                                                         307    0.11    0.48  1.0000
  10   7   1     188      50                                                         212    0.11   -0.48  1.0000
  10   7   1     312      63                                                         343    0.11   -0.48  1.0000
  10   6  -1     113      43                                                         103    0.25    0.23  1.0000
  10   6  -1     161      39                                                         149    0.25    0.23  1.0000
  10   6   1     204      50                                                         191    0.25   -0.23  1.0000
  10   6   1     126      40                                                         115    0.25   -0.23  1.0000
 -10  -5  -1     155      44                                                         186    0.62   -0.21  1.0000
  10   5  -1     159      49                                                         191    0.62   -0.21  1.0000
  10   5  -1     166      42                                                         198    0.62   -0.21  1.0000
  10   5   1     186      46                                                         220    0.62    0.21  1.0000
  10   5   1     212      52                                                         249    0.62    0.21  1.0000
 -10  -4  -1      47      33                                                         101    1.06   -0.66  1.0000
  10   4  -1      54      39                                                         110    1.06   -0.66  1.0000
  10   4  -1      68      33                                                         130    1.06   -0.66  1.0000
   4 -10  -1      11      34                                                          42    1.06    0.66  1.0000
   4 -10   1      37      41                                                          85    1.06   -0.66  1.0000
  10   4   1      23      35                                                          64    1.06    0.66  1.0000
  10   4   1       3      31                                                          23    1.06    0.66  1.0000
  10   3  -1     536      73                                                         666    1.12   -0.76  1.0000
   3 -10  -1     540      68                                                         670    1.12    0.76  1.0000
  10   3  -1     503      57                                                         628    1.12   -0.76  1.0000
   3 -10   1     384      66                                                         494    1.12   -0.76  1.0000
 -10  -3   1     528      70                                                         657    1.12    0.76  1.0000
  10   3   1     499      70                                                         624    1.12    0.76  1.0000
  10   3   1     488      64                                                         612    1.12    0.76  1.0000
  10   2  -1     665      70                                                         610    0.75   -0.41  1.0000
   2 -10  -1     486      55                                                         438    0.75    0.41  1.0000
  10   2  -1     628      52                                                         574    0.75   -0.41  1.0000
  10   2   1     537      56                                                         487    0.75    0.41  1.0000
  -2  10   1     590      54                                                         538    0.75   -0.41  1.0000
   2 -10   1     465      59                                                         418    0.75   -0.41  1.0000
 -10  -2   1     485      59                                                         437    0.75    0.41  1.0000
  10   2   1     475      60                                                         428    0.75    0.41  1.0000
   1 -10  -1     553      61                                                         552    0.16   -0.08  1.0000
  10   1  -1     509      47                                                         508    0.16    0.08  1.0000
  10   1  -1     497      64                                                         496    0.16    0.08  1.0000
  10   1   1     452      60                                                         451    0.16   -0.08  1.0000
  10   1   1     565      60                                                         564    0.16   -0.08  1.0000
  -1  10   1     656      60                                                         655    0.16    0.08  1.0000
   1 -10   1     544      65                                                         543    0.16    0.08  1.0000
   0 -10  -1     982      67                                                         893   -0.65   -0.42  1.0000
  10   0  -1     928      53                                                         841   -0.65    0.42  1.0000
  10   0  -1    1099      86                                                        1005   -0.65    0.42  1.0000
   0  10   1     808      65                                                         727   -0.65    0.42  1.0000
  10   0   1     849      77                                                         766   -0.65   -0.42  1.0000
   0 -10   1     956      83                                                         868   -0.65    0.42  1.0000
  10   0   1     894      69                                                         809   -0.65   -0.42  1.0000
  10  -1  -1     548      75                                                         733   -1.52    0.55  1.0000
   1  10  -1     374      64                                                         529   -1.52   -0.55  1.0000
  10  -1  -1     462      45                                                         633   -1.52    0.55  1.0000
  -1 -10  -1     592      70                                                         785   -1.52   -0.55  1.0000
  10  -1   1     472      70                                                         645   -1.52   -0.55  1.0000
  10  -1   1     493      64                                                         670   -1.52   -0.55  1.0000
   1  10   1     392      57                                                         550   -1.52    0.55  1.0000
  -1 -10   1     445      71                                                         613   -1.52    0.55  1.0000
   2  10  -1    1248      93                                                        1014   -1.79   -0.50  1.0000
  10  -2  -1    1527      60                                                        1268   -1.79    0.50  1.0000
  -2 -10  -1    1360      77                                                        1116   -1.79   -0.50  1.0000
  10  -2  -1    1398      87                                                        1151   -1.79    0.50  1.0000
   2  10  -1    1363      90                                                        1119   -1.79   -0.50  1.0000
  -2 -10   1    1436      88                                                        1185   -1.79    0.50  1.0000
  10  -2   1    1366      95                                                        1121   -1.79   -0.50  1.0000
   2  10   1    1336      71                                                        1094   -1.79    0.50  1.0000
   2  10   1    1296      80                                                        1058   -1.79    0.50  1.0000
  10  -2   1    1481      75                                                        1226   -1.79   -0.50  1.0000
  -3 -10  -1     157      33                                                          99   -1.09   -0.30  1.0000
   3  10  -1      30      29                                                           8   -1.09   -0.30  1.0000
  10  -3  -1     136      23                                                          82   -1.09    0.30  1.0000
   3  10  -1     146      39                                                          90   -1.09   -0.30  1.0000
  10  -3  -1     123      33                                                          72   -1.09    0.30  1.0000
   3  10   1     132      33                                                          79   -1.09    0.30  1.0000
  10  -3   1     103      30                                                          57   -1.09   -0.30  1.0000
   3  10   1      87      33                                                          45   -1.09    0.30  1.0000
  10  -3   1     178      38                                                         116   -1.09   -0.30  1.0000
  -3 -10   1     106      32                                                          59   -1.09    0.30  1.0000
  10  -4  -1    1231      60                                                        1227    0.01    0.05  1.0000
   4  10  -1    1440      91                                                        1435    0.01   -0.05  1.0000
  -4 -10  -1    1424      88                                                        1419    0.01   -0.05  1.0000
   4  10  -1    1153     102                                                        1149    0.01   -0.05  1.0000
  10  -4  -1    1211      89                                                        1207    0.01    0.05  1.0000
   4  10   1    1318      82                                                        1314    0.01    0.05  1.0000
  -4 -10   1    1172      89                                                        1168    0.01    0.05  1.0000
  10  -4   1    1392      80                                                        1387    0.01   -0.05  1.0000
   4  10   1    1233      85                                                        1229    0.01    0.05  1.0000
  -5 -10  -1    1267      82                                                        1173    0.63    0.08  1.0000
   5  10  -1    1414      97                                                        1315    0.63    0.08  1.0000
  10  -5  -1    1372      59                                                        1275    0.63   -0.08  1.0000
   5  10  -1    1322      85                                                        1226    0.63    0.08  1.0000
  10  -5  -1    1249      88                                                        1156    0.63   -0.08  1.0000
   5  10   1    1351      89                                                        1254    0.63   -0.08  1.0000
   5  10   1    1227      81                                                        1135    0.63   -0.08  1.0000
  10  -5   1    1456      81                                                        1356    0.63    0.08  1.0000
  10  -6  -1     601      42                                                         595    0.73   -0.07  1.0000
   6  10  -1     604      70                                                         598    0.73    0.07  1.0000
   6  10  -1     762      86                                                         755    0.73    0.07  1.0000
  -6 -10  -1     543      65                                                         537    0.73    0.07  1.0000
   6  10   1     520      68                                                         514    0.73   -0.07  1.0000
   6  10   1     598      67                                                         592    0.73   -0.07  1.0000
  10  -6   1     578      62                                                         572    0.73    0.07  1.0000
   7  10  -1     844      88                                                         949    0.69    0.07  1.0000
   7  10  -1     940     102                                                        1051    0.69    0.07  1.0000
  10  -7  -1     802      51                                                         905    0.69   -0.07  1.0000
  -7 -10  -1     704      82                                                         801    0.69    0.07  1.0000
  10  -7   1     798      76                                                         901    0.69    0.07  1.0000
   7  10   1     791      87                                                         893    0.69   -0.07  1.0000
   7  10   1     806      89                                                         909    0.69   -0.07  1.0000
   8  10  -1       1      35                                                         -23    0.40    0.13  1.0000
   8  10  -1      46      41                                                          34    0.40    0.13  1.0000
   8  10   1       1      34                                                         -18    0.40   -0.13  1.0000
   8  10   1       1      34                                                         -27    0.40   -0.13  1.0000
   9  10  -1      24      35                                                          31   -0.23    0.25  1.0000
   9  10   1       1      40                                                         -20   -0.23   -0.25  1.0000
   9  10   1      13      39                                                          18   -0.23   -0.25  1.0000
  10  10  -1      20      41                                                          19   -0.67    0.39  1.0000
  10  10   1      53      47                                                          55   -0.67   -0.39  1.0000
  10  10   1      43      44                                                          44   -0.67   -0.39  1.0000
  11  10  -1      24      44                                                          42   -0.38    0.51  1.0000
  11  10   1       0      43                                                           4   -0.38   -0.51  1.0000
  11   9  -1       5      40                                                         -20   -0.76    0.46  1.0000
  11   9   1      30      39                                                          16   -0.76   -0.46  1.0000
  11   8  -1     377      68                                                         469   -0.84    0.37  1.0000
  11   8   1     442      75                                                         541   -0.84   -0.37  1.0000
  11   8   1     621      89                                                         737   -0.84   -0.37  1.0000
  11   7  -1     226      57                                                         180   -0.53    0.35  1.0000
  11   7  -1     316      51                                                         261   -0.53    0.35  1.0000
  11   7   1     297      58                                                         244   -0.53   -0.35  1.0000
  11   7   1     227      48                                                         181   -0.53   -0.35  1.0000
  11   6  -1     387      55                                                         358    0.19    0.30  1.0000
  11   6  -1     544      77                                                         510    0.19    0.30  1.0000
  11   6   1     279      57                                                         255    0.19   -0.30  1.0000
  11   6   1     373      59                                                         345    0.19   -0.30  1.0000
  11   5  -1     181      48                                                         149    1.03    0.05  1.0000
  11   5  -1     176      40                                                         144    1.03    0.05  1.0000
  11   5   1     170      42                                                         139    1.03   -0.05  1.0000
  11   5   1     242      53                                                         205    1.03   -0.05  1.0000
   4 -11  -1     211      52                                                         256    1.39    0.33  1.0000
  11   4  -1     213      55                                                         259    1.39   -0.33  1.0000
  11   4  -1     204      45                                                         249    1.39   -0.33  1.0000
  11   4   1     304      55                                                         360    1.39    0.33  1.0000
  11   4   1     305      59                                                         362    1.39    0.33  1.0000
  11   3  -1      23      37                                                          48    1.11   -0.52  1.0000
  11   3  -1      32      31                                                          62    1.11   -0.52  1.0000
   3 -11  -1      15      32                                                          36    1.11    0.52  1.0000
  11   3   1      75      45                                                         121    1.11    0.52  1.0000
  11   3   1      45      39                                                          80    1.11    0.52  1.0000
   2 -11  -1     537      64                                                         516    0.56    0.34  1.0000
  11   2  -1     558      70                                                         536    0.56   -0.34  1.0000
  11   2  -1     486      51                                                         466    0.56   -0.34  1.0000
  -2  11   1     539      58                                                         518    0.56   -0.34  1.0000
  11   2   1     569      63                                                         547    0.56    0.34  1.0000
  11   2   1     521      67                                                         500    0.56    0.34  1.0000
  11   1  -1    1727     112                                                        1757    0.06    0.13  1.0000
  11   1  -1    1842      86                                                        1873    0.06    0.13  1.0000
   1 -11  -1    1645     104                                                        1674    0.06   -0.13  1.0000
  11   1   1    1901     115                                                        1932    0.06   -0.13  1.0000
   1 -11   1    1732     113                                                        1762    0.06    0.13  1.0000
  11   1   1    1755      98                                                        1785    0.06   -0.13  1.0000
  -1  11   1    1780      96                                                        1810    0.06    0.13  1.0000
  11   0  -1    1136      61                                                        1012   -0.48    0.65  1.0000
   0 -11  -1    1171      87                                                        1045   -0.48   -0.65  1.0000
  11   0  -1    1153      94                                                        1028   -0.48    0.65  1.0000
   0  11   1     963      75                                                         849   -0.48    0.65  1.0000
  11   0   1    1224      94                                                        1095   -0.48   -0.65  1.0000
   0 -11   1    1075      90                                                         955   -0.48    0.65  1.0000
  11   0   1    1246      76                                                        1116   -0.48   -0.65  1.0000
   1  11  -1      12      29                                                         -13   -0.98   -0.93  1.0000
  -1 -11  -1      12      27                                                         -20   -0.98   -0.93  1.0000
  11  -1  -1      59      24                                                          40   -0.98    0.93  1.0000
  11  -1  -1      23      31                                                           8   -0.98    0.93  1.0000
  11  -1   1      71      35                                                          51   -0.98   -0.93  1.0000
   1  11   1      31      28                                                          15   -0.98    0.93  1.0000
  11  -1   1      36      28                                                          19   -0.98   -0.93  1.0000
  -1 -11   1      56      35                                                          37   -0.98    0.93  1.0000
  11  -2  -1    1953      84                                                        1990   -1.03    0.84  1.0000
  11  -2  -1    1780     115                                                        1815   -1.03    0.84  1.0000
   2  11  -1    1717     108                                                        1752   -1.03   -0.84  1.0000
   2  11  -1    1951     124                                                        1989   -1.03   -0.84  1.0000
  -2 -11  -1    1781     106                                                        1817   -1.03   -0.84  1.0000
  11  -2   1    2043     103                                                        2082   -1.03   -0.84  1.0000
   2  11   1    1860     101                                                        1896   -1.03    0.84  1.0000
   3  11  -1      83      43                                                         103   -0.53   -0.52  1.0000
  11  -3  -1     298      59                                                         337   -0.53    0.52  1.0000
  -3 -11  -1     191      46                                                         222   -0.53   -0.52  1.0000
  11  -3  -1     167      31                                                         196   -0.53    0.52  1.0000
   3  11  -1     113      43                                                         136   -0.53   -0.52  1.0000
   3  11   1     138      45                                                         164   -0.53    0.52  1.0000
   3  11   1     175      43                                                         204   -0.53    0.52  1.0000
  11  -3   1     160      44                                                         188   -0.53   -0.52  1.0000
  11  -3   1     225      53                                                         259   -0.53   -0.52  1.0000
   4  11  -1     134      43                                                         124    0.06   -0.29  1.0000
  11  -4  -1      84      25                                                          76    0.06    0.29  1.0000
  11  -4  -1     120      41                                                         110    0.06    0.29  1.0000
   4  11  -1     105      44                                                          96    0.06   -0.29  1.0000
  -4 -11  -1     101      39                                                          92    0.06   -0.29  1.0000
   4  11   1      82      37                                                          74    0.06    0.29  1.0000
  11  -4   1      54      35                                                          47    0.06   -0.29  1.0000
   4  11   1     143      42                                                         132    0.06    0.29  1.0000
  11  -4   1      61      39                                                          54    0.06   -0.29  1.0000
  -5 -11  -1     329      55                                                         367    0.36   -0.24  1.0000
   5  11  -1     304      63                                                         341    0.36   -0.24  1.0000
  11  -5  -1     386      40                                                         427    0.36    0.24  1.0000
   5  11  -1     310      61                                                         347    0.36   -0.24  1.0000
  11  -5  -1     222      54                                                         253    0.36    0.24  1.0000
   5  11   1     388      65                                                         429    0.36    0.24  1.0000
   5  11   1     388      62                                                         429    0.36    0.24  1.0000
  11  -5   1     431      57                                                         474    0.36   -0.24  1.0000
   6  11  -1     323      56                                                         284    0.45   -0.19  1.0000
  11  -6  -1     283      57                                                         246    0.45    0.19  1.0000
  11  -6  -1     364      36                                                         322    0.45    0.19  1.0000
   6  11  -1     422      67                                                         377    0.45   -0.19  1.0000
  11  -6   1     334      51                                                         294    0.45   -0.19  1.0000
   6  11   1     301      56                                                         263    0.45    0.19  1.0000
   6  11   1     285      51                                                         248    0.45    0.19  1.0000
   7  11  -1     135      56                                                         154    0.34   -0.03  1.0000
  11  -7  -1     165      55                                                         185    0.34    0.03  1.0000
   7  11  -1     128      45                                                         146    0.34   -0.03  1.0000
   7  11   1     208      56                                                         231    0.34    0.03  1.0000
   7  11   1     180      50                                                         201    0.34    0.03  1.0000
  11  -7   1     140      43                                                         159    0.34   -0.03  1.0000
   8  11  -1       0      35                                                          -7   -0.07    0.14  1.0000
   8  11   1      11      34                                                          10   -0.07   -0.14  1.0000
  11  -8   1      12      34                                                          11   -0.07    0.14  1.0000
   8  11   1      21      39                                                          20   -0.07   -0.14  1.0000
   9  11  -1     555      82                                                         608   -0.48    0.26  1.0000
   9  11   1     548      81                                                         601   -0.48   -0.26  1.0000
  11  -9   1     549      68                                                         602   -0.48    0.26  1.0000
   9  11   1     682      92                                                         741   -0.48   -0.26  1.0000
  10  11  -1     199      55                                                         184   -0.38    0.37  1.0000
  11 -10   1     141      43                                                         128   -0.38    0.37  1.0000
  10  11   1     238      60                                                         221   -0.38   -0.37  1.0000
  11  11  -1      59      46                                                          50    0.12    0.42  1.0000
  11  11   1      80      44                                                          70    0.12   -0.42  1.0000
  12  11  -1       2      45                                                         -21    0.35    0.34  1.0000
  12  11   1       2      43                                                         -14    0.35   -0.34  1.0000
  12  10  -1     108      52                                                          90    0.21    0.44  1.0000
  12  10   1      16      45                                                           9    0.21   -0.44  1.0000
  12   9  -1     283      63                                                         275   -0.21    0.32  1.0000
  12   9   1     183      59                                                         176   -0.21   -0.32  1.0000
  12   8  -1      27      43                                                          48   -0.68    0.14  1.0000
  12   8   1       0      39                                                           3   -0.68   -0.14  1.0000
  12   7  -1     302      59                                                         367   -0.73    0.08  1.0000
  12   7   1     314      72                                                         380   -0.73   -0.08  1.0000
  12   7   1     342      66                                                         410   -0.73   -0.08  1.0000
  12   6  -1     230      50                                                         224   -0.13    0.11  1.0000
  12   6   1     313      63                                                         306   -0.13   -0.11  1.0000
  12   6   1     428      64                                                         420   -0.13   -0.11  1.0000
  12   5  -1     582      78                                                         537    0.63    0.11  1.0000
  12   5  -1     651      67                                                         604    0.63    0.11  1.0000
  12   5   1     680      73                                                         631    0.63   -0.11  1.0000
  12   5   1     716      85                                                         666    0.63   -0.11  1.0000
  12   4  -1     566      64                                                         570    0.88    0.07  1.0000
  12   4  -1     615      83                                                         619    0.88    0.07  1.0000
  12   4   1     564      77                                                         568    0.88   -0.07  1.0000
  12   4   1     697      76                                                         702    0.88   -0.07  1.0000
  12   3  -1     399      70                                                         436    0.57    0.02  1.0000
   3 -12  -1     333      60                                                         366    0.57   -0.02  1.0000
  12   3  -1     445      57                                                         484    0.57    0.02  1.0000
  12   3   1     281      59                                                         312    0.57   -0.02  1.0000
  12   3   1     396      62                                                         433    0.57   -0.02  1.0000
  12   2  -1     893      71                                                         863    0.20    0.02  1.0000
   2 -12  -1     783      80                                                         755    0.20   -0.02  1.0000
  12   2  -1     766      86                                                         738    0.20    0.02  1.0000
  12   2   1     999      96                                                         967    0.20   -0.02  1.0000
  12   2   1     807      77                                                         778    0.20   -0.02  1.0000
  12   1  -1     501      53                                                         490   -0.03    0.10  1.0000
  12   1  -1     588      78                                                         576   -0.03    0.10  1.0000
   1 -12  -1     405      62                                                         395   -0.03   -0.10  1.0000
  12   1   1     534      64                                                         523   -0.03   -0.10  1.0000
  -1  12   1     525      61                                                         514   -0.03    0.10  1.0000
  12   1   1     524      70                                                         513   -0.03   -0.10  1.0000
  12   0  -1     448      71                                                         471   -0.23    0.27  1.0000
   0 -12  -1     578      71                                                         604   -0.23   -0.27  1.0000
  12   0  -1     574      55                                                         600   -0.23    0.27  1.0000
  12   0   1     468      71                                                         492   -0.23   -0.27  1.0000
   0  12   1     583      66                                                         609   -0.23    0.27  1.0000
  12   0   1     487      63                                                         511   -0.23   -0.27  1.0000
  12  -1  -1     384      43                                                         334   -0.41    0.37  1.0000
   1  12  -1     364      59                                                         315   -0.41   -0.37  1.0000
  -1 -12  -1     377      54                                                         327   -0.41   -0.37  1.0000
  12  -1  -1     311      58                                                         266   -0.41    0.37  1.0000
  12  -1   1     486      68                                                         429   -0.41   -0.37  1.0000
  12  -1   1     344      51                                                         297   -0.41   -0.37  1.0000
   1  12   1     421      55                                                         368   -0.41    0.37  1.0000
  -2 -12  -1     118      42                                                         147   -0.39   -0.31  1.0000
  12  -2  -1     183      53                                                         219   -0.39    0.31  1.0000
  12  -2  -1     223      38                                                         262   -0.39    0.31  1.0000
   2  12  -1      83      44                                                         108   -0.39   -0.31  1.0000
   2  12   1     201      48                                                         238   -0.39    0.31  1.0000
  12  -2   1     200      54                                                         237   -0.39   -0.31  1.0000
  12  -2   1     164      45                                                         198   -0.39   -0.31  1.0000
  12  -3  -1     717      55                                                         766   -0.24    0.26  1.0000
   3  12  -1     876     100                                                         931   -0.24   -0.26  1.0000
   3  12  -1     927      94                                                         983   -0.24   -0.26  1.0000
  12  -3  -1     878      94                                                         933   -0.24    0.26  1.0000
  -3 -12  -1     899      87                                                         954   -0.24   -0.26  1.0000
  12  -3   1     691      74                                                         740   -0.24   -0.26  1.0000
   3  12   1     842      83                                                         896   -0.24    0.26  1.0000
  12  -3   1     852      93                                                         906   -0.24   -0.26  1.0000
  -4 -12  -1    1325      93                                                        1267   -0.17   -0.43  1.0000
   4  12  -1    1694     131                                                        1629   -0.17   -0.43  1.0000
   4  12  -1    1391     110                                                        1332   -0.17   -0.43  1.0000
  12  -4  -1    1248      64                                                        1192   -0.17    0.43  1.0000
  12  -4  -1    1208     107                                                        1153   -0.17    0.43  1.0000
   4  12   1    1360     109                                                        1302   -0.17    0.43  1.0000
   4  12   1    1400      90                                                        1341   -0.17    0.43  1.0000
  12  -4   1    1291      84                                                        1234   -0.17   -0.43  1.0000
  12  -4   1    1124     104                                                        1071   -0.17   -0.43  1.0000
   5  12  -1     729      93                                                         773   -0.12   -0.68  1.0000
   5  12  -1     766      88                                                         812   -0.12   -0.68  1.0000
  12  -5  -1     524      80                                                         561   -0.12    0.68  1.0000
  12  -5  -1     773      52                                                         819   -0.12    0.68  1.0000
  12  -5   1     672      72                                                         715   -0.12   -0.68  1.0000
   5  12   1     576      76                                                         615   -0.12    0.68  1.0000
  12  -5   1     719      90                                                         763   -0.12   -0.68  1.0000
   5  12   1     710      85                                                         754   -0.12    0.68  1.0000
   6  12  -1       8      38                                                          10   -0.04   -0.71  1.0000
   6  12  -1      27      44                                                          33   -0.04   -0.71  1.0000
  12  -6  -1      66      45                                                          77   -0.04    0.71  1.0000
   6  12   1      64      42                                                          75   -0.04    0.71  1.0000
  12  -6   1      38      37                                                          46   -0.04   -0.71  1.0000
   6  12   1       3      36                                                         -14   -0.04    0.71  1.0000
   7  12  -1     148      51                                                         146   -0.09   -0.42  1.0000
   7  12   1     109      48                                                         107   -0.09    0.42  1.0000
  12  -7   1     144      43                                                         142   -0.09   -0.42  1.0000
   7  12   1     161      53                                                         159   -0.09    0.42  1.0000
   8  12  -1     196      59                                                         215   -0.29    0.00  1.0000
   8  12   1     165      59                                                         182   -0.29   -0.00  1.0000
  12  -8   1     192      49                                                         211   -0.29    0.00  1.0000
   8  12   1     240      61                                                         261   -0.29   -0.00  1.0000
   9  12  -1      64      46                                                          48   -0.29    0.32  1.0000
   9  12   1      13      46                                                           6   -0.29   -0.32  1.0000
  12  -9   1     126      46                                                         103   -0.29    0.32  1.0000
  10  12  -1      79      55                                                          96    0.05    0.41  1.0000
  10  12   1      67      53                                                          82    0.05   -0.41  1.0000
  11  12  -1       1      48                                                          -8    0.36    0.28  1.0000
  11  12   1      40      45                                                          28    0.36   -0.28  1.0000
  13   9  -1     249      64                                                         277    0.33    0.12  1.0000
  13   9   1     100      57                                                         118    0.33   -0.12  1.0000
  13   8  -1      78      48                                                          77    0.03    0.00  1.0000
  13   8   1     105      53                                                         104    0.03   -0.00  1.0000
  13   7  -1     772      84                                                         738   -0.24   -0.11  1.0000
  13   7   1     986      99                                                         948   -0.24    0.11  1.0000
  13   6  -1     276      57                                                         301   -0.23   -0.17  1.0000
  13   6   1     407      69                                                         437   -0.23    0.17  1.0000
  13   5  -1      64      41                                                          67   -0.12   -0.08  1.0000
  13   5   1      63      41                                                          66   -0.12    0.08  1.0000
  13   4  -1      76      37                                                          83   -0.17    0.18  1.0000
  13   4   1      62      42                                                          69   -0.17   -0.18  1.0000
  13   3  -1      47      31                                                          35   -0.31    0.41  1.0000
  13   3   1     117      51                                                          98   -0.31   -0.41  1.0000
  13   3   1      40      37                                                          29   -0.31   -0.41  1.0000
  13   2  -1     565      59                                                         515   -0.39    0.42  1.0000
  13   2   1     497      64                                                         450   -0.39   -0.42  1.0000
  13   2   1     652      80                                                         598   -0.39   -0.42  1.0000
  13   1  -1     669      67                                                         730   -0.44    0.26  1.0000
  13   1   1     490      79                                                         542   -0.44   -0.26  1.0000
  -1  13   1     716      77                                                         779   -0.44    0.26  1.0000
  13   1   1     705      76                                                         767   -0.44   -0.26  1.0000
  13   0  -1      96      46                                                         103   -0.49    0.05  1.0000
  13   0  -1     174      38                                                         184   -0.49    0.05  1.0000
  13   0   1      19      34                                                          21   -0.49   -0.05  1.0000
   0  13   1     158      45                                                         167   -0.49    0.05  1.0000
  13   0   1      86      49                                                          92   -0.49   -0.05  1.0000
  13  -1  -1     346      44                                                         309   -0.40   -0.14  1.0000
  13  -1  -1     310      61                                                         275   -0.40   -0.14  1.0000
  13  -1   1     380      54                                                         341   -0.40    0.14  1.0000
   1  13   1     305      52                                                         270   -0.40   -0.14  1.0000
  13  -1   1     373      64                                                         335   -0.40    0.14  1.0000
  13  -2  -1     755      61                                                         766   -0.23   -0.28  1.0000
   2  13  -1     525      77                                                         534   -0.23    0.28  1.0000
  13  -2   1     658      72                                                         668   -0.23    0.28  1.0000
   2  13   1     660      75                                                         670   -0.23   -0.28  1.0000
   3  13  -1     448      71                                                         442   -0.27    0.21  1.0000
  13  -3  -1     431      47                                                         425   -0.27   -0.21  1.0000
  13  -3   1     521      65                                                         515   -0.27    0.21  1.0000
   3  13   1     502      66                                                         496   -0.27   -0.21  1.0000
   4  13  -1     965      99                                                         957   -0.56   -0.18  1.0000
   4  13   1    1229     102                                                        1220   -0.56    0.18  1.0000
  13  -4   1    1164      93                                                        1155   -0.56   -0.18  1.0000
   4  13   1    1161     107                                                        1152   -0.56    0.18  1.0000
   5  13  -1     381      67                                                         322   -0.78   -0.67  1.0000
   5  13   1     395      64                                                         335   -0.78    0.67  1.0000
   5  13   1     304      60                                                         251   -0.78    0.67  1.0000
  13  -5   1     538      64                                                         468   -0.78   -0.67  1.0000
   6  13  -1      31      39                                                          10   -0.69   -0.93  1.0000
  13  -6   1       9      35                                                         -16   -0.69   -0.93  1.0000
   6  13   1      66      41                                                          34   -0.69    0.93  1.0000
   6  13   1     113      44                                                          71   -0.69    0.93  1.0000
   7  13  -1      58      49                                                          82   -0.44   -0.75  1.0000
  13  -7   1      42      41                                                          62   -0.44   -0.75  1.0000
   7  13   1      21      43                                                          35   -0.44    0.75  1.0000
   7  13   1      23      48                                                          38   -0.44    0.75  1.0000
   8  13  -1      56      46                                                          58   -0.22   -0.24  1.0000
  13  -8   1      88      43                                                          91   -0.22   -0.24  1.0000
   8  13   1     148      54                                                         152   -0.22    0.24  1.0000
   9  13  -1     130      58                                                         137   -0.01    0.24  1.0000
   9  13   1      61      54                                                          66   -0.01   -0.24  1.0000
  14   8  -1      73      50                                                          76    0.37   -0.05  1.0000
  14   8   1      25      44                                                          27    0.37    0.05  1.0000
  14   7  -1     516      73                                                         483    0.29   -0.15  1.0000
  14   7   1     538      78                                                         504    0.29    0.15  1.0000
  14   6  -1     659      79                                                         661   -0.03   -0.26  1.0000
  14   6   1     769      91                                                         771   -0.03    0.26  1.0000
  14   5  -1     235      56                                                         275   -0.53   -0.19  1.0000
  14   5   1     308      66                                                         353   -0.53    0.19  1.0000
  14   4  -1      59      38                                                          68   -0.94    0.11  1.0000
  14   4   1      92      47                                                         105   -0.94   -0.11  1.0000
  14   3  -1      30      34                                                          10   -1.07    0.41  1.0000
  14   3   1      18      38                                                           3   -1.07   -0.41  1.0000
  14   2  -1      50      36                                                          87   -1.05    0.47  1.0000
  14   2   1      41      44                                                          74   -1.05   -0.47  1.0000
  14   1  -1       9      30                                                          35   -1.14    0.31  1.0000
  14   1   1       9      32                                                         -43   -1.14   -0.31  1.0000
  14   0  -1       2      31                                                           2   -1.16    0.07  1.0000
  14   0   1       9      31                                                         -43   -1.16   -0.07  1.0000
   0  14   1      33      42                                                          75   -1.16    0.07  1.0000
  14  -1  -1      71      32                                                          47   -0.81   -0.15  1.0000
  14  -1   1      41      37                                                          23   -0.81    0.15  1.0000
   1  14   1       4      35                                                           0   -0.81   -0.15  1.0000
  14  -2  -1      70      33                                                          80   -0.27   -0.29  1.0000
   2  14  -1      88      50                                                          99   -0.27    0.29  1.0000
  14  -2   1     124      45                                                         137   -0.27    0.29  1.0000
   2  14   1      90      46                                                         101   -0.27   -0.29  1.0000
   3  14  -1      43      44                                                          54   -0.12    0.28  1.0000
  14  -3   1      58      41                                                          70   -0.12    0.28  1.0000
   3  14   1      61      44                                                          74   -0.12   -0.28  1.0000
   4  14  -1     580      85                                                         637   -0.52    0.06  1.0000
  14  -4   1     658      77                                                         719   -0.52    0.06  1.0000
   4  14   1     624      85                                                         683   -0.52   -0.06  1.0000
   5  14  -1     127      50                                                         100   -0.96   -0.30  1.0000
   5  14   1      34      41                                                          19   -0.96    0.30  1.0000
   5  14   1     193      57                                                         161   -0.96    0.30  1.0000
  14  -5   1     140      45                                                         112   -0.96   -0.30  1.0000
   6  14  -1     155      60                                                         207   -0.94   -0.58  1.0000
  14  -6   1     181      53                                                         237   -0.94   -0.58  1.0000
   6  14   1     140      57                                                         190   -0.94    0.58  1.0000
   7  14  -1       4      38                                                         -25   -0.51   -0.58  1.0000
   7  14   1       4      45                                                         -17   -0.51    0.58  1.0000
  14  -7   1      53      42                                                          28   -0.51   -0.58  1.0000
   8  14  -1       1      45                                                         -20   -0.09   -0.28  1.0000
   8  14   1      78      52                                                          86   -0.09    0.28  1.0000
  15   6  -1     193      56                                                         181    0.13   -0.20  1.0000
  15   6   1      85      53                                                          77    0.13    0.20  1.0000
  15   5  -1       2      42                                                          -1   -0.47   -0.13  1.0000
  15   5   1     170      53                                                         148   -0.47    0.13  1.0000
  15   4  -1      76      43                                                          70   -1.01    0.08  1.0000
  15   4   1      77      47                                                          71   -1.01   -0.08  1.0000
  15   3  -1     140      50                                                         212   -1.18    0.23  1.0000
  15   3   1     103      54                                                         165   -1.18   -0.23  1.0000
  15   2  -1      45      39                                                          36   -1.22    0.24  1.0000
  15   2   1      23      39                                                          14   -1.22   -0.24  1.0000
  15   1  -1      96      43                                                         151   -1.43    0.17  1.0000
  15   1   1      61      47                                                         104   -1.43   -0.17  1.0000
  15   0  -1       8      33                                                          18   -1.56    0.10  1.0000
   0  15   1       8      41                                                          19   -1.56    0.10  1.0000
  15   0   1      16      37                                                         -12   -1.56   -0.10  1.0000
   1  15   1      56      47                                                         106   -1.19    0.06  1.0000
  15  -1   1      61      46                                                         112   -1.19   -0.06  1.0000
  15  -2   1     125      48                                                         116   -0.47   -0.03  1.0000
   2  15   1     103      48                                                          95   -0.47    0.03  1.0000
   3  15  -1      18      46                                                          18   -0.02   -0.02  1.0000
  15  -3   1      75      43                                                          76   -0.02   -0.02  1.0000
   3  15   1       0      40                                                         -14   -0.02    0.02  1.0000
   4  15  -1     313      69                                                         307   -0.13   -0.04  1.0000
   4  15   1     382      72                                                         376   -0.13    0.04  1.0000
  15  -4   1     376      62                                                         370   -0.13   -0.04  1.0000
   5  15  -1     220      68                                                         254   -0.47   -0.07  1.0000
  15  -5   1     355      64                                                         398   -0.47   -0.07  1.0000
   5  15   1     380      74                                                         424   -0.47    0.07  1.0000
   6  15  -1      79      51                                                          64   -0.53   -0.10  1.0000
   6  15   1      23      47                                                          15   -0.53    0.10  1.0000
  16   3  -1      19      45                                                          37   -0.71    0.02  1.0000
  16   3   1      59      50                                                          90   -0.71   -0.02  1.0000
  16   2  -1      37      41                                                          19   -0.71   -0.01  1.0000
  16   2   1       3      44                                                          -4   -0.71    0.01  1.0000
  16   1   1      26      44                                                          33   -0.89   -0.04  1.0000
  16   0   1     128      52                                                          87   -1.12   -0.15  1.0000
   1  16   1     100      54                                                         128   -1.06    0.22  1.0000
  16  -1   1     109      50                                                         139   -1.06   -0.22  1.0000
  16  -2   1     236      61                                                         293   -0.66   -0.23  1.0000
   2  16   1     151      60                                                         197   -0.66    0.23  1.0000
   3  16   1      75      50                                                          68   -0.21    0.23  1.0000
  16  -3   1     100      45                                                          92   -0.21   -0.23  1.0000
   0   0  -2      65      12                                                          49    5.92    0.00  1.0000
   0   0   2      92      11                                                          30    5.92   -0.00  1.0000
   1   0  -2      53      15                                                          76    3.99    0.22  1.0000
   0   1  -2      53      17                                                          76    3.99   -0.22  1.0000
   0   1   2      61      18                                                         107    3.99    0.22  1.0000
   0  -1   2      55      17                                                          86    3.99    0.22  1.0000
   0   1   2      65      10                                                         119    3.99    0.22  1.0000
  -1   0   2      62      15                                                         110    3.99   -0.22  1.0000
   1   1  -2     302      36                                                         591    2.62   -1.71  1.0000
   1  -1  -2     291      27                                                         576    2.62    1.71  1.0000
   1   1   2     304      37                                                         594    2.62    1.71  1.0000
  -1   1   2     300      26                                                         589    2.62   -1.71  1.0000
  -1  -1   2     292      35                                                         578    2.62    1.71  1.0000
   1  -2  -2    3265      87                                                        3047   -0.11    1.34  1.0000
   2   1  -2    3149     103                                                        2935   -0.11   -1.34  1.0000
   2   1   2    3094     101                                                        2882   -0.11    1.34  1.0000
  -2  -1   2    3178      94                                                        2963   -0.11    1.34  1.0000
   1  -2   2    3182     106                                                        2967   -0.11   -1.34  1.0000
  -2  -1   2    3124     102                                                        2911   -0.11    1.34  1.0000
  -1   2   2    3105      89                                                        2892   -0.11   -1.34  1.0000
   2   0  -2    3673     124                                                        3833    0.01    0.92  1.0000
   0   2  -2    3794     132                                                        3956    0.01   -0.92  1.0000
   0  -2  -2    3773     118                                                        3935    0.01   -0.92  1.0000
   0  -2   2    3728     131                                                        3889    0.01    0.92  1.0000
  -2   0   2    3761     124                                                        3922    0.01   -0.92  1.0000
   0   2   2    3767     118                                                        3929    0.01    0.92  1.0000
   1   2  -2     145      29                                                         238   -0.45   -2.59  1.0000
  -1  -2  -2     192      28                                                         303   -0.45   -2.59  1.0000
   2  -1  -2     163      23                                                         262   -0.45    2.59  1.0000
   1   2   2     190      13                                                         299   -0.45    2.59  1.0000
  -2   1   2     160      23                                                         259   -0.45   -2.59  1.0000
  -1  -2   2     187      32                                                         295   -0.45    2.59  1.0000
   1   2   2     163      27                                                         263   -0.45    2.59  1.0000
   2  -2  -2    6595     194                                                        6913   -1.04    2.39  1.0000
   2   2  -2    6386     210                                                        6697   -1.04   -2.39  1.0000
  -2  -2   2    6402     209                                                        6715   -1.04    2.39  1.0000
  -2  -2   2    6293     193                                                        6603   -1.04    2.39  1.0000
   2   2   2    6419     191                                                        6732   -1.04    2.39  1.0000
   2   2   2    6239     197                                                        6547   -1.04    2.39  1.0000
  -2   2   2    6519     178                                                        6834   -1.04   -2.39  1.0000
   3   2  -2    1760      84                                                        1951   -1.58   -1.26  1.0000
   3   2  -2    1743      75                                                        1933   -1.58   -1.26  1.0000
   2  -3  -2    1748      60                                                        1938   -1.58    1.26  1.0000
  -3  -2   2    1782      83                                                        1974   -1.58    1.26  1.0000
   3   2   2    1815      83                                                        2009   -1.58    1.26  1.0000
   3   2   2    1777      71                                                        1969   -1.58    1.26  1.0000
  -2   3   2    1710      59                                                        1898   -1.58   -1.26  1.0000
   1  -3  -2    2323      83                                                        2650   -2.21   -0.07  1.0000
   3   1  -2    2319      99                                                        2645   -2.21    0.07  1.0000
  -1   3   2    2363      82                                                        2693   -2.21    0.07  1.0000
  -3  -1   2    2324      85                                                        2651   -2.21   -0.07  1.0000
   1  -3   2    2292     103                                                        2616   -2.21    0.07  1.0000
   3   1   2    2436     101                                                        2771   -2.21   -0.07  1.0000
  -3  -1   2    2338      99                                                        2666   -2.21   -0.07  1.0000
   0   3  -2    3688     111                                                        2947   -3.00   -1.67  1.0000
   3   0  -2    3553     103                                                        2826   -3.00    1.67  1.0000
   0  -3  -2    3712      94                                                        2968   -3.00   -1.67  1.0000
   0   3   2    3851      95                                                        3094   -3.00    1.67  1.0000
   3   0   2    3716     106                                                        2972   -3.00   -1.67  1.0000
   0  -3   2    3559     110                                                        2831   -3.00    1.67  1.0000
  -3   0   2    3696     103                                                        2954   -3.00   -1.67  1.0000
  -3   0   2    3629      87                                                        2894   -3.00   -1.67  1.0000
   3  -1  -2    2019      84                                                        2347   -3.10    2.46  1.0000
   1   3  -2    1809      92                                                        2117   -3.10   -2.46  1.0000
  -1  -3  -2    1804      81                                                        2111   -3.10   -2.46  1.0000
   1   3   2    2034      70                                                        2364   -3.10    2.46  1.0000
  -3   1   2    2149      85                                                        2492   -3.10   -2.46  1.0000
  -1  -3   2    2002      95                                                        2328   -3.10    2.46  1.0000
   1   3   2    1945      81                                                        2266   -3.10    2.46  1.0000
  -3   1   2    2025      67                                                        2355   -3.10   -2.46  1.0000
   3  -2  -2    1174      69                                                        1848   -2.50    2.35  1.0000
  -2  -3  -2    1143      60                                                        1809   -2.50   -2.35  1.0000
   2   3  -2     993      78                                                        1620   -2.50   -2.35  1.0000
  -2  -3   2    1082      79                                                        1733   -2.50    2.35  1.0000
   2   3   2    1093      61                                                        1747   -2.50    2.35  1.0000
   2   3   2    1064      72                                                        1710   -2.50    2.35  1.0000
   3   3  -2    1755      72                                                        1368   -1.80   -2.01  1.0000
   3   3  -2    1733      63                                                        1348   -1.80   -2.01  1.0000
   3  -3  -2    1675      57                                                        1297   -1.80    2.01  1.0000
  -3  -3  -2    1713      54                                                        1331   -1.80   -2.01  1.0000
   3   3   2    1730      56                                                        1346   -1.80    2.01  1.0000
  -3  -3   2    1746      71                                                        1360   -1.80    2.01  1.0000
   3   3   2    1685      64                                                        1306   -1.80    2.01  1.0000
   4   3  -2     685      46                                                         712   -1.12   -1.32  1.0000
   3  -4  -2     677      27                                                         704   -1.12    1.32  1.0000
  -4  -3  -2     694      41                                                         722   -1.12   -1.32  1.0000
   4   3  -2     559      53                                                         582   -1.12   -1.32  1.0000
   4   3   2     745      50                                                         774   -1.12    1.32  1.0000
   4   3   2     632      41                                                         658   -1.12    1.32  1.0000
  -3   4   2     635      26                                                         661   -1.12   -1.32  1.0000
  -4  -3   2     600      53                                                         624   -1.12    1.32  1.0000
   2  -4  -2    1132      40                                                        1006   -1.91    0.37  1.0000
   4   2  -2    1076      59                                                         953   -1.91   -0.37  1.0000
   4   2  -2    1119      51                                                         994   -1.91   -0.37  1.0000
   4   2   2    1170      59                                                        1042   -1.91    0.37  1.0000
   4   2   2    1167      52                                                        1040   -1.91    0.37  1.0000
  -4  -2   2    1139      59                                                        1013   -1.91    0.37  1.0000
  -2   4   2    1188      38                                                        1059   -1.91   -0.37  1.0000
   4   1  -2     965      48                                                        1088   -3.08    0.82  1.0000
   1  -4  -2     951      46                                                        1073   -3.08   -0.82  1.0000
   4   1  -2    1016      60                                                        1144   -3.08    0.82  1.0000
  -4  -1   2     947      46                                                        1069   -3.08   -0.82  1.0000
  -1   4   2    1003      44                                                        1130   -3.08    0.82  1.0000
   1  -4   2    1020      65                                                        1149   -3.08    0.82  1.0000
  -4  -1   2     919      58                                                        1038   -3.08   -0.82  1.0000
   4   1   2     930      53                                                        1050   -3.08   -0.82  1.0000
   4   1   2     885      59                                                        1001   -3.08   -0.82  1.0000
   0  -4  -2    2464     119                                                        3484   -4.17   -1.64  1.0000
   0   4  -2    2682     142                                                        3744   -4.17   -1.64  1.0000
   4   0  -2    2651     134                                                        3708   -4.17    1.64  1.0000
   0  -4  -2    2923     117                                                        4030   -4.17   -1.64  1.0000
   4   0  -2    2901     115                                                        4005   -4.17    1.64  1.0000
  -4   0   2    2973     135                                                        4089   -4.17   -1.64  1.0000
   4   0   2    2970     136                                                        4086   -4.17   -1.64  1.0000
  -4   0   2    2829     112                                                        3919   -4.17   -1.64  1.0000
   0  -4   2    2791     142                                                        3874   -4.17    1.64  1.0000
   0   4   2    2965     121                                                        4080   -4.17    1.64  1.0000
  -1  -4  -2    2496      51                                                        1411   -4.56   -1.94  1.0000
   1   4  -2    2374      72                                                        1319   -4.56   -1.94  1.0000
   4  -1  -2    2546      66                                                        1449   -4.56    1.94  1.0000
   1   4   2    2598      62                                                        1488   -4.56    1.94  1.0000
   1   4   2    2520      53                                                        1429   -4.56    1.94  1.0000
  -4   1   2    2590      45                                                        1482   -4.56   -1.94  1.0000
  -1  -4   2    2337      72                                                        1292   -4.56    1.94  1.0000
   4  -1   2    2484      69                                                        1402   -4.56   -1.94  1.0000
  -4   1   2    2536      65                                                        1441   -4.56   -1.94  1.0000
  -2  -4  -2    6089     215                                                        7637   -3.98   -2.27  1.0000
   2   4  -2    5780     242                                                        7289   -3.98   -2.27  1.0000
   4  -2  -2    6003     228                                                        7540   -3.98    2.27  1.0000
  -2  -4   2    5978     242                                                        7512   -3.98    2.27  1.0000
   2   4   2    5890     220                                                        7412   -3.98    2.27  1.0000
   2   4   2    5849     217                                                        7366   -3.98    2.27  1.0000
   3   4  -2    9832     277                                                        8666   -2.59   -2.58  1.0000
   4  -3  -2    9831     259                                                        8666   -2.59    2.58  1.0000
   3   4  -2    9484     254                                                        8339   -2.59   -2.58  1.0000
  -3  -4  -2    9849     251                                                        8682   -2.59   -2.58  1.0000
   3   4   2    9928     255                                                        8757   -2.59    2.58  1.0000
   3   4   2    9799     253                                                        8636   -2.59    2.58  1.0000
  -3  -4   2    9882     276                                                        8714   -2.59    2.58  1.0000
   4   4  -2     887      55                                                         955   -0.74   -1.91  1.0000
   4   4  -2     676      63                                                         732   -0.74   -1.91  1.0000
  -4  -4  -2     798      47                                                         861   -0.74   -1.91  1.0000
   4   4   2     692      47                                                         748   -0.74    1.91  1.0000
   4   4   2     800      56                                                         863   -0.74    1.91  1.0000
  -4  -4   2     739      58                                                         798   -0.74    1.91  1.0000
   5   4  -2     172      31                                                         113    1.03   -0.25  1.0000
  -5  -4  -2     145      23                                                          91    1.03   -0.25  1.0000
   4  -5  -2     260      14                                                         186    1.03    0.25  1.0000
   5   4  -2     196      28                                                         133    1.03   -0.25  1.0000
   5   4   2     229      27                                                         160    1.03    0.25  1.0000
   5   4   2     266      34                                                         191    1.03    0.25  1.0000
  -5  -4   2     198      33                                                         134    1.03    0.25  1.0000
   3  -5  -2    1106      41                                                        1129   -0.11   -0.15  1.0000
   5   3  -2    1019      67                                                        1041   -0.11    0.15  1.0000
   5   3  -2     962      54                                                         983   -0.11    0.15  1.0000
  -5  -3  -2    1050      57                                                        1072   -0.11    0.15  1.0000
   5   3   2    1039      58                                                        1061   -0.11   -0.15  1.0000
  -3   5   2    1045      41                                                        1067   -0.11    0.15  1.0000
  -5  -3   2    1044      67                                                        1066   -0.11   -0.15  1.0000
   2  -5  -2    7073     199                                                        7323   -1.65   -0.61  1.0000
   5   2  -2    6965     209                                                        7214   -1.65    0.61  1.0000
   5   2  -2    6730     236                                                        6974   -1.65    0.61  1.0000
   5   2   2    6915     226                                                        7162   -1.65   -0.61  1.0000
  -2   5   2    7236     198                                                        7490   -1.65    0.61  1.0000
  -5  -2   2    6920     235                                                        7167   -1.65   -0.61  1.0000
   2  -5   2    6998     242                                                        7248   -1.65    0.61  1.0000
   1  -5  -2    1140      38                                                         702   -3.13   -1.01  1.0000
   5   1  -2    1092      49                                                         664   -3.13    1.01  1.0000
   5   1  -2    1057      37                                                         636   -3.13    1.01  1.0000
   1  -5  -2    1092      36                                                         664   -3.13   -1.01  1.0000
   5   1   2    1003      44                                                         594   -3.13   -1.01  1.0000
  -5  -1   2    1122      49                                                         688   -3.13   -1.01  1.0000
   1  -5   2    1168      62                                                         724   -3.13    1.01  1.0000
  -5  -1   2    1000      36                                                         592   -3.13   -1.01  1.0000
  -1   5   2    1045      34                                                         627   -3.13    1.01  1.0000
   5   1   2     937      51                                                         543   -3.13   -1.01  1.0000
   5   0  -2   15540     337                                                       12978   -4.42    1.14  1.0000
   5   0  -2   15293     379                                                       12752   -4.42    1.14  1.0000
   0  -5  -2   15414     359                                                       12861   -4.42   -1.14  1.0000
   5   0   2   15227     364                                                       12690   -4.42   -1.14  1.0000
   0  -5   2   15445     388                                                       12891   -4.42    1.14  1.0000
   0   5   2   15376     346                                                       12828   -4.42    1.14  1.0000
  -5   0   2   15326     336                                                       12781   -4.42   -1.14  1.0000
  -5   0   2   15023     377                                                       12504   -4.42   -1.14  1.0000
   5  -1  -2   15558     459                                                       17781   -5.21    1.41  1.0000
   5  -1  -2   15138     511                                                       17331   -5.21    1.41  1.0000
   1   5  -2   15442     526                                                       17661   -5.21   -1.41  1.0000
  -1  -5  -2   15992     495                                                       18251   -5.21   -1.41  1.0000
  -1  -5   2   15544     524                                                       17767   -5.21    1.41  1.0000
  -5   1   2   15754     458                                                       17996   -5.21   -1.41  1.0000
   1   5   2   15882     496                                                       18129   -5.21    1.41  1.0000
   1   5   2   15567     479                                                       17791   -5.21    1.41  1.0000
  -5   1   2   15944     513                                                       18200   -5.21   -1.41  1.0000
   5  -1   2   15907     493                                                       18160   -5.21   -1.41  1.0000
   2   5  -2   11224     372                                                       12176   -4.86   -2.17  1.0000
   5  -2  -2   11103     357                                                       12049   -4.86    2.17  1.0000
  -2  -5  -2   11383     342                                                       12343   -4.86   -2.17  1.0000
  -2  -5   2   10671     369                                                       11596   -4.86    2.17  1.0000
   2   5   2   11150     344                                                       12098   -4.86    2.17  1.0000
   2   5   2   11008     337                                                       11950   -4.86    2.17  1.0000
   3   5  -2     387      36                                                         160   -3.10   -2.66  1.0000
  -3  -5  -2     391      23                                                         163   -3.10   -2.66  1.0000
   3   5  -2     420      33                                                         184   -3.10   -2.66  1.0000
   5  -3  -2     308      25                                                         104   -3.10    2.66  1.0000
   3   5   2     387      29                                                         160   -3.10    2.66  1.0000
   3   5   2     436      27                                                         196   -3.10    2.66  1.0000
  -3  -5   2     388      33                                                         161   -3.10    2.66  1.0000
   4   5  -2     456      60                                                         606   -0.65   -1.96  1.0000
   5  -4  -2     470      46                                                         622   -0.65    1.96  1.0000
   4   5  -2     491      55                                                         646   -0.65   -1.96  1.0000
  -4  -5  -2     491      43                                                         646   -0.65   -1.96  1.0000
   4   5   2     475      55                                                         628   -0.65    1.96  1.0000
   4   5   2     518      45                                                         678   -0.65    1.96  1.0000
  -4  -5   2     472      60                                                         624   -0.65    1.96  1.0000
  -5  -5  -2     531      39                                                         391    1.20   -0.68  1.0000
   5   5  -2     568      53                                                         423    1.20   -0.68  1.0000
   5   5  -2     516      43                                                         378    1.20   -0.68  1.0000
   5   5   2     539      47                                                         398    1.20    0.68  1.0000
  -5  -5   2     553      49                                                         410    1.20    0.68  1.0000
   5   5   2     564      42                                                         419    1.20    0.68  1.0000
   6   5  -2     461      49                                                         303    1.80   -0.06  1.0000
  -6  -5  -2     447      37                                                         291    1.80   -0.06  1.0000
   5  -6  -2     407      18                                                         259    1.80    0.06  1.0000
   6   5  -2     358      36                                                         220    1.80   -0.06  1.0000
   6   5   2     503      41                                                         337    1.80    0.06  1.0000
   6   5   2     389      40                                                         245    1.80    0.06  1.0000
  -6  -5   2     372      42                                                         231    1.80    0.06  1.0000
   6   4  -2     390      52                                                         614    2.00    0.97  1.0000
  -6  -4  -2     338      49                                                         548    2.00    0.97  1.0000
   4  -6  -2     450      31                                                         689    2.00   -0.97  1.0000
   6   4  -2     408      63                                                         637    2.00    0.97  1.0000
   6   4   2     435      56                                                         670    2.00   -0.97  1.0000
   6   4   2     419      59                                                         650    2.00   -0.97  1.0000
  -6  -4   2     377      60                                                         597    2.00   -0.97  1.0000
   6   3  -2    3180     122                                                        3474    0.90    1.62  1.0000
   3  -6  -2    3238     107                                                        3534    0.90   -1.62  1.0000
   6   3  -2    3288     147                                                        3587    0.90    1.62  1.0000
  -6  -3   2    3142     141                                                        3433    0.90   -1.62  1.0000
   6   3   2    3206     133                                                        3501    0.90   -1.62  1.0000
  -3   6   2    3300     108                                                        3600    0.90    1.62  1.0000
   6   2  -2     151      42                                                         304   -0.88    1.86  1.0000
   2  -6  -2     184      30                                                         351   -0.88   -1.86  1.0000
   6   2  -2     168      33                                                         328   -0.88    1.86  1.0000
  -2   6   2     188      29                                                         356   -0.88    1.86  1.0000
   6   2   2     187      44                                                         354   -0.88   -1.86  1.0000
   2  -6   2     196      48                                                         367   -0.88    1.86  1.0000
   6   2   2      93      33                                                         218   -0.88   -1.86  1.0000
  -6  -2   2     131      41                                                         275   -0.88   -1.86  1.0000
   6   1  -2    6868     233                                                        8214   -2.64    1.70  1.0000
   6   1  -2    6942     270                                                        8295   -2.64    1.70  1.0000
   1  -6  -2    6993     250                                                        8351   -2.64   -1.70  1.0000
  -6  -1   2    7070     268                                                        8435   -2.64   -1.70  1.0000
  -1   6   2    6939     234                                                        8292   -2.64    1.70  1.0000
   1  -6   2    7068     277                                                        8433   -2.64    1.70  1.0000
   6   1   2    7075     264                                                        8441   -2.64   -1.70  1.0000
   0  -6  -2    1027      58                                                        1228   -4.08   -1.34  1.0000
   6   0  -2    1055      50                                                        1260   -4.08    1.34  1.0000
   6   0  -2    1000      69                                                        1197   -4.08    1.34  1.0000
  -6   0   2    1047      70                                                        1251   -4.08   -1.34  1.0000
   0  -6   2     929      73                                                        1115   -4.08    1.34  1.0000
   6   0   2    1052      71                                                        1256   -4.08   -1.34  1.0000
   0   6   2    1047      57                                                        1251   -4.08    1.34  1.0000
  -6   0   2    1020      50                                                        1219   -4.08   -1.34  1.0000
   6   0   2    1037      72                                                        1239   -4.08   -1.34  1.0000
  -1  -6  -2    8212     222                                                        7569   -4.82   -1.30  1.0000
   6  -1  -2    7780     198                                                        7149   -4.82    1.30  1.0000
   1   6  -2    7722     250                                                        7094   -4.82   -1.30  1.0000
   6  -1  -2    7995     240                                                        7357   -4.82    1.30  1.0000
   6  -1   2    8272     235                                                        7627   -4.82   -1.30  1.0000
   1   6   2    7840     217                                                        7207   -4.82    1.30  1.0000
  -1  -6   2    8168     251                                                        7525   -4.82    1.30  1.0000
  -6   1   2    8148     200                                                        7507   -4.82   -1.30  1.0000
   6  -2  -2    6011     232                                                        7149   -4.32    1.58  1.0000
   2   6  -2    5991     228                                                        7131   -4.32   -1.58  1.0000
   6  -2  -2    5850     185                                                        6972   -4.32    1.58  1.0000
   2   6  -2    5660     243                                                        6766   -4.32   -1.58  1.0000
  -2  -6  -2    5991     216                                                        7131   -4.32   -1.58  1.0000
  -2  -6   2    6064     245                                                        7207   -4.32    1.58  1.0000
   2   6   2    5850     218                                                        6972   -4.32    1.58  1.0000
   6  -2   2    6113     226                                                        7264   -4.32   -1.58  1.0000
   2   6   2    6119     217                                                        7268   -4.32    1.58  1.0000
  -3  -6  -2    1107      45                                                         735   -2.62   -1.55  1.0000
   6  -3  -2    1083      52                                                         716   -2.62    1.55  1.0000
   3   6  -2    1043      65                                                         682   -2.62   -1.55  1.0000
   3   6  -2    1089      61                                                         720   -2.62   -1.55  1.0000
  -3  -6   2    1087      65                                                         719   -2.62    1.55  1.0000
   3   6   2    1014      45                                                         659   -2.62    1.55  1.0000
   3   6   2     965      54                                                         619   -2.62    1.55  1.0000
   6  -4  -2     173      30                                                         141   -0.70    1.08  1.0000
   4   6  -2     307      40                                                         267   -0.70   -1.08  1.0000
  -4  -6  -2     235      29                                                         199   -0.70   -1.08  1.0000
   4   6  -2     273      42                                                         235   -0.70   -1.08  1.0000
  -4  -6   2     214      37                                                         179   -0.70    1.08  1.0000
   4   6   2     235      34                                                         199   -0.70    1.08  1.0000
   4   6   2     272      32                                                         234   -0.70    1.08  1.0000
   5   6  -2     990      78                                                         888    0.39   -0.85  1.0000
   5   6  -2     899      57                                                         801    0.39   -0.85  1.0000
  -5  -6  -2     805      50                                                         713    0.39   -0.85  1.0000
   5   6   2     772      57                                                         682    0.39    0.85  1.0000
   5   6   2     941      59                                                         841    0.39    0.85  1.0000
  -5  -6   2     778      67                                                         687    0.39    0.85  1.0000
   6   6  -2      84      32                                                         116    0.59   -1.05  1.0000
  -6  -6  -2     130      30                                                         171    0.59   -1.05  1.0000
   6   6  -2     125      41                                                         165    0.59   -1.05  1.0000
   6   6   2     113      36                                                         151    0.59    1.05  1.0000
   6   6   2      80      30                                                         112    0.59    1.05  1.0000
  -6  -6   2     103      36                                                         139    0.59    1.05  1.0000
   7   6  -2     757      86                                                         862    0.46   -1.07  1.0000
   6  -7  -2     703      35                                                         804    0.46    1.07  1.0000
  -7  -6  -2     705      61                                                         806    0.46   -1.07  1.0000
   7   6  -2     695      68                                                         795    0.46   -1.07  1.0000
   7   6   2     925      82                                                        1041    0.46    1.07  1.0000
  -7  -6   2     741      79                                                         845    0.46    1.07  1.0000
   7   6   2     765      66                                                         870    0.46    1.07  1.0000
   5  -7  -2      35      14                                                          43    1.46    0.08  1.0000
  -7  -5  -2      44      24                                                          55    1.46   -0.08  1.0000
   7   5  -2      72      33                                                          90    1.46   -0.08  1.0000
   7   5  -2      35      23                                                          44    1.46   -0.08  1.0000
   7   5   2      30      27                                                          37    1.46    0.08  1.0000
   7   5   2      56      26                                                          71    1.46    0.08  1.0000
  -7  -5   2      22      26                                                          25    1.46    0.08  1.0000
  -7  -4  -2     230      46                                                         386    1.75    1.00  1.0000
   4  -7  -2     255      31                                                         419    1.75   -1.00  1.0000
   7   4  -2     246      54                                                         407    1.75    1.00  1.0000
   7   4  -2     278      46                                                         449    1.75    1.00  1.0000
   7   4   2     261      51                                                         427    1.75   -1.00  1.0000
  -7  -4   2     286      55                                                         459    1.75   -1.00  1.0000
   7   4   2     257      48                                                         422    1.75   -1.00  1.0000
   7   3  -2     393      55                                                         459    1.02    1.85  1.0000
   7   3  -2     342      41                                                         402    1.02    1.85  1.0000
   3  -7   2     361      55                                                         424    1.02    1.85  1.0000
   7   3   2     363      48                                                         426    1.02   -1.85  1.0000
  -3   7   2     395      35                                                         462    1.02    1.85  1.0000
   7   3   2     371      53                                                         435    1.02   -1.85  1.0000
  -7  -3   2     425      56                                                         495    1.02   -1.85  1.0000
   2  -7  -2     229      26                                                         120   -0.36   -2.31  1.0000
   7   2  -2     206      23                                                         103   -0.36    2.31  1.0000
   7   2  -2     218      32                                                         112   -0.36    2.31  1.0000
  -7  -2   2     182      28                                                          85   -0.36   -2.31  1.0000
  -2   7   2     246      23                                                         133   -0.36    2.31  1.0000
   7   2   2     232      33                                                         122   -0.36   -2.31  1.0000
   7   2   2     303      34                                                         178   -0.36   -2.31  1.0000
   2  -7   2     159      30                                                          68   -0.36    2.31  1.0000
   1  -7  -2     238      44                                                         517   -1.79   -2.33  1.0000
   7   1  -2     220      38                                                         490   -1.79    2.33  1.0000
   7   1  -2     197      51                                                         455   -1.79    2.33  1.0000
   7   1   2     164      50                                                         405   -1.79   -2.33  1.0000
   7   1   2     226      50                                                         499   -1.79   -2.33  1.0000
  -1   7   2     221      39                                                         492   -1.79    2.33  1.0000
   1  -7   2     264      60                                                         555   -1.79    2.33  1.0000
  -7  -1   2     212      52                                                         479   -1.79   -2.33  1.0000
   7   0  -2    1532      50                                                        1190   -2.76    2.06  1.0000
   7   0  -2    1527      72                                                        1186   -2.76    2.06  1.0000
   0  -7  -2    1523      60                                                        1181   -2.76   -2.06  1.0000
   7   0   2    1506      73                                                        1166   -2.76   -2.06  1.0000
   7   0   2    1421      70                                                        1090   -2.76   -2.06  1.0000
  -7   0   2    1392      51                                                        1064   -2.76   -2.06  1.0000
   0  -7   2    1486      77                                                        1149   -2.76    2.06  1.0000
   0   7   2    1661      60                                                        1307   -2.76    2.06  1.0000
  -7   0   2    1570      72                                                        1224   -2.76   -2.06  1.0000
  -1  -7  -2     672      59                                                        1128   -2.88   -1.59  1.0000
   7  -1  -2     650      44                                                        1099   -2.88    1.59  1.0000
   7  -1  -2     629      70                                                        1071   -2.88    1.59  1.0000
   1   7  -2     614      77                                                        1052   -2.88   -1.59  1.0000
   1   7   2     588      57                                                        1017   -2.88    1.59  1.0000
   7  -1   2     637      68                                                        1081   -2.88   -1.59  1.0000
  -7   1   2     705      48                                                        1170   -2.88   -1.59  1.0000
  -1  -7   2     690      76                                                        1150   -2.88    1.59  1.0000
   2   7  -2      79      27                                                          37   -2.16   -0.80  1.0000
   7  -2  -2      97      25                                                          54   -2.16    0.80  1.0000
   7  -2  -2     105      12                                                          61   -2.16    0.80  1.0000
  -2  -7  -2      77      19                                                          35   -2.16   -0.80  1.0000
   2   7  -2      65      26                                                          24   -2.16   -0.80  1.0000
   2   7   2     107      24                                                          63   -2.16    0.80  1.0000
   7  -2   2     126      29                                                          80   -2.16   -0.80  1.0000
   2   7   2     120      22                                                          75   -2.16    0.80  1.0000
  -2  -7   2      91      28                                                          48   -2.16    0.80  1.0000
  -3  -7  -2    1444      76                                                        1668   -1.18    0.09  1.0000
   3   7  -2    1399      89                                                        1619   -1.18    0.09  1.0000
   3   7  -2    1354      94                                                        1571   -1.18    0.09  1.0000
   7  -3  -2    1432      88                                                        1655   -1.18   -0.09  1.0000
   3   7   2    1500      82                                                        1728   -1.18   -0.09  1.0000
   3   7   2    1418      79                                                        1639   -1.18   -0.09  1.0000
   7  -3   2    1399      85                                                        1619   -1.18    0.09  1.0000
  -3  -7   2    1458      95                                                        1682   -1.18   -0.09  1.0000
   7  -4  -2     562      52                                                         505   -0.64   -0.31  1.0000
  -4  -7  -2     543      45                                                         487   -0.64    0.31  1.0000
   4   7  -2     513      59                                                         459   -0.64    0.31  1.0000
   4   7  -2     453      51                                                         402   -0.64    0.31  1.0000
   4   7   2     473      48                                                         421   -0.64   -0.31  1.0000
  -4  -7   2     492      56                                                         439   -0.64   -0.31  1.0000
   4   7   2     508      46                                                         454   -0.64   -0.31  1.0000
   5   7  -2     388      54                                                         369   -0.60   -0.44  1.0000
   5   7  -2     389      50                                                         370   -0.60   -0.44  1.0000
  -5  -7  -2     504      47                                                         483   -0.60   -0.44  1.0000
   7  -5  -2     430      51                                                         410   -0.60    0.44  1.0000
  -5  -7   2     377      52                                                         358   -0.60    0.44  1.0000
   5   7   2     415      47                                                         395   -0.60    0.44  1.0000
   5   7   2     351      48                                                         333   -0.60    0.44  1.0000
   6   7  -2      74      30                                                          24   -0.62   -1.31  1.0000
   6   7  -2      53      23                                                          13   -0.62   -1.31  1.0000
  -6  -7  -2      14      22                                                          -7   -0.62   -1.31  1.0000
  -6  -7   2      55      25                                                          14   -0.62    1.31  1.0000
   6   7   2     122      29                                                          54   -0.62    1.31  1.0000
   6   7   2      57      24                                                          15   -0.62    1.31  1.0000
   7   7  -2     110      43                                                         151   -0.52   -1.44  1.0000
   7   7  -2      93      36                                                         130   -0.52   -1.44  1.0000
  -7  -7  -2      58      28                                                          85   -0.52   -1.44  1.0000
   7   7   2     144      39                                                         192   -0.52    1.44  1.0000
   7   7   2      98      40                                                         136   -0.52    1.44  1.0000
  -7  -7   2     168      46                                                         221   -0.52    1.44  1.0000
  -8  -7  -2     318      44                                                         248   -0.45   -1.05  1.0000
   8   7  -2     240      48                                                         179   -0.45   -1.05  1.0000
   8   7  -2     264      46                                                         200   -0.45   -1.05  1.0000
   8   7   2     323      48                                                         253   -0.45    1.05  1.0000
   8   7   2     303      48                                                         235   -0.45    1.05  1.0000
   6  -8  -2     262      25                                                         258    0.32    0.61  1.0000
  -8  -6  -2     270      43                                                         266    0.32   -0.61  1.0000
   8   6  -2     325      56                                                         321    0.32   -0.61  1.0000
   8   6  -2     279      45                                                         275    0.32   -0.61  1.0000
   8   6   2     343      53                                                         339    0.32    0.61  1.0000
   8   6   2     267      46                                                         263    0.32    0.61  1.0000
  -8  -6   2     205      46                                                         201    0.32    0.61  1.0000
  -8  -5  -2     335      44                                                         305    0.77    0.10  1.0000
   8   5  -2     368      54                                                         337    0.77    0.10  1.0000
   8   5  -2     295      41                                                         267    0.77    0.10  1.0000
   5  -8  -2     318      28                                                         289    0.77   -0.10  1.0000
   8   5   2     266      45                                                         239    0.77   -0.10  1.0000
   8   5   2     319      46                                                         290    0.77   -0.10  1.0000
  -8  -5   2     321      50                                                         292    0.77   -0.10  1.0000
   8   4  -2     827      75                                                         741    0.62    0.76  1.0000
   8   4  -2     898      56                                                         809    0.62    0.76  1.0000
  -8  -4   2     929      76                                                         838    0.62   -0.76  1.0000
   8   4   2    1049      77                                                         953    0.62   -0.76  1.0000
   8   4   2     800      70                                                         716    0.62   -0.76  1.0000
   8   3  -2      81      38                                                         138    0.04    1.21  1.0000
   8   3  -2      78      28                                                         133    0.04    1.21  1.0000
   8   3   2      63      32                                                         113    0.04   -1.21  1.0000
   8   3   2      88      35                                                         146    0.04   -1.21  1.0000
   3  -8   2      43      34                                                          86    0.04    1.21  1.0000
  -8  -3   2      67      34                                                         119    0.04   -1.21  1.0000
  -3   8   2      94      26                                                         155    0.04    1.21  1.0000
   2  -8  -2    1128      71                                                        1232   -0.59   -1.45  1.0000
   8   2  -2    1008      60                                                        1106   -0.59    1.45  1.0000
   8   2  -2    1121      81                                                        1225   -0.59    1.45  1.0000
   2  -8   2    1089      84                                                        1191   -0.59    1.45  1.0000
   8   2   2    1273      81                                                        1385   -0.59   -1.45  1.0000
  -8  -2   2    1146      82                                                        1251   -0.59   -1.45  1.0000
  -2   8   2    1001      57                                                        1098   -0.59    1.45  1.0000
   8   2   2    1279      80                                                        1391   -0.59   -1.45  1.0000
   8   1  -2     350      31                                                         253   -0.98    1.63  1.0000
   8   1  -2     308      41                                                         216   -0.98    1.63  1.0000
   1  -8  -2     351      35                                                         254   -0.98   -1.63  1.0000
  -1   8   2     400      34                                                         297   -0.98    1.63  1.0000
   1  -8   2     324      43                                                         230   -0.98    1.63  1.0000
  -8  -1   2     330      41                                                         236   -0.98   -1.63  1.0000
   8   1   2     273      36                                                         187   -0.98   -1.63  1.0000
   8   1   2     270      39                                                         184   -0.98   -1.63  1.0000
   8   0  -2    1129      72                                                         821   -0.90    1.73  1.0000
   0  -8  -2    1084      52                                                         783   -0.90   -1.73  1.0000
   8   0  -2    1148      43                                                         837   -0.90    1.73  1.0000
  -8   0   2    1175      73                                                         860   -0.90   -1.73  1.0000
   8   0   2    1106      69                                                         801   -0.90   -1.73  1.0000
   8   0   2    1021      66                                                         729   -0.90   -1.73  1.0000
   0  -8   2     918      68                                                         643   -0.90    1.73  1.0000
   0   8   2    1041      49                                                         746   -0.90    1.73  1.0000
  -1  -8  -2     965      53                                                         791   -0.28   -1.32  1.0000
   8  -1  -2     978      38                                                         803   -0.28    1.32  1.0000
   8  -1  -2     690      59                                                         544   -0.28    1.32  1.0000
   1   8  -2     865      71                                                         701   -0.28   -1.32  1.0000
   1   8   2     935      51                                                         764   -0.28    1.32  1.0000
   8  -1   2     960      70                                                         787   -0.28   -1.32  1.0000
  -8   1   2     933      42                                                         762   -0.28   -1.32  1.0000
   8  -1   2     965      70                                                         791   -0.28   -1.32  1.0000
  -1  -8   2     915      72                                                         746   -0.28    1.32  1.0000
   2   8  -2     368      53                                                         357    0.36   -0.19  1.0000
  -2  -8  -2     383      40                                                         372    0.36   -0.19  1.0000
   8  -2  -2     343      23                                                         333    0.36    0.19  1.0000
   2   8  -2     347      49                                                         337    0.36   -0.19  1.0000
   8  -2  -2     332      46                                                         322    0.36    0.19  1.0000
   8  -2   2     236      42                                                         227    0.36   -0.19  1.0000
   2   8   2     361      41                                                         350    0.36    0.19  1.0000
  -2  -8   2     360      51                                                         349    0.36    0.19  1.0000
   2   8   2     362      42                                                         351    0.36    0.19  1.0000
   3   8  -2     409      54                                                         361    0.32    0.90  1.0000
   8  -3  -2     291      42                                                         250    0.32   -0.90  1.0000
  -3  -8  -2     365      39                                                         320    0.32    0.90  1.0000
   8  -3  -2     329      19                                                         286    0.32   -0.90  1.0000
   3   8  -2     343      47                                                         299    0.32    0.90  1.0000
   3   8   2     374      43                                                         328    0.32   -0.90  1.0000
   8  -3   2     408      49                                                         360    0.32    0.90  1.0000
  -3  -8   2     353      49                                                         308    0.32   -0.90  1.0000
   3   8   2     409      43                                                         361    0.32   -0.90  1.0000
   4   8  -2     218      49                                                         267   -0.40    0.95  1.0000
   4   8  -2     241      47                                                         293   -0.40    0.95  1.0000
  -4  -8  -2     256      40                                                         310   -0.40    0.95  1.0000
   8  -4  -2     249      45                                                         302   -0.40   -0.95  1.0000
   4   8   2     232      44                                                         283   -0.40   -0.95  1.0000
   8  -4   2     239      47                                                         291   -0.40    0.95  1.0000
   4   8   2     242      41                                                         294   -0.40   -0.95  1.0000
  -4  -8   2     291      52                                                         348   -0.40   -0.95  1.0000
  -5  -8  -2     354      47                                                         395   -1.03    0.04  1.0000
   5   8  -2     242      53                                                         276   -1.03    0.04  1.0000
   5   8  -2     322      52                                                         361   -1.03    0.04  1.0000
   8  -5  -2     279      48                                                         315   -1.03   -0.04  1.0000
   5   8   2     311      48                                                         350   -1.03   -0.04  1.0000
   5   8   2     359      48                                                         401   -1.03   -0.04  1.0000
  -5  -8   2     276      52                                                         312   -1.03   -0.04  1.0000
  -6  -8  -2      28      29                                                          78   -1.13   -0.81  1.0000
   6   8  -2      24      37                                                          71   -1.13   -0.81  1.0000
   6   8  -2      63      37                                                         131   -1.13   -0.81  1.0000
   8  -6  -2      51      36                                                         113   -1.13    0.81  1.0000
   6   8   2      31      33                                                          83   -1.13    0.81  1.0000
  -6  -8   2      32      34                                                          84   -1.13    0.81  1.0000
   6   8   2      57      35                                                         122   -1.13    0.81  1.0000
   7   8  -2     374      49                                                         243   -1.04   -1.04  1.0000
  -7  -8  -2     370      42                                                         240   -1.04   -1.04  1.0000
   7   8  -2     342      52                                                         218   -1.04   -1.04  1.0000
   7   8   2     430      52                                                         289   -1.04    1.04  1.0000
   7   8   2     422      49                                                         282   -1.04    1.04  1.0000
  -8  -8  -2    1402      95                                                        1630   -0.99   -0.97  1.0000
   8   8  -2    1324     112                                                        1546   -0.99   -0.97  1.0000
   8   8  -2    1213      92                                                        1426   -0.99   -0.97  1.0000
   8   8   2    1463     102                                                        1696   -0.99    0.97  1.0000
   8   8   2    1373     100                                                        1599   -0.99    0.97  1.0000
  -9  -8  -2     494      59                                                         429   -0.64   -0.85  1.0000
   9   8  -2     499      74                                                         433   -0.64   -0.85  1.0000
   9   8  -2     426      59                                                         365   -0.64   -0.85  1.0000
   9   8   2     621      70                                                         548   -0.64    0.85  1.0000
   9   8   2     474      62                                                         410   -0.64    0.85  1.0000
   9   7  -2     219      62                                                         286   -0.34   -0.75  1.0000
  -9  -7  -2     191      46                                                         253   -0.34   -0.75  1.0000
   9   7  -2     211      51                                                         276   -0.34   -0.75  1.0000
   9   7   2     264      57                                                         337   -0.34    0.75  1.0000
   9   7   2     154      47                                                         211   -0.34    0.75  1.0000
  -9  -6  -2     112      33                                                         102    0.12   -0.22  1.0000
   9   6  -2     224      42                                                         210    0.12   -0.22  1.0000
   9   6  -2     175      47                                                         163    0.12   -0.22  1.0000
   9   6   2     190      45                                                         178    0.12    0.22  1.0000
   9   6   2     159      44                                                         148    0.12    0.22  1.0000
  -9  -5  -2     349      50                                                         359    0.05    0.47  1.0000
   9   5  -2     304      47                                                         314    0.05    0.47  1.0000
   9   5  -2     303      56                                                         313    0.05    0.47  1.0000
   9   5   2     414      60                                                         426    0.05   -0.47  1.0000
   9   5   2     268      50                                                         277    0.05   -0.47  1.0000
   9   4  -2     238      52                                                         281   -0.55    0.94  1.0000
   9   4  -2     203      39                                                         242   -0.55    0.94  1.0000
   9   4   2     147      44                                                         180   -0.55   -0.94  1.0000
   9   4   2     247      50                                                         291   -0.55   -0.94  1.0000
   4  -9   2     245      55                                                         289   -0.55    0.94  1.0000
  -9  -4   2     215      49                                                         255   -0.55   -0.94  1.0000
   3  -9  -2     394      44                                                         299   -1.05   -0.90  1.0000
   9   3  -2     401      39                                                         305   -1.05    0.90  1.0000
   9   3  -2     316      48                                                         231   -1.05    0.90  1.0000
   3  -9   2     235      44                                                         162   -1.05    0.90  1.0000
   9   3   2     307      41                                                         223   -1.05   -0.90  1.0000
   9   3   2     266      43                                                         188   -1.05   -0.90  1.0000
  -3   9   2     349      35                                                         260   -1.05    0.90  1.0000
  -9  -3   2     366      49                                                         274   -1.05   -0.90  1.0000
   9   2  -2     247      38                                                         294   -1.01    0.48  1.0000
   2  -9  -2     250      43                                                         298   -1.01   -0.48  1.0000
   9   2  -2     211      48                                                         254   -1.01    0.48  1.0000
   9   2   2     282      50                                                         333   -1.01   -0.48  1.0000
  -2   9   2     266      39                                                         315   -1.01    0.48  1.0000
   2  -9   2     263      53                                                         312   -1.01    0.48  1.0000
   9   2   2     244      49                                                         291   -1.01   -0.48  1.0000
  -9  -2   2     261      48                                                         310   -1.01   -0.48  1.0000
   9   1  -2     354      52                                                         317   -0.49    0.18  1.0000
   9   1  -2     422      38                                                         381   -0.49    0.18  1.0000
   1  -9  -2     300      40                                                         266   -0.49   -0.18  1.0000
   1  -9   2     379      54                                                         340   -0.49    0.18  1.0000
   9   1   2     379      49                                                         340   -0.49   -0.18  1.0000
  -1   9   2     422      41                                                         381   -0.49    0.18  1.0000
  -9  -1   2     429      53                                                         388   -0.49   -0.18  1.0000
   9   1   2     420      54                                                         379   -0.49   -0.18  1.0000
   9   0  -2     865      45                                                         810    0.35    0.17  1.0000
   9   0  -2     729      71                                                         679    0.35    0.17  1.0000
   0  -9  -2     706      59                                                         657    0.35   -0.17  1.0000
   0   9   2     777      52                                                         725    0.35    0.17  1.0000
   9   0   2     725      67                                                         675    0.35   -0.17  1.0000
   9   0   2     878      74                                                         823    0.35   -0.17  1.0000
   0  -9   2     787      78                                                         735    0.35    0.17  1.0000
   9  -1  -2     391      53                                                         375    1.19    0.04  1.0000
  -1  -9  -2     360      44                                                         345    1.19   -0.04  1.0000
   9  -1  -2     394      33                                                         378    1.19    0.04  1.0000
   9  -1   2     395      53                                                         379    1.19   -0.04  1.0000
   9  -1   2     368      51                                                         352    1.19   -0.04  1.0000
   1   9   2     457      47                                                         441    1.19    0.04  1.0000
  -1  -9   2     379      55                                                         363    1.19    0.04  1.0000
  -2  -9  -2    1179      66                                                        1045    1.46    0.41  1.0000
   2   9  -2    1413      90                                                        1267    1.46    0.41  1.0000
   9  -2  -2    1206      46                                                        1071    1.46   -0.41  1.0000
   9  -2  -2    1146      76                                                        1014    1.46   -0.41  1.0000
  -2  -9   2    1251      84                                                        1113    1.46   -0.41  1.0000
   9  -2   2    1207      76                                                        1072    1.46    0.41  1.0000
   2   9   2    1215      67                                                        1079    1.46   -0.41  1.0000
  -3  -9  -2       4      23                                                          22    0.81    0.72  1.0000
   9  -3  -2       5      29                                                          24    0.81   -0.72  1.0000
   9  -3  -2       0      13                                                          11    0.81   -0.72  1.0000
   3   9  -2      26      32                                                          62    0.81    0.72  1.0000
   3   9  -2       3      31                                                          19    0.81    0.72  1.0000
   9  -3   2      19      30                                                          51    0.81    0.72  1.0000
   3   9   2       0      23                                                           8    0.81   -0.72  1.0000
  -3  -9   2      15      32                                                          45    0.81   -0.72  1.0000
   3   9   2      18      26                                                          49    0.81   -0.72  1.0000
  -4  -9  -2     163      34                                                         154   -0.25    0.50  1.0000
   4   9  -2     180      42                                                         171   -0.25    0.50  1.0000
   9  -4  -2     190      42                                                         180   -0.25   -0.50  1.0000
   4   9  -2     102      38                                                          94   -0.25    0.50  1.0000
  -4  -9   2     251      50                                                         240   -0.25   -0.50  1.0000
   4   9   2     136      33                                                         127   -0.25   -0.50  1.0000
   4   9   2     142      36                                                         133   -0.25   -0.50  1.0000
   9  -4   2     153      40                                                         144   -0.25    0.50  1.0000
   5   9  -2     242      50                                                         199   -0.94    0.01  1.0000
   9  -5  -2     170      40                                                         133   -0.94   -0.01  1.0000
   5   9  -2     172      41                                                         135   -0.94    0.01  1.0000
  -5  -9  -2     276      41                                                         230   -0.94    0.01  1.0000
   5   9   2     207      39                                                         167   -0.94   -0.01  1.0000
   5   9   2     293      43                                                         245   -0.94   -0.01  1.0000
   9  -5   2     214      42                                                         173   -0.94    0.01  1.0000
   6   9  -2      94      38                                                         113   -1.14   -0.31  1.0000
  -6  -9  -2      82      32                                                          99   -1.14   -0.31  1.0000
   9  -6  -2      56      37                                                          69   -1.14    0.31  1.0000
   6   9  -2      85      44                                                         102   -1.14   -0.31  1.0000
   6   9   2     141      41                                                         166   -1.14    0.31  1.0000
   6   9   2     129      43                                                         152   -1.14    0.31  1.0000
   7   9  -2     985     108                                                        1191   -1.19   -0.45  1.0000
   7   9  -2     685      87                                                         858   -1.19   -0.45  1.0000
   9  -7  -2     940      85                                                        1142   -1.19    0.45  1.0000
  -7  -9  -2     801      75                                                         988   -1.19   -0.45  1.0000
   7   9   2     778      88                                                         962   -1.19    0.45  1.0000
   7   9   2     714      83                                                         891   -1.19    0.45  1.0000
  -8  -9  -2    1009      78                                                         828   -1.04   -0.55  1.0000
   8   9  -2     900      91                                                         730   -1.04   -0.55  1.0000
   8   9  -2    1147      91                                                         954   -1.04   -0.55  1.0000
   8   9   2    1130      89                                                         938   -1.04    0.55  1.0000
   8   9   2    1261      94                                                        1058   -1.04    0.55  1.0000
   9   9  -2     303      61                                                         362   -0.37   -0.53  1.0000
   9   9   2     338      64                                                         401   -0.37    0.53  1.0000
   9   9   2     315      62                                                         376   -0.37    0.53  1.0000
  10   9  -2     274      57                                                         255    0.49   -0.33  1.0000
  10   9   2     245      55                                                         227    0.49    0.33  1.0000
  10   9   2     231      56                                                         213    0.49    0.33  1.0000
  10   8  -2     598      74                                                         610    0.09   -0.54  1.0000
  10   8   2     643      78                                                         655    0.09    0.54  1.0000
  10   8   2     681      80                                                         694    0.09    0.54  1.0000
  10   7  -2     441      69                                                         398   -0.02   -0.52  1.0000
  10   7  -2     362      56                                                         323   -0.02   -0.52  1.0000
  10   7   2     342      59                                                         304   -0.02    0.52  1.0000
  10   7   2     350      58                                                         312   -0.02    0.52  1.0000
  10   6  -2     455      58                                                         462   -0.08   -0.19  1.0000
  10   6  -2     451      71                                                         458   -0.08   -0.19  1.0000
 -10  -6  -2     543      65                                                         551   -0.08   -0.19  1.0000
  10   6   2     370      62                                                         376   -0.08    0.19  1.0000
  10   6   2     318      59                                                         324   -0.08    0.19  1.0000
  10   5  -2      66      41                                                          85   -0.50    0.41  1.0000
  10   5  -2      64      34                                                          83   -0.50    0.41  1.0000
  10   5   2      48      37                                                          65   -0.50   -0.41  1.0000
  10   5   2     160      50                                                         190   -0.50   -0.41  1.0000
  10   4  -2     251      54                                                         226   -1.09    0.91  1.0000
   4 -10  -2     260      46                                                         234   -1.09   -0.91  1.0000
  10   4  -2     240      41                                                         215   -1.09    0.91  1.0000
  10   4   2     249      48                                                         224   -1.09   -0.91  1.0000
  10   4   2     292      51                                                         266   -1.09   -0.91  1.0000
  10   3  -2     842      76                                                         681   -1.30    0.89  1.0000
  10   3  -2     877      61                                                         712   -1.30    0.89  1.0000
   3 -10  -2     730      64                                                         580   -1.30   -0.89  1.0000
  -3  10   2     854      58                                                         692   -1.30    0.89  1.0000
  10   3   2     850      74                                                         688   -1.30   -0.89  1.0000
  10   3   2     807      71                                                         649   -1.30   -0.89  1.0000
   2 -10  -2     386      53                                                         422   -0.93   -0.33  1.0000
  10   2  -2     331      59                                                         364   -0.93    0.33  1.0000
  10   2  -2     266      40                                                         295   -0.93    0.33  1.0000
 -10  -2   2     299      55                                                         330   -0.93   -0.33  1.0000
  10   2   2     396      60                                                         433   -0.93   -0.33  1.0000
  10   2   2     298      53                                                         329   -0.93   -0.33  1.0000
  -2  10   2     362      45                                                         397   -0.93    0.33  1.0000
  10   1  -2     224      49                                                         205   -0.23   -0.37  1.0000
   1 -10  -2     135      36                                                         120   -0.23    0.37  1.0000
  10   1  -2     150      29                                                         134   -0.23   -0.37  1.0000
  10   1   2     145      40                                                         130   -0.23    0.37  1.0000
  10   1   2     187      43                                                         170   -0.23    0.37  1.0000
  -1  10   2     139      32                                                         124   -0.23   -0.37  1.0000
   1 -10   2     102      38                                                          89   -0.23   -0.37  1.0000
 -10  -1   2     118      40                                                         104   -0.23    0.37  1.0000
  10   0  -2     423      36                                                         328    0.51   -0.86  1.0000
  10   0  -2     385      53                                                         295    0.51   -0.86  1.0000
   0 -10  -2     400      46                                                         308    0.51    0.86  1.0000
  10   0   2     440      53                                                         343    0.51    0.86  1.0000
   0  10   2     477      46                                                         376    0.51   -0.86  1.0000
  10   0   2     358      53                                                         271    0.51    0.86  1.0000
   0 -10   2     452      58                                                         354    0.51   -0.86  1.0000
  10  -1  -2     221      55                                                         332    0.99   -1.06  1.0000
  10  -1  -2     239      34                                                         354    0.99   -1.06  1.0000
  -1 -10  -2     163      43                                                         259    0.99    1.06  1.0000
  10  -1   2     211      52                                                         319    0.99    1.06  1.0000
  -1 -10   2     169      53                                                         267    0.99   -1.06  1.0000
   1  10   2     242      47                                                         358    0.99   -1.06  1.0000
  10  -1   2     128      48                                                         214    0.99    1.06  1.0000
   2  10  -2     143      42                                                         109    0.89    0.90  1.0000
  -2 -10  -2     164      34                                                         128    0.89    0.90  1.0000
  10  -2  -2     264      46                                                         220    0.89   -0.90  1.0000
  10  -2  -2     169      22                                                         132    0.89   -0.90  1.0000
  10  -2   2     184      43                                                         146    0.89    0.90  1.0000
   2  10   2     105      31                                                          75    0.89   -0.90  1.0000
  -2 -10   2     135      41                                                         102    0.89   -0.90  1.0000
  10  -2   2     180      41                                                         142    0.89    0.90  1.0000
   3  10  -2       2      31                                                          -3    0.26    0.45  1.0000
  10  -3  -2       5      29                                                           1    0.26   -0.45  1.0000
  10  -3  -2      25      15                                                          16    0.26   -0.45  1.0000
   3  10  -2       2      31                                                          -8    0.26    0.45  1.0000
  -3 -10  -2      24      23                                                          15    0.26    0.45  1.0000
   3  10   2       2      25                                                         -15    0.26   -0.45  1.0000
   3  10   2      18      26                                                          10    0.26   -0.45  1.0000
  10  -3   2      50      32                                                          37    0.26    0.45  1.0000
   4  10  -2     435      67                                                         475   -0.44    0.02  1.0000
  -4 -10  -2     436      55                                                         476   -0.44    0.02  1.0000
   4  10  -2     494      74                                                         537   -0.44    0.02  1.0000
  10  -4  -2     463      28                                                         505   -0.44   -0.02  1.0000
  10  -4  -2     388      62                                                         426   -0.44   -0.02  1.0000
  10  -4   2     382      58                                                         420   -0.44    0.02  1.0000
   4  10   2     484      60                                                         527   -0.44   -0.02  1.0000
   4  10   2     413      58                                                         452   -0.44   -0.02  1.0000
  10  -5  -2      63      39                                                          97   -0.85    0.12  1.0000
   5  10  -2      63      43                                                          97   -0.85   -0.12  1.0000
   5  10  -2       5      30                                                         -20   -0.85   -0.12  1.0000
  -5 -10  -2      45      33                                                          74   -0.85   -0.12  1.0000
   5  10   2      30      33                                                          54   -0.85    0.12  1.0000
   5  10   2      23      34                                                          45   -0.85    0.12  1.0000
  10  -5   2      66      40                                                         101   -0.85   -0.12  1.0000
   6  10  -2     510      67                                                         488   -1.10   -0.12  1.0000
   6  10  -2     567      76                                                         544   -1.10   -0.12  1.0000
  10  -6  -2     489      66                                                         467   -1.10    0.12  1.0000
  -6 -10  -2     579      63                                                         556   -1.10   -0.12  1.0000
  10  -6   2     496      62                                                         474   -1.10   -0.12  1.0000
   6  10   2     488      62                                                         466   -1.10    0.12  1.0000
   6  10   2     572      69                                                         549   -1.10    0.12  1.0000
  10  -7  -2     898      81                                                         748   -1.19    0.20  1.0000
   7  10  -2     859      81                                                         712   -1.19   -0.20  1.0000
   7  10  -2     678      83                                                         548   -1.19   -0.20  1.0000
  -7 -10  -2     941      76                                                         787   -1.19   -0.20  1.0000
   7  10   2     930      79                                                         777   -1.19    0.20  1.0000
  10  -7   2     822      73                                                         679   -1.19   -0.20  1.0000
   7  10   2     822      77                                                         679   -1.19    0.20  1.0000
  10  -8  -2     667      84                                                         774   -0.76    0.24  1.0000
  -8 -10  -2     732      84                                                         844   -0.76   -0.24  1.0000
   8  10  -2     852      94                                                         973   -0.76   -0.24  1.0000
   8  10   2     808      91                                                         926   -0.76    0.24  1.0000
   8  10   2     833      90                                                         952   -0.76    0.24  1.0000
   9  10  -2     822      91                                                         829    0.15   -0.13  1.0000
   9  10   2     679      81                                                         685    0.15    0.13  1.0000
   9  10   2     579      78                                                         585    0.15    0.13  1.0000
  10  10  -2     103      46                                                          77    0.79   -0.07  1.0000
  10  10   2       4      44                                                         -19    0.79    0.07  1.0000
  10  10   2       4      35                                                         -23    0.79    0.07  1.0000
  11  10  -2     165      56                                                         202    0.61   -0.20  1.0000
  11  10   2     231      65                                                         275    0.61    0.20  1.0000
  11   9  -2      83      46                                                          78    0.73   -0.16  1.0000
  11   9   2      97      50                                                          92    0.73    0.16  1.0000
  11   9   2       6      41                                                           2    0.73    0.16  1.0000
  11   8  -2      62      44                                                          85    0.61   -0.05  1.0000
  11   8   2      80      50                                                         106    0.61    0.05  1.0000
  11   8   2      83      47                                                         110    0.61    0.05  1.0000
  11   7  -2      66      39                                                          58    0.33   -0.02  1.0000
  11   7   2     121      47                                                         110    0.33    0.02  1.0000
  11   7   2      47      42                                                          40    0.33    0.02  1.0000
  11   6  -2     154      44                                                         162   -0.12   -0.04  1.0000
  11   6  -2     128      51                                                         135   -0.12   -0.04  1.0000
  11   6   2     125      46                                                         132   -0.12    0.04  1.0000
  11   6   2     227      54                                                         237   -0.12    0.04  1.0000
   5 -11  -2     663      77                                                         652   -0.64   -0.05  1.0000
  11   5  -2     707      86                                                         695   -0.64    0.05  1.0000
  11   5  -2     746      70                                                         734   -0.64    0.05  1.0000
  11   5   2     565      75                                                         554   -0.64   -0.05  1.0000
  11   5   2     597      74                                                         586   -0.64   -0.05  1.0000
  11   4  -2     829      66                                                         699   -0.92    0.24  1.0000
   4 -11  -2     826      75                                                         696   -0.92   -0.24  1.0000
  11   4  -2     846      86                                                         714   -0.92    0.24  1.0000
  11   4   2     756      75                                                         632   -0.92   -0.24  1.0000
  11   4   2     993      88                                                         850   -0.92   -0.24  1.0000
  11   3  -2    1398     110                                                        1570   -0.80    0.38  1.0000
  11   3  -2    1478      88                                                        1655   -0.80    0.38  1.0000
   3 -11  -2    1531     101                                                        1711   -0.80   -0.38  1.0000
  11   3   2    1482     109                                                        1659   -0.80   -0.38  1.0000
  11   3   2    1701     110                                                        1890   -0.80   -0.38  1.0000
  11   2  -2    1196     102                                                        1104   -0.45    0.33  1.0000
  11   2  -2    1088      62                                                        1000   -0.45    0.33  1.0000
   2 -11  -2    1067      82                                                         980   -0.45   -0.33  1.0000
  11   2   2     974      88                                                         891   -0.45   -0.33  1.0000
  11   2   2     993      87                                                         909   -0.45   -0.33  1.0000
  -2  11   2     990      72                                                         906   -0.45    0.33  1.0000
  11   1  -2    1515     106                                                        1535   -0.10    0.03  1.0000
  11   1  -2    1436      73                                                        1455   -0.10    0.03  1.0000
   1 -11  -2    1470      93                                                        1490   -0.10   -0.03  1.0000
  -1  11   2    1556      85                                                        1576   -0.10    0.03  1.0000
  11   1   2    1335      92                                                        1354   -0.10   -0.03  1.0000
  11   1   2    1547     103                                                        1567   -0.10   -0.03  1.0000
  11   0  -2    1135      63                                                        1168    0.18   -0.46  1.0000
  11   0  -2    1211      94                                                        1245    0.18   -0.46  1.0000
   0 -11  -2    1163      81                                                        1197    0.18    0.46  1.0000
  11   0   2    1106      99                                                        1139    0.18    0.46  1.0000
   0  11   2    1359      78                                                        1395    0.18   -0.46  1.0000
  11   0   2    1220      90                                                        1255    0.18    0.46  1.0000
  -1 -11  -2     712      72                                                         813    0.22    0.81  1.0000
  11  -1  -2     793      89                                                         900    0.22   -0.81  1.0000
  11  -1  -2     702      49                                                         803    0.22   -0.81  1.0000
   1  11   2     693      70                                                         793    0.22   -0.81  1.0000
  11  -1   2     663      77                                                         761    0.22    0.81  1.0000
  11  -1   2     633      79                                                         729    0.22    0.81  1.0000
  -2 -11  -2     180      44                                                         231   -0.05    0.71  1.0000
   2  11  -2     167      55                                                         216   -0.05    0.71  1.0000
  11  -2  -2     175      52                                                         225   -0.05   -0.71  1.0000
  11  -2  -2     194      30                                                         247   -0.05   -0.71  1.0000
  11  -2   2     217      53                                                         273   -0.05    0.71  1.0000
   2  11   2     247      49                                                         306   -0.05   -0.71  1.0000
  11  -2   2     194      51                                                         247   -0.05    0.71  1.0000
  11  -3  -2     197      50                                                         177   -0.45   -0.37  1.0000
  -3 -11  -2     150      39                                                         132   -0.45    0.37  1.0000
   3  11  -2     145      45                                                         128   -0.45    0.37  1.0000
  11  -3  -2     173      24                                                         154   -0.45   -0.37  1.0000
   3  11  -2      53      43                                                          42   -0.45    0.37  1.0000
  11  -3   2     118      43                                                         102   -0.45    0.37  1.0000
  11  -3   2     207      47                                                         186   -0.45    0.37  1.0000
   3  11   2      91      36                                                          77   -0.45   -0.37  1.0000
  11  -4  -2     216      48                                                         178   -0.70   -0.23  1.0000
   4  11  -2     392      60                                                         340   -0.70    0.23  1.0000
   4  11  -2     311      59                                                         265   -0.70    0.23  1.0000
  -4 -11  -2     335      48                                                         287   -0.70    0.23  1.0000
   4  11   2     333      51                                                         285   -0.70   -0.23  1.0000
  11  -4   2     270      50                                                         227   -0.70    0.23  1.0000
   4  11   2     250      45                                                         209   -0.70   -0.23  1.0000
   5  11  -2     298      68                                                         377   -0.83    0.30  1.0000
   5  11  -2     391      72                                                         481   -0.83    0.30  1.0000
  11  -5  -2     422      70                                                         515   -0.83   -0.30  1.0000
  -5 -11  -2     328      56                                                         410   -0.83    0.30  1.0000
   5  11   2     402      65                                                         493   -0.83   -0.30  1.0000
  11  -5   2     329      60                                                         412   -0.83    0.30  1.0000
   5  11   2     291      58                                                         369   -0.83   -0.30  1.0000
  11  -6  -2      16      34                                                           2   -1.01   -0.21  1.0000
   6  11  -2       7      37                                                         -15   -1.01    0.21  1.0000
  -6 -11  -2       7      30                                                         -38   -1.01    0.21  1.0000
   6  11  -2      49      36                                                          20   -1.01    0.21  1.0000
  11  -6   2      73      40                                                          36   -1.01    0.21  1.0000
   6  11   2       7      29                                                          -9   -1.01   -0.21  1.0000
   6  11   2       7      33                                                          -1   -1.01   -0.21  1.0000
  -7 -11  -2     379      63                                                         478   -0.97   -0.07  1.0000
  11  -7  -2     504      77                                                         618   -0.97    0.07  1.0000
   7  11  -2     449      77                                                         556   -0.97   -0.07  1.0000
  11  -7   2     367      65                                                         465   -0.97   -0.07  1.0000
   7  11   2     473      74                                                         583   -0.97    0.07  1.0000
   7  11   2     319      65                                                         410   -0.97    0.07  1.0000
   8  11  -2     180      53                                                         151   -0.41   -0.16  1.0000
  11  -8  -2     129      46                                                         105   -0.41    0.16  1.0000
   8  11   2     203      53                                                         172   -0.41    0.16  1.0000
  11  -8   2     178      47                                                         149   -0.41   -0.16  1.0000
   8  11   2     133      44                                                         108   -0.41    0.16  1.0000
   9  11  -2     234      58                                                         211    0.34   -0.01  1.0000
  11  -9   2     138      45                                                         120    0.34   -0.01  1.0000
   9  11   2     123      47                                                         106    0.34    0.01  1.0000
   9  11   2     129      51                                                         112    0.34    0.01  1.0000
  10  11  -2      59      44                                                          38    0.59    0.05  1.0000
  10  11   2       2      47                                                          -9    0.59   -0.05  1.0000
  10  11   2      17      44                                                           7    0.59   -0.05  1.0000
  11  11  -2      30      50                                                          37    0.24   -0.09  1.0000
  11  11   2       0      38                                                         -67    0.24    0.09  1.0000
  12  10  -2       1      42                                                         -16    0.04   -0.32  1.0000
  12  10   2       1      44                                                         -27    0.04    0.32  1.0000
  12   9  -2      38      45                                                          32    0.27   -0.11  1.0000
  12   9   2      67      45                                                          60    0.27    0.11  1.0000
  12   8  -2      52      44                                                          60    0.43    0.27  1.0000
  12   8   2      84      50                                                          94    0.43   -0.27  1.0000
  12   7  -2     607      78                                                         667    0.33    0.53  1.0000
  12   7   2     671      92                                                         733    0.33   -0.53  1.0000
  12   7   2     618      84                                                         678    0.33   -0.53  1.0000
  12   6  -2     727      72                                                         666   -0.03    0.46  1.0000
  12   6   2     573      76                                                         519   -0.03   -0.46  1.0000
  12   6   2     627      77                                                         571   -0.03   -0.46  1.0000
   5 -12  -2     108      47                                                         120   -0.36   -0.08  1.0000
  12   5  -2      88      41                                                          99   -0.36    0.08  1.0000
  12   5   2      86      43                                                          97   -0.36   -0.08  1.0000
  12   5   2      46      42                                                          54   -0.36   -0.08  1.0000
  12   4  -2    1374      87                                                        1399   -0.42   -0.36  1.0000
   4 -12  -2    1473     105                                                        1499   -0.42    0.36  1.0000
  12   4   2    1246     110                                                        1270   -0.42    0.36  1.0000
  12   4   2    1735     118                                                        1764   -0.42    0.36  1.0000
  12   3  -2    1398     119                                                        1372   -0.30   -0.50  1.0000
   3 -12  -2    1315      95                                                        1290   -0.30    0.50  1.0000
  12   3  -2    1318      79                                                        1293   -0.30   -0.50  1.0000
  12   3   2    1523     108                                                        1496   -0.30    0.50  1.0000
  12   3   2    1470     101                                                        1444   -0.30    0.50  1.0000
  12   2  -2     905      99                                                         931   -0.18   -0.24  1.0000
   2 -12  -2     792      80                                                         817   -0.18    0.24  1.0000
  12   2  -2     779      66                                                         803   -0.18   -0.24  1.0000
  12   2   2     900      94                                                         926   -0.18    0.24  1.0000
  12   2   2     730      83                                                         754   -0.18    0.24  1.0000
  -2  12   2     755      73                                                         779   -0.18   -0.24  1.0000
  12   1  -2     313      63                                                         312   -0.07    0.09  1.0000
  12   1  -2     198      36                                                         197   -0.07    0.09  1.0000
   1 -12  -2     159      42                                                         158   -0.07   -0.09  1.0000
  -1  12   2     175      43                                                         174   -0.07    0.09  1.0000
  12   1   2     114      42                                                         113   -0.07   -0.09  1.0000
  12   1   2     166      48                                                         165   -0.07   -0.09  1.0000
   0 -12  -2      10      30                                                          10    0.02   -0.17  1.0000
  12   0  -2      62      41                                                          61    0.02    0.17  1.0000
  12   0  -2       0      23                                                          -4    0.02    0.17  1.0000
   0  12   2      44      32                                                          44    0.02    0.17  1.0000
  12   0   2       0      33                                                         -13    0.02   -0.17  1.0000
  12   0   2       0      34                                                         -23    0.02   -0.17  1.0000
  12  -1  -2      25      22                                                          25   -0.09    0.09  1.0000
  -1 -12  -2      71      35                                                          70   -0.09   -0.09  1.0000
  12  -1  -2      65      41                                                          64   -0.09    0.09  1.0000
  12  -1   2      49      40                                                          49   -0.09   -0.09  1.0000
   1  12   2      49      30                                                          49   -0.09    0.09  1.0000
  12  -1   2       0      35                                                          -9   -0.09   -0.09  1.0000
  -2 -12  -2      32      32                                                          44   -0.43   -0.03  1.0000
  12  -2  -2      13      22                                                          21   -0.43    0.03  1.0000
  12  -2  -2       2      35                                                           5   -0.43    0.03  1.0000
   2  12   2      20      32                                                          30   -0.43    0.03  1.0000
  12  -2   2       8      36                                                          15   -0.43   -0.03  1.0000
  12  -2   2      27      38                                                          38   -0.43   -0.03  1.0000
   3  12  -2     237      60                                                         241   -0.71    0.15  1.0000
  12  -3  -2     129      49                                                         131   -0.71   -0.15  1.0000
  -3 -12  -2     182      45                                                         185   -0.71    0.15  1.0000
  12  -3   2     296      56                                                         300   -0.71    0.15  1.0000
   3  12   2     188      46                                                         191   -0.71   -0.15  1.0000
  12  -3   2     300      61                                                         304   -0.71    0.15  1.0000
   4  12  -2     116      47                                                         115   -0.70    0.58  1.0000
  12  -4  -2     228      55                                                         229   -0.70   -0.58  1.0000
  -4 -12  -2     217      46                                                         218   -0.70    0.58  1.0000
   4  12  -2     122      52                                                         121   -0.70    0.58  1.0000
  12  -4   2     113      44                                                         112   -0.70    0.58  1.0000
   4  12   2     148      45                                                         148   -0.70   -0.58  1.0000
  12  -4   2     194      58                                                         194   -0.70    0.58  1.0000
   4  12   2     178      48                                                         178   -0.70   -0.58  1.0000
  -5 -12  -2     147      41                                                         110   -0.62    0.92  1.0000
  12  -5  -2     226      54                                                         180   -0.62   -0.92  1.0000
   5  12  -2     273      59                                                         223   -0.62    0.92  1.0000
  12  -5   2     213      49                                                         169   -0.62    0.92  1.0000
   5  12   2     283      52                                                         232   -0.62   -0.92  1.0000
   5  12   2     290      53                                                         239   -0.62   -0.92  1.0000
   6  12  -2     210      59                                                         229   -0.62    0.76  1.0000
  12  -6  -2     132      50                                                         146   -0.62   -0.76  1.0000
   6  12   2     137      49                                                         151   -0.62   -0.76  1.0000
  12  -6   2     146      50                                                         161   -0.62    0.76  1.0000
   6  12   2     207      54                                                         226   -0.62   -0.76  1.0000
   7  12  -2     143      55                                                         179   -0.51    0.27  1.0000
  12  -7   2     124      50                                                         158   -0.51    0.27  1.0000
   7  12   2     181      54                                                         222   -0.51   -0.27  1.0000
   7  12   2      52      46                                                          75   -0.51   -0.27  1.0000
   8  12  -2      30      44                                                          27   -0.16   -0.07  1.0000
   8  12   2      31      44                                                          28   -0.16    0.07  1.0000
  12  -8   2      38      43                                                          35   -0.16   -0.07  1.0000
   8  12   2     103      44                                                          98   -0.16    0.07  1.0000
   9  12  -2       0      43                                                         -50    0.15   -0.12  1.0000
   9  12   2      52      51                                                          45    0.15    0.12  1.0000
  12  -9   2      17      40                                                          13    0.15   -0.12  1.0000
   9  12   2       0      39                                                         -51    0.15    0.12  1.0000
  10  12  -2       0      47                                                          -1    0.11   -0.05  1.0000
  10  12   2       0      38                                                         -26    0.11    0.05  1.0000
  12 -10   2      57      45                                                          61    0.11   -0.05  1.0000
  13   9  -2      16      44                                                          16   -0.12   -0.07  1.0000
  13   9   2     177      59                                                         177   -0.12    0.07  1.0000
  13   8  -2     178      58                                                         191   -0.01    0.28  1.0000
  13   8   2     143      56                                                         154   -0.01   -0.28  1.0000
  13   7  -2     167      55                                                         203    0.08    0.72  1.0000
  13   7   2     323      72                                                         372    0.08   -0.72  1.0000
  13   6  -2      31      38                                                          33    0.07    0.90  1.0000
  13   6   2      45      44                                                          48    0.07   -0.90  1.0000
  13   5  -2      84      40                                                          84    0.03    0.52  1.0000
  13   5   2      41      43                                                          40    0.03   -0.52  1.0000
  13   4  -2       5      34                                                           6   -0.05   -0.26  1.0000
  13   4   2      42      44                                                          46   -0.05    0.26  1.0000
  13   4   2       0      36                                                         -36   -0.05    0.26  1.0000
   3 -13  -2     190      50                                                         144   -0.20    0.86  1.0000
  13   3  -2     183      42                                                         138   -0.20   -0.86  1.0000
  13   3   2      77      49                                                          48   -0.20    0.86  1.0000
  13   3   2     209      52                                                         161   -0.20    0.86  1.0000
   2 -13  -2     873      92                                                         970   -0.26    0.88  1.0000
  13   2  -2     867      69                                                         964   -0.26   -0.88  1.0000
  -2  13   2     882      85                                                         979   -0.26   -0.88  1.0000
  13   2   2     900      96                                                         999   -0.26    0.88  1.0000
  13   2   2     926     103                                                        1026   -0.26    0.88  1.0000
   1 -13  -2      50      37                                                          40   -0.07    0.47  1.0000
  13   1  -2      18      30                                                          12   -0.07   -0.47  1.0000
  13   1   2     109      46                                                          94   -0.07    0.47  1.0000
  -1  13   2      31      33                                                          23   -0.07   -0.47  1.0000
  13   1   2     109      42                                                          94   -0.07    0.47  1.0000
  13   0  -2      46      29                                                          47    0.14   -0.00  1.0000
   0 -13  -2     116      44                                                         117    0.14    0.00  1.0000
   0  13   2      65      35                                                          66    0.14   -0.00  1.0000
  13   0   2     139      47                                                         140    0.14    0.00  1.0000
  13   0   2     118      48                                                         119    0.14    0.00  1.0000
  -1 -13  -2      40      38                                                          51   -0.01   -0.34  1.0000
  13  -1  -2      32      26                                                          42   -0.01    0.34  1.0000
  13  -1   2       1      36                                                           4   -0.01   -0.34  1.0000
   1  13   2       1      32                                                          -6   -0.01    0.34  1.0000
  -2 -13  -2      25      35                                                          44   -0.48   -0.43  1.0000
  13  -2   2       3      34                                                         -17   -0.48   -0.43  1.0000
   2  13   2       3      31                                                         -10   -0.48    0.43  1.0000
  -3 -13  -2      66      42                                                          88   -0.77   -0.11  1.0000
  13  -3   2      49      42                                                          67   -0.77   -0.11  1.0000
   3  13   2      15      36                                                          25   -0.77    0.11  1.0000
   4  13  -2       4      38                                                           0   -0.61    0.51  1.0000
  13  -4   2       8      39                                                          23   -0.61    0.51  1.0000
   4  13   2      27      40                                                          52   -0.61   -0.51  1.0000
   5  13  -2      55      52                                                          99   -0.29    0.96  1.0000
   5  13   2      37      42                                                          74   -0.29   -0.96  1.0000
   5  13   2      22      41                                                          51   -0.29   -0.96  1.0000
  13  -5   2      54      47                                                          97   -0.29    0.96  1.0000
   6  13  -2     216      61                                                         195   -0.12    0.93  1.0000
   6  13   2     218      57                                                         197   -0.12   -0.93  1.0000
   6  13   2     206      53                                                         186   -0.12   -0.93  1.0000
  13  -6   2     187      53                                                         167   -0.12    0.93  1.0000
   7  13  -2      44      49                                                          46   -0.07    0.53  1.0000
   7  13   2     181      56                                                         187   -0.07   -0.53  1.0000
  13  -7   2      58      43                                                          61   -0.07    0.53  1.0000
   7  13   2      99      52                                                         103   -0.07   -0.53  1.0000
   8  13  -2     222      65                                                         215   -0.04    0.09  1.0000
  13  -8   2     199      56                                                         192   -0.04    0.09  1.0000
   8  13   2     134      57                                                         129   -0.04   -0.09  1.0000
   9  13  -2       0      48                                                         -25   -0.07   -0.18  1.0000
  13  -9   2       0      41                                                         -47   -0.07   -0.18  1.0000
   9  13   2       0      40                                                         -11   -0.07    0.18  1.0000
  14   7  -2       2      41                                                          -6   -0.02    0.55  1.0000
  14   7   2      45      48                                                          28   -0.02   -0.55  1.0000
  14   6  -2      26      44                                                          37    0.17    0.87  1.0000
  14   6   2      23      48                                                          34    0.17   -0.87  1.0000
  14   5  -2       4      37                                                          -6    0.29    0.74  1.0000
  14   5   2       9      45                                                           1    0.29   -0.74  1.0000
  14   4  -2      14      39                                                          15    0.09    0.12  1.0000
  14   4   2       5      39                                                           6    0.09   -0.12  1.0000
  14   3  -2     102      37                                                          76   -0.27   -0.58  1.0000
  14   3   2       3      40                                                         -26   -0.27    0.58  1.0000
  14   2  -2     107      39                                                          96   -0.36   -0.93  1.0000
  14   2   2     130      51                                                         118   -0.36    0.93  1.0000
  14   1  -2     274      48                                                         343   -0.00   -0.82  1.0000
  -1  14   2     295      58                                                         367   -0.00   -0.82  1.0000
  14   1   2     204      61                                                         264   -0.00    0.82  1.0000
  14   0   2     167      49                                                         137    0.30    0.41  1.0000
   0  14   2      80      38                                                          59    0.30   -0.41  1.0000
  14  -1   2      58      44                                                          60    0.05   -0.04  1.0000
   1  14   2      23      36                                                          24    0.05    0.04  1.0000
   2  14   2     188      49                                                         160   -0.58    0.25  1.0000
  14  -2   2     166      50                                                         140   -0.58   -0.25  1.0000
   3  14   2      38      38                                                          15   -0.91    0.09  1.0000
  14  -3   2       5      40                                                         -26   -0.91   -0.09  1.0000
   4  14   2     256      63                                                         307   -0.67   -0.26  1.0000
  14  -4   2     296      64                                                         351   -0.67    0.26  1.0000
   5  14  -2     284      62                                                         243   -0.22    0.48  1.0000
   5  14   2     150      49                                                         121   -0.22   -0.48  1.0000
  14  -5   2     159      49                                                         129   -0.22    0.48  1.0000
   6  14  -2     218      64                                                         249    0.03    0.48  1.0000
  14  -6   2     117      52                                                         139    0.03    0.48  1.0000
   6  14   2     138      55                                                         162    0.03   -0.48  1.0000
   7  14  -2      98      54                                                          89    0.04    0.35  1.0000
   7  14   2      62      47                                                          55    0.04   -0.35  1.0000
  14  -7   2      27      43                                                          22    0.04    0.35  1.0000
  15   5  -2     180      50                                                         152    0.34    0.51  1.0000
  15   5   2      19      48                                                          10    0.34   -0.51  1.0000
  15   4  -2      12      40                                                           9    0.13    0.18  1.0000
  15   4   2       0      39                                                         -59    0.13   -0.18  1.0000
  15   3  -2      38      40                                                          48   -0.22   -0.26  1.0000
  15   3   2      90      53                                                         106   -0.22    0.26  1.0000
  15   2  -2      43      40                                                          51   -0.27   -0.58  1.0000
  15   2   2       3      39                                                         -42   -0.27    0.58  1.0000
  15   1   2      73      46                                                          53    0.05    0.60  1.0000
  -1  15   2      85      44                                                          63    0.05   -0.60  1.0000
  15   0   2       5      43                                                          10    0.27    0.33  1.0000
   0  15   2      39      46                                                          52    0.27   -0.33  1.0000
  15  -1   2       0      40                                                          -7   -0.01   -0.00  1.0000
   1  15   2      47      41                                                          47   -0.01    0.00  1.0000
  15  -2   2      50      46                                                          63   -0.56   -0.12  1.0000
   2  15   2     131      52                                                         153   -0.56    0.12  1.0000
  15  -3   2     245      64                                                         302   -0.84    0.01  1.0000
   3  15   2     256      63                                                         314   -0.84   -0.01  1.0000
  15  -4   2     743      86                                                         655   -0.67    0.12  1.0000
   4  15   2     742      85                                                         654   -0.67   -0.12  1.0000
   5  15  -2     500      88                                                         538   -0.33    0.06  1.0000
  15  -5   2     616      85                                                         658   -0.33    0.06  1.0000
   5  15   2     519      84                                                         558   -0.33   -0.06  1.0000
   0   0   3    5619     147                                                        4791    2.26   -0.00  1.0000
   1   0  -3     670      31                                                         410    2.35   -0.17  1.0000
   0  -1   3     654      34                                                         397    2.35   -0.17  1.0000
  -1   0   3     621      28                                                         371    2.35    0.17  1.0000
   0   1   3     632      22                                                         380    2.35   -0.17  1.0000
   1   0   3     679      28                                                         417    2.35    0.17  1.0000
   1  -1  -3     184      26                                                         385    2.40   -0.73  1.0000
   1   1  -3     161      33                                                         350    2.40    0.73  1.0000
  -1   1   3     140      22                                                         319    2.40    0.73  1.0000
   1  -1   3     130      31                                                         303    2.40    0.73  1.0000
   1   1   3     169      23                                                         363    2.40   -0.73  1.0000
   1   1   3     149      36                                                         332    2.40   -0.73  1.0000
  -1  -1   3     159      33                                                         347    2.40   -0.73  1.0000
   2   1  -3     925      61                                                        1237    2.52    0.59  1.0000
   1  -2  -3     887      42                                                        1193    2.52   -0.59  1.0000
   1  -2   3     906      62                                                        1215    2.52    0.59  1.0000
  -2  -1   3    1000      61                                                        1324    2.52   -0.59  1.0000
   2   1   3     855      64                                                        1155    2.52   -0.59  1.0000
  -1   2   3     874      53                                                        1177    2.52    0.59  1.0000
   2   0  -3    5587     190                                                        6167    2.52   -0.51  1.0000
   0   2   3    5670     185                                                        6254    2.52   -0.51  1.0000
  -2   0   3    5573     188                                                        6153    2.52    0.51  1.0000
   0  -2   3    5577     198                                                        6156    2.52   -0.51  1.0000
   1   2  -3     123      31                                                         226    2.47    1.26  1.0000
   2  -1  -3      82      21                                                         162    2.47   -1.26  1.0000
  -2   1   3      97      22                                                         185    2.47    1.26  1.0000
   1   2   3     112      29                                                         209    2.47   -1.26  1.0000
  -1  -2   3     106      30                                                         200    2.47   -1.26  1.0000
   2   2  -3     252      46                                                         517    2.43    1.26  1.0000
   2  -2  -3     241      29                                                         501    2.43   -1.26  1.0000
  -2  -2   3     201      42                                                         443    2.43   -1.26  1.0000
  -2   2   3     192      31                                                         430    2.43    1.26  1.0000
   2   2   3     244      25                                                         506    2.43   -1.26  1.0000
   2   2   3     234      46                                                         492    2.43   -1.26  1.0000
   2  -3  -3     128      12                                                          29    2.12   -0.98  1.0000
   3   2  -3     147      22                                                          38    2.12    0.98  1.0000
   3   2   3     120      21                                                          25    2.12   -0.98  1.0000
  -3  -2   3     128      19                                                          29    2.12   -0.98  1.0000
   2  -3   3     108      21                                                          20    2.12    0.98  1.0000
   3   2   3     130      13                                                          30    2.12   -0.98  1.0000
  -2   3   3     120      13                                                          25    2.12    0.98  1.0000
   3   1  -3     487      50                                                         768    2.40    0.29  1.0000
   1  -3   3     524      55                                                         814    2.40    0.29  1.0000
  -3  -1   3     513      49                                                         800    2.40   -0.29  1.0000
   3   1   3     520      56                                                         809    2.40   -0.29  1.0000
  -1   3   3     512      42                                                         799    2.40    0.29  1.0000
   3   0  -3     921      54                                                         936    2.58   -0.61  1.0000
  -3   0   3    1116      55                                                        1137    2.58    0.61  1.0000
   0  -3   3    1084      64                                                        1104    2.58   -0.61  1.0000
  -3   0   3    1023      49                                                        1041    2.58    0.61  1.0000
   0   3   3    1050      52                                                        1069    2.58   -0.61  1.0000
   3   0   3     966      61                                                         982    2.58    0.61  1.0000
   3  -1  -3    7369     194                                                        6268    2.66   -1.24  1.0000
   1   3  -3    7148     208                                                        6063    2.66    1.24  1.0000
   1   3   3    7564     193                                                        6448    2.66   -1.24  1.0000
  -3   1   3    7350     193                                                        6250    2.66    1.24  1.0000
  -1  -3   3    7572     210                                                        6455    2.66   -1.24  1.0000
   2   3  -3     438      50                                                         535    2.50    1.44  1.0000
   3  -2  -3     477      36                                                         581    2.50   -1.44  1.0000
  -3   2   3     456      29                                                         556    2.50    1.44  1.0000
   2   3   3     456      24                                                         557    2.50   -1.44  1.0000
   2   3   3     408      46                                                         501    2.50   -1.44  1.0000
  -2  -3   3     440      50                                                         538    2.50   -1.44  1.0000
   3  -3  -3     737      50                                                        1084    1.87   -1.32  1.0000
   3   3  -3     702      66                                                        1042    1.87    1.32  1.0000
   3   3   3     693      45                                                        1030    1.87   -1.32  1.0000
  -3  -3   3     767      67                                                        1120    1.87   -1.32  1.0000
  -3   3   3     770      41                                                        1124    1.87    1.32  1.0000
   3   3   3     764      64                                                        1117    1.87   -1.32  1.0000
   3  -4  -3     699      36                                                         581    0.77   -0.69  1.0000
   4   3  -3     663      54                                                         548    0.77    0.69  1.0000
   4   3   3     689      37                                                         572    0.77   -0.69  1.0000
  -4  -3   3     740      55                                                         618    0.77   -0.69  1.0000
  -3   4   3     661      26                                                         546    0.77    0.69  1.0000
   4   3   3     715      56                                                         595    0.77   -0.69  1.0000
   2  -4  -3    2959      84                                                        2571    1.32   -0.59  1.0000
   4   2  -3    2980     109                                                        2591    1.32    0.59  1.0000
   2  -4   3    2856     111                                                        2475    1.32    0.59  1.0000
  -4  -2   3    2926     107                                                        2540    1.32   -0.59  1.0000
  -2   4   3    3024      83                                                        2632    1.32    0.59  1.0000
   4   2   3    3000     110                                                        2609    1.32   -0.59  1.0000
   4   2   3    2932      94                                                        2546    1.32   -0.59  1.0000
   4   1  -3    1862      95                                                        2222    1.86    0.23  1.0000
   1  -4  -3    1806      65                                                        2161    1.86   -0.23  1.0000
   1  -4  -3    1824      79                                                        2180    1.86   -0.23  1.0000
  -1   4   3    1786      77                                                        2139    1.86    0.23  1.0000
   1  -4   3    1818      99                                                        2174    1.86    0.23  1.0000
  -4  -1   3    1852      93                                                        2211    1.86   -0.23  1.0000
   4   1   3    1737      96                                                        2085    1.86   -0.23  1.0000
   4   0  -3    1960      79                                                        1722    2.47   -0.30  1.0000
   0  -4   3    2095      91                                                        1849    2.47   -0.30  1.0000
  -4   0   3    1858      77                                                        1625    2.47    0.30  1.0000
   0   4   3    1955      71                                                        1717    2.47   -0.30  1.0000
   4   0   3    2099      88                                                        1853    2.47    0.30  1.0000
  -4   0   3    2132      65                                                        1884    2.47    0.30  1.0000
   4  -1  -3     137      37                                                         382    2.98   -0.87  1.0000
   1   4  -3     146      47                                                         396    2.98    0.87  1.0000
   1   4   3     153      39                                                         408    2.98   -0.87  1.0000
  -1  -4   3     147      48                                                         399    2.98   -0.87  1.0000
  -4   1   3     199      27                                                         481    2.98    0.87  1.0000
  -4   1   3     172      38                                                         439    2.98    0.87  1.0000
   2   4  -3    1476      79                                                        1413    2.83    1.40  1.0000
   4  -2  -3    1452      66                                                        1389    2.83   -1.40  1.0000
   2   4   3    1465      70                                                        1402    2.83   -1.40  1.0000
  -4   2   3    1567      47                                                        1504    2.83    1.40  1.0000
   2   4   3    1482      49                                                        1419    2.83   -1.40  1.0000
  -2  -4   3    1529      79                                                        1466    2.83   -1.40  1.0000
   3   4  -3     630      57                                                         570    1.79    1.46  1.0000
   4  -3  -3     703      42                                                         642    1.79   -1.46  1.0000
   3   4   3     753      49                                                         691    1.79   -1.46  1.0000
   3   4   3     730      35                                                         668    1.79   -1.46  1.0000
  -3  -4   3     781      62                                                         718    1.79   -1.46  1.0000
   4  -4  -3    1502      70                                                        1649    0.30   -0.69  1.0000
   4   4  -3    1293      85                                                        1430    0.30    0.69  1.0000
  -4  -4   3    1435      88                                                        1579    0.30   -0.69  1.0000
   4   4   3    1411      65                                                        1554    0.30   -0.69  1.0000
   4  -5  -3     398      41                                                         492   -1.05    0.33  1.0000
   5   4  -3     379      49                                                         471   -1.05   -0.33  1.0000
   5   4  -3     396      57                                                         490   -1.05   -0.33  1.0000
  -5  -4   3     409      56                                                         505   -1.05    0.33  1.0000
   5   4   3     405      43                                                         500   -1.05    0.33  1.0000
   5   4   3     320      50                                                         405   -1.05    0.33  1.0000
   3  -5  -3    3115     106                                                        3062   -0.50    0.39  1.0000
   5   3  -3    3111     133                                                        3058   -0.50   -0.39  1.0000
   5   3   3    3009     112                                                        2957   -0.50    0.39  1.0000
   3  -5   3    3254     138                                                        3200   -0.50   -0.39  1.0000
  -5  -3   3    3127     131                                                        3074   -0.50    0.39  1.0000
  -3   5   3    3246      92                                                        3192   -0.50   -0.39  1.0000
   5   3   3    3240     128                                                        3186   -0.50    0.39  1.0000
   5   2  -3    3567     137                                                        3442    0.29   -0.31  1.0000
   2  -5  -3    3579     107                                                        3454    0.29    0.31  1.0000
  -2   5   3    3470     105                                                        3347    0.29   -0.31  1.0000
  -5  -2   3    3346     133                                                        3225    0.29    0.31  1.0000
   5   2   3    3635     123                                                        3509    0.29    0.31  1.0000
   2  -5   3    3483     142                                                        3360    0.29   -0.31  1.0000
   5   2   3    3467     135                                                        3344    0.29    0.31  1.0000
   1  -5  -3     231      18                                                         199    1.18    0.22  1.0000
   5   1  -3     196      31                                                         166    1.18   -0.22  1.0000
   1  -5   3     287      41                                                         252    1.18   -0.22  1.0000
   5   1   3     251      30                                                         218    1.18    0.22  1.0000
   5   1   3     244      38                                                         211    1.18    0.22  1.0000
  -1   5   3     254      26                                                         221    1.18   -0.22  1.0000
  -5  -1   3     227      32                                                         195    1.18    0.22  1.0000
   0  -5  -3     871      42                                                        1223    2.21    0.21  1.0000
   5   0  -3     922      69                                                        1283    2.21   -0.21  1.0000
  -5   0   3     963      69                                                        1332    2.21    0.21  1.0000
   0   5   3     913      59                                                        1272    2.21   -0.21  1.0000
   0  -5   3     775      75                                                        1108    2.21   -0.21  1.0000
   5   0   3     802      74                                                        1141    2.21    0.21  1.0000
  -5   0   3     892      50                                                        1248    2.21    0.21  1.0000
  -1  -5  -3     392      27                                                         691    2.97    0.49  1.0000
   5  -1  -3     402      49                                                         705    2.97   -0.49  1.0000
   1   5  -3     340      60                                                         621    2.97    0.49  1.0000
   1   5   3     356      44                                                         643    2.97   -0.49  1.0000
  -1  -5   3     418      65                                                         726    2.97   -0.49  1.0000
   5  -1   3     331      59                                                         608    2.97    0.49  1.0000
  -5   1   3     375      31                                                         668    2.97    0.49  1.0000
  -5   1   3     343      47                                                         625    2.97    0.49  1.0000
   5  -2  -3    1271      74                                                        1558    2.79   -1.00  1.0000
   2   5  -3    1243      87                                                        1528    2.79    1.00  1.0000
  -2  -5  -3    1274      53                                                        1563    2.79    1.00  1.0000
  -2  -5   3    1151      84                                                        1423    2.79   -1.00  1.0000
   2   5   3    1156      55                                                        1429    2.79   -1.00  1.0000
   2   5   3    1195      73                                                        1473    2.79   -1.00  1.0000
  -3  -5  -3     107      23                                                         231    1.62    1.11  1.0000
   5  -3  -3      87      30                                                         201    1.62   -1.11  1.0000
   3   5  -3      94      39                                                         211    1.62    1.11  1.0000
  -3  -5   3     110      40                                                         235    1.62   -1.11  1.0000
   3   5   3     123      25                                                         255    1.62   -1.11  1.0000
   3   5   3     119      37                                                         249    1.62   -1.11  1.0000
   4   5  -3     143      34                                                         112    0.15    0.55  1.0000
  -4  -5  -3     168      22                                                         135    0.15    0.55  1.0000
   5  -4  -3     130      24                                                         101    0.15   -0.55  1.0000
   4   5   3     115      27                                                          88    0.15   -0.55  1.0000
   4   5   3     144      22                                                         113    0.15   -0.55  1.0000
  -4  -5   3      70      29                                                          49    0.15   -0.55  1.0000
   5   5  -3    1016      78                                                        1068   -0.97   -0.02  1.0000
   5  -5  -3     911      58                                                         960   -0.97    0.02  1.0000
   5   5  -3     858      65                                                         906   -0.97   -0.02  1.0000
   5   5   3     904      55                                                         953   -0.97    0.02  1.0000
  -5  -5   3    1104      76                                                        1159   -0.97    0.02  1.0000
   5   5   3     909      77                                                         958   -0.97    0.02  1.0000
   5  -6  -3    1577      89                                                        1895   -1.51    0.00  1.0000
   6   5  -3    1758     114                                                        2094   -1.51   -0.00  1.0000
   6   5  -3    1631      96                                                        1955   -1.51   -0.00  1.0000
  -6  -5   3    1767     111                                                        2103   -1.51    0.00  1.0000
   6   5   3    1629      90                                                        1953   -1.51    0.00  1.0000
   6   5   3    1624     102                                                        1947   -1.51    0.00  1.0000
   6   4  -3    1259      78                                                        1015   -1.87   -0.68  1.0000
   6   4  -3    1531      69                                                        1262   -1.87   -0.68  1.0000
  -6  -4   3    1508      82                                                        1241   -1.87    0.68  1.0000
   6   4   3    1389      75                                                        1133   -1.87    0.68  1.0000
  -4   6   3    1377      41                                                        1122   -1.87   -0.68  1.0000
   6   4   3    1502      66                                                        1236   -1.87    0.68  1.0000
   6   3  -3    1507      85                                                        1894   -1.45   -1.19  1.0000
   3  -6  -3    1430      67                                                        1807   -1.45    1.19  1.0000
   6   3  -3    1533     101                                                        1923   -1.45   -1.19  1.0000
   6   3   3    1597      99                                                        1994   -1.45    1.19  1.0000
   3  -6   3    1551     107                                                        1943   -1.45   -1.19  1.0000
   6   3   3    1505      87                                                        1891   -1.45    1.19  1.0000
  -3   6   3    1554      65                                                        1947   -1.45   -1.19  1.0000
  -6  -3   3    1587     100                                                        1983   -1.45    1.19  1.0000
   6   2  -3    2797     110                                                        3005   -0.48   -1.45  1.0000
   6   2  -3    2826     132                                                        3035   -0.48   -1.45  1.0000
   2  -6   3    2904     138                                                        3116   -0.48   -1.45  1.0000
  -2   6   3    2769      98                                                        2976   -0.48   -1.45  1.0000
   6   2   3    2767     119                                                        2974   -0.48    1.45  1.0000
  -6  -2   3    3005     131                                                        3221   -0.48    1.45  1.0000
   6   1  -3     397      43                                                         305    0.70   -1.32  1.0000
   1  -6  -3     477      28                                                         376    0.70    1.32  1.0000
   6   1   3     428      39                                                         333    0.70    1.32  1.0000
  -6  -1   3     422      42                                                         327    0.70    1.32  1.0000
   6   1   3     518      52                                                         413    0.70    1.32  1.0000
  -1   6   3     497      34                                                         394    0.70   -1.32  1.0000
   1  -6   3     491      51                                                         389    0.70   -1.32  1.0000
   6   0  -3     205      41                                                         288    1.74   -0.87  1.0000
   0  -6  -3     248      25                                                         341    1.74    0.87  1.0000
  -6   0   3     216      40                                                         302    1.74    0.87  1.0000
   0   6   3     234      35                                                         324    1.74   -0.87  1.0000
   6   0   3     210      44                                                         295    1.74    0.87  1.0000
  -6   0   3     272      29                                                         370    1.74    0.87  1.0000
   0  -6   3     233      48                                                         322    1.74   -0.87  1.0000
   1   6  -3     140      38                                                         178    2.17    0.46  1.0000
  -1  -6  -3     196      22                                                         247    2.17    0.46  1.0000
   6  -1  -3     182      36                                                         230    2.17   -0.46  1.0000
   6  -1   3     220      44                                                         276    2.17    0.46  1.0000
  -6   1   3     202      37                                                         254    2.17    0.46  1.0000
   1   6   3     156      30                                                         199    2.17   -0.46  1.0000
  -6   1   3     212      21                                                         266    2.17    0.46  1.0000
  -1  -6   3     240      48                                                         300    2.17   -0.46  1.0000
   6  -2  -3    1810      75                                                        1445    1.79   -0.24  1.0000
   2   6  -3    1777      88                                                        1416    1.79    0.24  1.0000
  -2  -6  -3    1805      56                                                        1441    1.79    0.24  1.0000
   6  -2   3    1626      80                                                        1281    1.79    0.24  1.0000
   2   6   3    1776      58                                                        1415    1.79   -0.24  1.0000
   2   6   3    1819      73                                                        1453    1.79   -0.24  1.0000
  -2  -6   3    1961      91                                                        1581    1.79   -0.24  1.0000
   6  -3  -3     408      45                                                         420    0.94   -0.06  1.0000
  -3  -6  -3     338      30                                                         349    0.94    0.06  1.0000
   3   6  -3     399      54                                                         411    0.94    0.06  1.0000
   3   6   3     314      42                                                         324    0.94   -0.06  1.0000
   3   6   3     383      34                                                         395    0.94   -0.06  1.0000
  -3  -6   3     562      64                                                         577    0.94   -0.06  1.0000
   6  -4  -3     329      41                                                         324    0.14    0.01  1.0000
  -4  -6  -3     274      30                                                         269    0.14   -0.01  1.0000
   4   6  -3     343      52                                                         338    0.14   -0.01  1.0000
   4   6   3     237      30                                                         233    0.14    0.01  1.0000
   4   6   3     296      42                                                         291    0.14    0.01  1.0000
  -4  -6   3     341      52                                                         336    0.14    0.01  1.0000
   5   6  -3     940      84                                                         927   -0.39    0.26  1.0000
   6  -5  -3     833      56                                                         821   -0.39   -0.26  1.0000
  -5  -6  -3     826      50                                                         814   -0.39    0.26  1.0000
   5   6  -3     783      71                                                         771   -0.39    0.26  1.0000
   5   6   3     802      71                                                         790   -0.39   -0.26  1.0000
  -5  -6   3     786      75                                                         774   -0.39   -0.26  1.0000
   5   6   3     846      52                                                         834   -0.39   -0.26  1.0000
   6   6  -3    1466      81                                                        1299   -0.63    0.64  1.0000
   6  -6  -3    1610      77                                                        1434   -0.63   -0.64  1.0000
  -6  -6  -3    1398      69                                                        1235   -0.63    0.64  1.0000
   6   6  -3    1374      92                                                        1212   -0.63    0.64  1.0000
   6   6   3    1353      82                                                        1192   -0.63   -0.64  1.0000
   6   6   3    1423      71                                                        1258   -0.63   -0.64  1.0000
  -6  -6   3    1467      90                                                        1300   -0.63   -0.64  1.0000
  -7  -6  -3     434      53                                                         511   -0.51    0.61  1.0000
   7   6  -3     393      57                                                         466   -0.51    0.61  1.0000
   7   6  -3     418      68                                                         493   -0.51    0.61  1.0000
   7   6   3     427      54                                                         503   -0.51   -0.61  1.0000
  -7  -6   3     409      66                                                         484   -0.51   -0.61  1.0000
   7   6   3     395      62                                                         468   -0.51   -0.61  1.0000
   7   5  -3     681      57                                                         523   -1.37    0.10  1.0000
   7   5  -3     720      68                                                         558   -1.37    0.10  1.0000
   7   5   3     664      52                                                         508   -1.37   -0.10  1.0000
  -7  -5   3     698      65                                                         538   -1.37   -0.10  1.0000
   7   5   3     680      63                                                         522   -1.37   -0.10  1.0000
   4  -7  -3     190      16                                                          80   -1.83    0.54  1.0000
   7   4  -3      72      30                                                          13   -1.83   -0.54  1.0000
   7   4  -3     157      26                                                          59   -1.83   -0.54  1.0000
   4  -7   3      67      34                                                          11   -1.83   -0.54  1.0000
   7   4   3     178      32                                                          72   -1.83    0.54  1.0000
  -4   7   3     184      16                                                          76   -1.83   -0.54  1.0000
  -7  -4   3     197      32                                                          84   -1.83    0.54  1.0000
   7   4   3      89      24                                                          21   -1.83    0.54  1.0000
   7   3  -3     716      48                                                         468   -1.58   -1.26  1.0000
   7   3  -3     932      68                                                         645   -1.58   -1.26  1.0000
   3  -7  -3     821      37                                                         554   -1.58    1.26  1.0000
   7   3   3     765      61                                                         508   -1.58    1.26  1.0000
   7   3   3     877      55                                                         600   -1.58    1.26  1.0000
   3  -7   3     928      72                                                         642   -1.58   -1.26  1.0000
  -7  -3   3     928      65                                                         642   -1.58    1.26  1.0000
  -3   7   3     888      36                                                         609   -1.58   -1.26  1.0000
   7   2  -3    1824      81                                                        1914   -0.71   -1.82  1.0000
   7   2  -3    1821     103                                                        1911   -0.71   -1.82  1.0000
   2  -7  -3    1868      80                                                        1960   -0.71    1.82  1.0000
  -7  -2   3    1648      96                                                        1733   -0.71    1.82  1.0000
   7   2   3    1762     100                                                        1850   -0.71    1.82  1.0000
  -2   7   3    1860      73                                                        1952   -0.71   -1.82  1.0000
   2  -7   3    1730     106                                                        1817   -0.71   -1.82  1.0000
   7   2   3    1748      91                                                        1836   -0.71    1.82  1.0000
   1  -7  -3     517      44                                                         728    0.34    1.92  1.0000
   7   1  -3     584      46                                                         807    0.34   -1.92  1.0000
   7   1  -3     677      65                                                         916    0.34   -1.92  1.0000
  -1   7   3     541      45                                                         756    0.34   -1.92  1.0000
   7   1   3     542      57                                                         758    0.34    1.92  1.0000
   1  -7   3     430      67                                                         623    0.34   -1.92  1.0000
   7   1   3     512      70                                                         722    0.34    1.92  1.0000
  -7  -1   3     523      66                                                         735    0.34    1.92  1.0000
   7   0  -3     713      57                                                         566    0.93   -1.46  1.0000
   0  -7  -3     661      36                                                         520    0.93    1.46  1.0000
  -7   0   3     623      52                                                         486    0.93    1.46  1.0000
   7   0   3     550      54                                                         421    0.93    1.46  1.0000
   0   7   3     692      45                                                         547    0.93   -1.46  1.0000
   7   0   3     747      57                                                         597    0.93    1.46  1.0000
   0  -7   3     702      66                                                         556    0.93   -1.46  1.0000
  -1  -7  -3    1174      53                                                        1167    0.77    0.60  1.0000
   1   7  -3    1130      81                                                        1123    0.77    0.60  1.0000
   7  -1  -3    1068      72                                                        1061    0.77   -0.60  1.0000
   7  -1   3    1325      81                                                        1318    0.77    0.60  1.0000
  -1  -7   3    1071      82                                                        1064    0.77   -0.60  1.0000
   1   7   3    1134      63                                                        1127    0.77   -0.60  1.0000
  -7   1   3    1173      74                                                        1166    0.77    0.60  1.0000
  -7   1   3    1265      47                                                        1258    0.77    0.60  1.0000
   7  -2  -3     232      41                                                         245    0.24    0.39  1.0000
  -2  -7  -3     246      28                                                         259    0.24   -0.39  1.0000
   2   7  -3     232      46                                                         245    0.24   -0.39  1.0000
   7  -2   3     279      48                                                         293    0.24   -0.39  1.0000
  -2  -7   3     239      50                                                         252    0.24    0.39  1.0000
   2   7   3     242      37                                                         255    0.24    0.39  1.0000
   3   7  -3     814      74                                                         724   -0.07   -0.98  1.0000
  -3  -7  -3     922      46                                                         826   -0.07   -0.98  1.0000
   7  -3  -3     876      58                                                         783   -0.07    0.98  1.0000
   3   7   3     830      46                                                         739   -0.07    0.98  1.0000
   7  -3   3     766      69                                                         679   -0.07   -0.98  1.0000
   3   7   3     837      64                                                         746   -0.07    0.98  1.0000
  -3  -7   3     724      69                                                         639   -0.07    0.98  1.0000
   4   7  -3     392      58                                                         391   -0.04   -0.71  1.0000
  -4  -7  -3     510      42                                                         509   -0.04   -0.71  1.0000
   7  -4  -3     481      52                                                         480   -0.04    0.71  1.0000
  -4  -7   3     360      55                                                         359   -0.04    0.71  1.0000
   4   7   3     384      49                                                         383   -0.04    0.71  1.0000
   4   7   3     468      43                                                         467   -0.04    0.71  1.0000
   5   7  -3      58      36                                                          58    0.05    0.19  1.0000
   5   7  -3      84      35                                                          84    0.05    0.19  1.0000
  -5  -7  -3      81      24                                                          81    0.05    0.19  1.0000
   7  -5  -3     104      31                                                         104    0.05   -0.19  1.0000
   5   7   3     165      38                                                         166    0.05   -0.19  1.0000
  -5  -7   3      33      33                                                          33    0.05   -0.19  1.0000
   5   7   3      58      24                                                          58    0.05   -0.19  1.0000
  -6  -7  -3      74      28                                                          88    0.13    0.84  1.0000
   6   7  -3      40      34                                                          50    0.13    0.84  1.0000
   6   7  -3     113      37                                                         131    0.13    0.84  1.0000
   7  -6  -3     115      33                                                         134    0.13   -0.84  1.0000
  -6  -7   3      55      37                                                          67    0.13   -0.84  1.0000
   6   7   3      85      31                                                         101    0.13   -0.84  1.0000
   6   7   3      53      36                                                          64    0.13   -0.84  1.0000
   7   7  -3     199      48                                                         150    0.33    0.85  1.0000
   7   7  -3      38      32                                                          18    0.33    0.85  1.0000
  -7  -7  -3     124      31                                                          86    0.33    0.85  1.0000
   7  -7  -3      99      31                                                          65    0.33   -0.85  1.0000
   7   7   3     110      36                                                          74    0.33   -0.85  1.0000
   7   7   3     160      33                                                         117    0.33   -0.85  1.0000
   8   7  -3     861     101                                                         990    0.52    0.66  1.0000
  -8  -7  -3     998      76                                                        1136    0.52    0.66  1.0000
   8   7  -3    1147      87                                                        1295    0.52    0.66  1.0000
   8   7   3    1123      84                                                        1270    0.52   -0.66  1.0000
   8   7   3    1122     102                                                        1268    0.52   -0.66  1.0000
   8   6  -3    2328     130                                                        2273   -0.15    0.25  1.0000
   8   6  -3    2112     106                                                        2060   -0.15    0.25  1.0000
   8   6   3    2170     117                                                        2117   -0.15   -0.25  1.0000
   8   6   3    1869     102                                                        1820   -0.15   -0.25  1.0000
   8   5  -3    1152      93                                                        1243   -0.66   -0.28  1.0000
   8   5  -3     953      72                                                        1036   -0.66   -0.28  1.0000
   8   5   3    1162      79                                                        1253   -0.66    0.28  1.0000
  -8  -5   3    1178      93                                                        1270   -0.66    0.28  1.0000
   8   5   3    1198      89                                                        1290   -0.66    0.28  1.0000
   8   4  -3       9      27                                                          -6   -0.85   -0.80  1.0000
   4  -8  -3      21      16                                                          11   -0.85    0.80  1.0000
   8   4  -3       9      23                                                           0   -0.85   -0.80  1.0000
   8   4   3       9      26                                                         -55   -0.85    0.80  1.0000
  -4   8   3      19      16                                                           9   -0.85   -0.80  1.0000
   4  -8   3       9      32                                                         -13   -0.85   -0.80  1.0000
   8   4   3      40      26                                                          29   -0.85    0.80  1.0000
  -8  -4   3       9      24                                                         -34   -0.85    0.80  1.0000
   3  -8  -3     449      53                                                         611   -0.74    1.17  1.0000
   8   3  -3     458      55                                                         621   -0.74   -1.17  1.0000
   8   3  -3     496      72                                                         666   -0.74   -1.17  1.0000
  -3   8   3     466      40                                                         631   -0.74   -1.17  1.0000
   8   3   3     450      60                                                         612   -0.74    1.17  1.0000
   8   3   3     416      66                                                         572   -0.74    1.17  1.0000
   3  -8   3     423      74                                                         581   -0.74   -1.17  1.0000
  -8  -3   3     420      67                                                         577   -0.74    1.17  1.0000
   2  -8  -3    1379      67                                                        1312   -0.40    1.26  1.0000
   8   2  -3    1254      84                                                        1190   -0.40   -1.26  1.0000
   8   2  -3    1300      65                                                        1235   -0.40   -1.26  1.0000
  -2   8   3    1313      59                                                        1247   -0.40   -1.26  1.0000
   8   2   3    1456      81                                                        1388   -0.40    1.26  1.0000
   8   2   3    1280      85                                                        1215   -0.40    1.26  1.0000
  -8  -2   3    1200      80                                                        1137   -0.40    1.26  1.0000
   2  -8   3    1462      94                                                        1393   -0.40   -1.26  1.0000
   1  -8  -3     335      33                                                         270   -0.06    1.13  1.0000
   8   1  -3     336      46                                                         271   -0.06   -1.13  1.0000
   8   1  -3     349      32                                                         282   -0.06   -1.13  1.0000
  -8  -1   3     275      41                                                         216   -0.06    1.13  1.0000
   8   1   3     250      42                                                         193   -0.06    1.13  1.0000
   1  -8   3     316      48                                                         253   -0.06   -1.13  1.0000
  -1   8   3     393      35                                                         322   -0.06   -1.13  1.0000
   8   1   3     314      41                                                         251   -0.06    1.13  1.0000
   8   0  -3      40      29                                                          58   -0.05   -0.83  1.0000
   8   0  -3      34      18                                                          51   -0.05   -0.83  1.0000
   0  -8  -3      40      20                                                          58   -0.05    0.83  1.0000
   8   0   3       4      26                                                          -2   -0.05    0.83  1.0000
   0  -8   3      18      30                                                          30   -0.05   -0.83  1.0000
   0   8   3      28      23                                                          43   -0.05   -0.83  1.0000
   8   0   3      35      30                                                          52   -0.05    0.83  1.0000
  -8   0   3      21      27                                                          34   -0.05    0.83  1.0000
   8  -1  -3     534      56                                                         479   -0.42   -0.23  1.0000
  -1  -8  -3     536      40                                                         481   -0.42    0.23  1.0000
   1   8   3     606      50                                                         547   -0.42   -0.23  1.0000
  -8   1   3     503      32                                                         450   -0.42    0.23  1.0000
   8  -1   3     436      55                                                         386   -0.42    0.23  1.0000
  -1  -8   3     435      58                                                         385   -0.42   -0.23  1.0000
   2   8  -3      50      39                                                          88   -0.77   -0.62  1.0000
   8  -2  -3      80      34                                                         127   -0.77    0.62  1.0000
  -2  -8  -3      93      25                                                         143   -0.77   -0.62  1.0000
  -2  -8   3      76      41                                                         122   -0.77    0.62  1.0000
   8  -2   3     120      41                                                         176   -0.77   -0.62  1.0000
   2   8   3      58      29                                                          99   -0.77    0.62  1.0000
   8  -3  -3     170      33                                                         116   -0.70    1.12  1.0000
   3   8  -3     168      40                                                         114   -0.70   -1.12  1.0000
  -3  -8  -3     157      24                                                         105   -0.70   -1.12  1.0000
   8  -3   3     119      33                                                          73   -0.70   -1.12  1.0000
  -3  -8   3      65      31                                                          31   -0.70    1.12  1.0000
   3   8   3     132      26                                                          84   -0.70    1.12  1.0000
   3   8   3     195      34                                                         137   -0.70    1.12  1.0000
  -4  -8  -3     599      46                                                         647   -0.35   -0.78  1.0000
   8  -4  -3     547      61                                                         593   -0.35    0.78  1.0000
   4   8  -3     458      67                                                         500   -0.35   -0.78  1.0000
   4   8   3     603      63                                                         651   -0.35    0.78  1.0000
  -4  -8   3     422      65                                                         462   -0.35    0.78  1.0000
   4   8   3     559      52                                                         605   -0.35    0.78  1.0000
   8  -4   3     501      66                                                         545   -0.35   -0.78  1.0000
   8  -5  -3     107      34                                                         109    0.04   -0.01  1.0000
   5   8  -3      53      34                                                          54    0.04    0.01  1.0000
   5   8  -3     114      43                                                         116    0.04    0.01  1.0000
  -5  -8  -3      55      25                                                          56    0.04    0.01  1.0000
   5   8   3     104      29                                                         106    0.04   -0.01  1.0000
   5   8   3     112      36                                                         114    0.04   -0.01  1.0000
   8  -6  -3     429      58                                                         480    0.44   -0.55  1.0000
  -6  -8  -3     438      52                                                         490    0.44    0.55  1.0000
   6   8  -3     413      70                                                         463    0.44    0.55  1.0000
   6   8  -3     399      61                                                         449    0.44    0.55  1.0000
   6   8   3     415      60                                                         466    0.44   -0.55  1.0000
   6   8   3     501      56                                                         557    0.44   -0.55  1.0000
   8  -7  -3     382      55                                                         397    0.88   -0.71  1.0000
   7   8  -3     427      69                                                         443    0.88    0.71  1.0000
   7   8  -3     337      59                                                         350    0.88    0.71  1.0000
  -7  -8  -3     390      50                                                         405    0.88    0.71  1.0000
   7   8   3     429      55                                                         445    0.88   -0.71  1.0000
   7   8   3     373      63                                                         388    0.88   -0.71  1.0000
   8   8  -3      86      37                                                          37    1.03    0.78  1.0000
   8  -8  -3      34      31                                                           7    1.03   -0.78  1.0000
  -8  -8  -3     115      31                                                          57    1.03    0.78  1.0000
   8   8  -3     193      47                                                         115    1.03    0.78  1.0000
   8   8   3      80      36                                                          33    1.03   -0.78  1.0000
   8   8   3     125      34                                                          64    1.03   -0.78  1.0000
   9   8  -3      91      46                                                         143    0.64    0.70  1.0000
  -9  -8  -3     171      45                                                         239    0.64    0.70  1.0000
   9   8   3     144      49                                                         207    0.64   -0.70  1.0000
   9   8   3     177      56                                                         246    0.64   -0.70  1.0000
   9   7  -3      80      39                                                          68    0.41    0.58  1.0000
   9   7  -3     118      50                                                         104    0.41    0.58  1.0000
   9   7   3      88      41                                                          76    0.41   -0.58  1.0000
   9   7   3      90      37                                                          78    0.41   -0.58  1.0000
   9   6  -3     455      60                                                         461    0.10    0.07  1.0000
   9   6  -3     506      75                                                         512    0.10    0.07  1.0000
   9   6   3     598      67                                                         605    0.10   -0.07  1.0000
   9   6   3     489      67                                                         495    0.10   -0.07  1.0000
   9   5  -3    1095     103                                                        1157    0.14   -0.69  1.0000
   9   5  -3    1142      79                                                        1205    0.14   -0.69  1.0000
   9   5   3    1175      85                                                        1239    0.14    0.69  1.0000
   9   5   3    1026      97                                                        1086    0.14    0.69  1.0000
   9   4  -3    1596     111                                                        1766    0.41   -1.31  1.0000
   9   4  -3    1535      89                                                        1702    0.41   -1.31  1.0000
   9   4   3    1313     101                                                        1467    0.41    1.31  1.0000
   9   4   3    1482      97                                                        1645    0.41    1.31  1.0000
   9   3  -3    2438      97                                                        2126    0.47   -1.31  1.0000
   9   3  -3    2401     122                                                        2092    0.47   -1.31  1.0000
   3  -9  -3    2598     102                                                        2276    0.47    1.31  1.0000
  -9  -3   3    2569     123                                                        2249    0.47    1.31  1.0000
  -3   9   3    2564      87                                                        2244    0.47   -1.31  1.0000
   9   3   3    2242     113                                                        1943    0.47    1.31  1.0000
   9   3   3    2454     110                                                        2141    0.47    1.31  1.0000
   9   2  -3     964      90                                                        1044    0.16   -0.68  1.0000
   2  -9  -3    1092      66                                                        1177    0.16    0.68  1.0000
   9   2  -3     967      61                                                        1047    0.16   -0.68  1.0000
   9   2   3    1079      78                                                        1163    0.16    0.68  1.0000
  -2   9   3    1006      60                                                        1088    0.16   -0.68  1.0000
  -9  -2   3     974      90                                                        1054    0.16    0.68  1.0000
   2  -9   3    1082     101                                                        1167    0.16   -0.68  1.0000
   9   1  -3      99      36                                                         106   -0.32    0.05  1.0000
   9   1  -3      80      23                                                          87   -0.32    0.05  1.0000
   1  -9  -3      82      25                                                          89   -0.32   -0.05  1.0000
   9   1   3      34      35                                                          38   -0.32   -0.05  1.0000
  -9  -1   3       1      27                                                          -6   -0.32   -0.05  1.0000
   1  -9   3      67      39                                                          73   -0.32    0.05  1.0000
  -1   9   3      90      28                                                          97   -0.32    0.05  1.0000
   9   1   3      39      30                                                          43   -0.32   -0.05  1.0000
   9   0  -3     206      42                                                         150   -0.67    0.47  1.0000
   0  -9  -3     254      32                                                         192   -0.67   -0.47  1.0000
   9   0  -3     226      26                                                         168   -0.67    0.47  1.0000
   0   9   3     218      32                                                         161   -0.67    0.47  1.0000
   9   0   3     359      51                                                         284   -0.67   -0.47  1.0000
   9   0   3     298      45                                                         230   -0.67   -0.47  1.0000
  -9   0   3     319      48                                                         249   -0.67   -0.47  1.0000
   0  -9   3     294      49                                                         227   -0.67    0.47  1.0000
   9  -1  -3      25      27                                                          15   -0.80    0.65  1.0000
  -1  -9  -3      46      22                                                          35   -0.80   -0.65  1.0000
   9  -1  -3      32      16                                                          22   -0.80    0.65  1.0000
  -1  -9   3      40      35                                                          29   -0.80    0.65  1.0000
   1   9   3      32      25                                                          22   -0.80    0.65  1.0000
  -9   1   3      21      18                                                          12   -0.80   -0.65  1.0000
   9  -1   3       9      33                                                           1   -0.80   -0.65  1.0000
   9  -1   3       7      26                                                          -1   -0.80   -0.65  1.0000
  -2  -9  -3       7      20                                                          -2   -0.75   -0.71  1.0000
   2   9  -3       7      29                                                         -27   -0.75   -0.71  1.0000
   9  -2  -3       7      28                                                         -11   -0.75    0.71  1.0000
  -2  -9   3      16      33                                                          16   -0.75    0.71  1.0000
   9  -2   3       7      30                                                         -22   -0.75   -0.71  1.0000
   2   9   3       6      23                                                           1   -0.75    0.71  1.0000
   3   9  -3     577      79                                                         640   -0.61   -0.54  1.0000
   9  -3  -3     615      71                                                         680   -0.61    0.54  1.0000
  -3  -9  -3     623      50                                                         688   -0.61   -0.54  1.0000
   3   9   3     561      55                                                         623   -0.61    0.54  1.0000
   9  -3   3     471      67                                                         527   -0.61   -0.54  1.0000
   3   9   3     629      65                                                         694   -0.61    0.54  1.0000
  -4  -9  -3     546      52                                                         579   -0.42   -0.18  1.0000
   4   9  -3     483      72                                                         515   -0.42   -0.18  1.0000
   9  -4  -3     490      64                                                         522   -0.42    0.18  1.0000
   4   9   3     579      56                                                         614   -0.42    0.18  1.0000
   4   9   3     552      63                                                         586   -0.42    0.18  1.0000
   9  -4   3     424      62                                                         453   -0.42   -0.18  1.0000
  -5  -9  -3      73      29                                                          71   -0.05    0.10  1.0000
   9  -5  -3      68      33                                                          66   -0.05   -0.10  1.0000
   5   9  -3      83      41                                                          80   -0.05    0.10  1.0000
   5   9  -3      57      40                                                          55   -0.05    0.10  1.0000
   9  -5   3      29      36                                                          27   -0.05    0.10  1.0000
   5   9   3      35      28                                                          33   -0.05   -0.10  1.0000
   5   9   3      38      32                                                          36   -0.05   -0.10  1.0000
   9  -6  -3     186      47                                                         213    0.60   -0.22  1.0000
   6   9  -3     209      57                                                         237    0.60    0.22  1.0000
  -6  -9  -3     193      39                                                         220    0.60    0.22  1.0000
   6   9  -3     112      50                                                         132    0.60    0.22  1.0000
   6   9   3     214      49                                                         243    0.60   -0.22  1.0000
   6   9   3     194      43                                                         221    0.60   -0.22  1.0000
   7   9  -3     586      77                                                         484    1.16    0.38  1.0000
  -7  -9  -3     545      54                                                         447    1.16    0.38  1.0000
   9  -7  -3     677      66                                                         567    1.16   -0.38  1.0000
   7   9  -3     465      64                                                         374    1.16    0.38  1.0000
   7   9   3     530      63                                                         433    1.16   -0.38  1.0000
   7   9   3     491      57                                                         397    1.16   -0.38  1.0000
   8   9  -3     770      92                                                         937    1.12    0.53  1.0000
  -8  -9  -3     735      78                                                         898    1.12    0.53  1.0000
   9  -8  -3     769      87                                                         935    1.12   -0.53  1.0000
   8   9   3     625      78                                                         775    1.12   -0.53  1.0000
   8   9   3     769      93                                                         935    1.12   -0.53  1.0000
   9  -9  -3     107      41                                                          81    0.42   -0.43  1.0000
   9   9  -3     165      46                                                         132    0.42    0.43  1.0000
  -9  -9  -3     138      40                                                         108    0.42    0.43  1.0000
   9   9   3     139      46                                                         109    0.42   -0.43  1.0000
   9   9   3      92      46                                                          68    0.42   -0.43  1.0000
  10   9  -3      13      42                                                          18   -0.25    0.14  1.0000
   9 -10  -3      39      40                                                          48   -0.25   -0.14  1.0000
  10   9   3      21      39                                                          28   -0.25   -0.14  1.0000
  10   9   3      29      40                                                          37   -0.25   -0.14  1.0000
  10   8  -3      29      38                                                          27    0.07    0.32  1.0000
  10   8   3       8      36                                                           7    0.07   -0.32  1.0000
  10   8   3      54      43                                                          52    0.07   -0.32  1.0000
  10   7  -3     677      73                                                         635    0.11    0.34  1.0000
  10   7   3     663      80                                                         621    0.11   -0.34  1.0000
  10   7   3     769      80                                                         724    0.11   -0.34  1.0000
  10   6  -3     352      56                                                         351    0.15    0.07  1.0000
  10   6  -3     475      75                                                         474    0.15    0.07  1.0000
  10   6   3     404      60                                                         403    0.15   -0.07  1.0000
  10   6   3     292      60                                                         291    0.15   -0.07  1.0000
  10   5  -3     180      49                                                         135    0.51   -0.50  1.0000
  10   5  -3     123      37                                                          86    0.51   -0.50  1.0000
  10   5   3      99      40                                                          66    0.51    0.50  1.0000
  10   5   3     194      50                                                         147    0.51    0.50  1.0000
  10   4  -3     451      54                                                         423    1.02   -1.01  1.0000
  10   4  -3     502      70                                                         473    1.02   -1.01  1.0000
   4 -10  -3     584      60                                                         554    1.02    1.01  1.0000
  10   4   3     437      65                                                         409    1.02    1.01  1.0000
  10   4   3     391      58                                                         364    1.02    1.01  1.0000
  10   3  -3    1014      77                                                        1259    1.10   -1.00  1.0000
  10   3  -3    1297     109                                                        1573    1.10   -1.00  1.0000
   3 -10  -3    1262      87                                                        1534    1.10    1.00  1.0000
  10   3   3    1249      97                                                        1520    1.10    1.00  1.0000
  -3  10   3    1219      73                                                        1486    1.10   -1.00  1.0000
  10   3   3    1210     102                                                        1477    1.10    1.00  1.0000
  10   2  -3     535      48                                                         457    0.53   -0.44  1.0000
  10   2  -3     596      69                                                         514    0.53   -0.44  1.0000
   2 -10  -3     580      54                                                         499    0.53    0.44  1.0000
  10   2   3     507      63                                                         432    0.53    0.44  1.0000
  10   2   3     616      65                                                         533    0.53    0.44  1.0000
  -2  10   3     695      52                                                         606    0.53   -0.44  1.0000
  10   1  -3     123      28                                                         109   -0.24    0.31  1.0000
   1 -10  -3     114      31                                                         100   -0.24   -0.31  1.0000
  10   1  -3     140      43                                                         125   -0.24    0.31  1.0000
  10   1   3     127      38                                                         112   -0.24   -0.31  1.0000
  10   1   3      19      35                                                          13   -0.24   -0.31  1.0000
  -1  10   3     103      29                                                          90   -0.24    0.31  1.0000
  10   0  -3      44      25                                                          72   -0.63    0.88  1.0000
   0 -10  -3      25      27                                                          46   -0.63   -0.88  1.0000
  10   0  -3      21      33                                                          40   -0.63    0.88  1.0000
   0  10   3      50      30                                                          80   -0.63    0.88  1.0000
  10   0   3      39      36                                                          65   -0.63   -0.88  1.0000
  10   0   3      40      35                                                          66   -0.63   -0.88  1.0000
  10  -1  -3     193      29                                                         271   -0.51    1.03  1.0000
  10  -1  -3     123      46                                                         186   -0.51    1.03  1.0000
  -1 -10  -3     251      41                                                         339   -0.51   -1.03  1.0000
   1  10   3     165      41                                                         237   -0.51    1.03  1.0000
  10  -1   3     192      52                                                         269   -0.51   -1.03  1.0000
  10  -1   3      85      44                                                         138   -0.51   -1.03  1.0000
   2  10  -3       3      31                                                         -13   -0.24   -0.67  1.0000
  -2 -10  -3      16      23                                                           5   -0.24   -0.67  1.0000
  10  -2  -3       3      29                                                         -15   -0.24    0.67  1.0000
  10  -2   3       3      30                                                         -38   -0.24   -0.67  1.0000
   2  10   3      59      27                                                          35   -0.24    0.67  1.0000
   3  10  -3     376      66                                                         379   -0.18   -0.03  1.0000
  -3 -10  -3     370      44                                                         373   -0.18   -0.03  1.0000
  10  -3  -3     281      54                                                         283   -0.18    0.03  1.0000
   3  10   3     415      55                                                         418   -0.18    0.03  1.0000
  10  -3   3     336      60                                                         339   -0.18   -0.03  1.0000
  10  -4  -3      55      36                                                          57   -0.19   -0.33  1.0000
  -4 -10  -3      65      28                                                          68   -0.19    0.33  1.0000
   4  10  -3      57      46                                                          59   -0.19    0.33  1.0000
  10  -4   3       1      33                                                         -20   -0.19    0.33  1.0000
   4  10   3      73      30                                                          76   -0.19   -0.33  1.0000
   4  10   3      14      30                                                          15   -0.19   -0.33  1.0000
  -5 -10  -3     402      51                                                         415    0.12    0.25  1.0000
  10  -5  -3     413      60                                                         426    0.12   -0.25  1.0000
   5  10  -3     318      65                                                         330    0.12    0.25  1.0000
   5  10   3     345      50                                                         357    0.12   -0.25  1.0000
  10  -5   3     307      58                                                         319    0.12    0.25  1.0000
   5  10   3     360      56                                                         372    0.12   -0.25  1.0000
   6  10  -3     524      76                                                         469    0.76    0.09  1.0000
  10  -6  -3     546      65                                                         490    0.76   -0.09  1.0000
   6  10  -3     424      66                                                         375    0.76    0.09  1.0000
  -6 -10  -3     570      57                                                         513    0.76    0.09  1.0000
  10  -6   3     537      68                                                         482    0.76    0.09  1.0000
   6  10   3     609      62                                                         550    0.76   -0.09  1.0000
   6  10   3     575      67                                                         518    0.76   -0.09  1.0000
   7  10  -3     246      58                                                         238    1.15    0.13  1.0000
  10  -7  -3     235      50                                                         227    1.15   -0.13  1.0000
  -7 -10  -3     217      43                                                         209    1.15    0.13  1.0000
   7  10   3     241      54                                                         233    1.15   -0.13  1.0000
  10  -7   3     145      47                                                         137    1.15    0.13  1.0000
   7  10   3     303      51                                                         295    1.15   -0.13  1.0000
   8  10  -3     128      44                                                         104    0.79    0.14  1.0000
  10  -8  -3     113      41                                                          91    0.79   -0.14  1.0000
   8  10   3      52      37                                                          36    0.79   -0.14  1.0000
   8  10   3      23      38                                                          12    0.79   -0.14  1.0000
   9  10  -3     243      60                                                         238   -0.05   -0.04  1.0000
  10  -9  -3     226      55                                                         221   -0.05    0.04  1.0000
   9  10   3     193      55                                                         189   -0.05    0.04  1.0000
  10 -10  -3     142      54                                                         170   -0.56    0.11  1.0000
  10  10  -3     115      54                                                         140   -0.56   -0.11  1.0000
  10  10   3     120      53                                                         146   -0.56    0.11  1.0000
  11  10  -3      58      50                                                          43   -0.40    0.05  1.0000
  11  10   3      46      50                                                          33   -0.40   -0.05  1.0000
  11   9  -3      92      50                                                         107   -0.31   -0.00  1.0000
  11   9   3      92      51                                                         107   -0.31    0.00  1.0000
  11   8  -3      21      39                                                          23   -0.07   -0.13  1.0000
  11   8   3      92      48                                                          96   -0.07    0.13  1.0000
  11   8   3       0      39                                                         -62   -0.07    0.13  1.0000
  11   7  -3      12      37                                                          12    0.12   -0.19  1.0000
  11   7   3      41      41                                                          41    0.12    0.19  1.0000
  11   7   3       0      38                                                         -16    0.12    0.19  1.0000
  11   6  -3     622      73                                                         658    0.28   -0.14  1.0000
  11   6   3     534      75                                                         568    0.28    0.14  1.0000
  11   6   3     589      82                                                         624    0.28    0.14  1.0000
  11   5  -3     570      63                                                         526    0.54   -0.03  1.0000
   5 -11  -3     736      74                                                         686    0.54    0.03  1.0000
  11   5   3     600      72                                                         555    0.54    0.03  1.0000
  11   5   3     625      77                                                         579    0.54    0.03  1.0000
  11   4  -3       5      29                                                          15    0.82    0.10  1.0000
  11   4  -3      20      42                                                          38    0.82    0.10  1.0000
   4 -11  -3       4      30                                                         -15    0.82   -0.10  1.0000
  11   4   3       4      32                                                          -4    0.82   -0.10  1.0000
  11   4   3      19      38                                                          37    0.82   -0.10  1.0000
  11   3  -3     284      57                                                         220    0.86    0.13  1.0000
  11   3  -3     353      44                                                         281    0.86    0.13  1.0000
   3 -11  -3     341      46                                                         270    0.86   -0.13  1.0000
  11   3   3     318      53                                                         250    0.86   -0.13  1.0000
  11   3   3     350      61                                                         278    0.86   -0.13  1.0000
  -3  11   3     356      42                                                         284    0.86    0.13  1.0000
  11   2  -3     156      36                                                         188    0.52    0.03  1.0000
   2 -11  -3     205      44                                                         241    0.52   -0.03  1.0000
  11   2  -3     159      50                                                         191    0.52    0.03  1.0000
  11   2   3     144      50                                                         174    0.52   -0.03  1.0000
  11   2   3     117      45                                                         145    0.52   -0.03  1.0000
  -2  11   3     192      39                                                         227    0.52    0.03  1.0000
  11   1  -3      31      35                                                          32    0.05    0.02  1.0000
  11   1  -3      76      28                                                          77    0.05    0.02  1.0000
   1 -11  -3     131      36                                                         132    0.05   -0.02  1.0000
  11   1   3      51      41                                                          52    0.05   -0.02  1.0000
  -1  11   3      77      31                                                          78    0.05    0.02  1.0000
  11   1   3      65      37                                                          66    0.05   -0.02  1.0000
  11   0  -3      29      24                                                          33   -0.20    0.28  1.0000
  11   0  -3      71      40                                                          77   -0.20    0.28  1.0000
   0 -11  -3      58      30                                                          64   -0.20   -0.28  1.0000
  11   0   3       1      31                                                         -10   -0.20   -0.28  1.0000
  11   0   3      57      42                                                          63   -0.20   -0.28  1.0000
   0  11   3      71      33                                                          77   -0.20    0.28  1.0000
  -1 -11  -3      98      32                                                          77   -0.12   -0.48  1.0000
  11  -1  -3       8      18                                                           3   -0.12    0.48  1.0000
  11  -1  -3      49      34                                                          34   -0.12    0.48  1.0000
  11  -1   3      57      42                                                          41   -0.12   -0.48  1.0000
   1  11   3      25      28                                                          15   -0.12    0.48  1.0000
  11  -1   3       2      32                                                         -39   -0.12   -0.48  1.0000
  -2 -11  -3     137      36                                                         150    0.07   -0.23  1.0000
  11  -2  -3      42      37                                                          49    0.07    0.23  1.0000
  11  -2   3     106      44                                                         117    0.07   -0.23  1.0000
   2  11   3      79      36                                                          89    0.07    0.23  1.0000
  11  -2   3     133      48                                                         146    0.07   -0.23  1.0000
  -3 -11  -3      45      29                                                          49    0.11    0.25  1.0000
   3  11  -3      11      44                                                          13    0.11    0.25  1.0000
  11  -3  -3      63      41                                                          67    0.11   -0.25  1.0000
   3  11   3      46      33                                                          50    0.11   -0.25  1.0000
  11  -3   3      16      35                                                          18    0.11    0.25  1.0000
   4  11  -3     131      51                                                         110    0.11    0.37  1.0000
  -4 -11  -3       1      28                                                          -3    0.11    0.37  1.0000
  11  -4  -3      28      36                                                          19    0.11   -0.37  1.0000
   4  11   3      52      32                                                          39    0.11   -0.37  1.0000
   4  11   3      97      35                                                          79    0.11   -0.37  1.0000
  11  -4   3      62      42                                                          48    0.11    0.37  1.0000
  11  -5  -3     175      53                                                         200    0.33   -0.13  1.0000
   5  11   3     323      59                                                         356    0.33   -0.13  1.0000
   5  11   3     238      49                                                         267    0.33   -0.13  1.0000
  11  -5   3     131      50                                                         152    0.33    0.13  1.0000
  11  -6  -3       1      35                                                           6    0.69    0.03  1.0000
   6  11  -3      33      43                                                          53    0.69   -0.03  1.0000
   6  11   3     103      45                                                         137    0.69    0.03  1.0000
   6  11   3      50      39                                                          75    0.69    0.03  1.0000
  11  -6   3      39      43                                                          61    0.69   -0.03  1.0000
  11  -7  -3     104      45                                                          82    0.73    0.02  1.0000
   7  11  -3     142      50                                                         116    0.73   -0.02  1.0000
  11  -7   3     103      43                                                          81    0.73   -0.02  1.0000
   7  11   3     115      45                                                          92    0.73    0.02  1.0000
   8  11  -3     533      81                                                         517    0.25   -0.14  1.0000
  11  -8  -3     377      63                                                         363    0.25    0.14  1.0000
   8  11   3     489      72                                                         474    0.25    0.14  1.0000
  11  -8   3     354      64                                                         341    0.25   -0.14  1.0000
   9  11  -3       2      46                                                           1   -0.37   -0.34  1.0000
   9  11   3      49      47                                                          51   -0.37    0.34  1.0000
  11  -9   3      46      44                                                          48   -0.37   -0.34  1.0000
  10  11  -3      26      49                                                          25   -0.53   -0.28  1.0000
  10  11   3      94      49                                                          95   -0.53    0.28  1.0000
  12   9  -3      42      47                                                          45    0.05    0.06  1.0000
  12   9   3      97      53                                                         101    0.05   -0.06  1.0000
  12   8  -3     101      47                                                          94    0.27   -0.23  1.0000
  12   8   3     115      56                                                         108    0.27    0.23  1.0000
  12   8   3     152      54                                                         144    0.27    0.23  1.0000
  12   7  -3      97      47                                                         102    0.51   -0.53  1.0000
  12   7   3      37      47                                                          39    0.51    0.53  1.0000
  12   7   3      47      49                                                          50    0.51    0.53  1.0000
  12   6  -3       4      32                                                         -54    0.62   -0.52  1.0000
  12   6   3       4      40                                                         -33    0.62    0.52  1.0000
  12   6   3       4      37                                                         -36    0.62    0.52  1.0000
  12   5  -3      75      38                                                          88    0.57    0.01  1.0000
  12   5   3      84      47                                                          98    0.57   -0.01  1.0000
  12   5   3      68      46                                                          81    0.57   -0.01  1.0000
  12   4  -3      20      35                                                          32    0.46    0.76  1.0000
  12   4   3       5      35                                                         -28    0.46   -0.76  1.0000
  12   4   3       7      39                                                          13    0.46   -0.76  1.0000
  12   3  -3       9      27                                                         -29    0.41    1.09  1.0000
  12   3   3      32      40                                                          30    0.41   -1.09  1.0000
  12   3   3       9      37                                                           2    0.41   -1.09  1.0000
  -3  12   3       9      27                                                         -18    0.41    1.09  1.0000
  12   2  -3      82      31                                                          77    0.38    0.74  1.0000
  12   2  -3      17      39                                                          12    0.38    0.74  1.0000
  -2  12   3      17      29                                                          12    0.38    0.74  1.0000
  12   2   3      34      42                                                          29    0.38   -0.74  1.0000
  12   2   3     101      43                                                          96    0.38   -0.74  1.0000
  12   1  -3      74      43                                                          76    0.28    0.21  1.0000
  12   1  -3      90      30                                                          92    0.28    0.21  1.0000
  -1  12   3      97      36                                                          99    0.28    0.21  1.0000
  12   1   3     110      45                                                         113    0.28   -0.21  1.0000
  12   1   3      92      47                                                          94    0.28   -0.21  1.0000
  12   0  -3     392      66                                                         380    0.12   -0.03  1.0000
  12   0  -3     416      43                                                         403    0.12   -0.03  1.0000
  12   0   3     458      70                                                         445    0.12    0.03  1.0000
  12   0   3     431      69                                                         418    0.12    0.03  1.0000
   0  12   3     385      53                                                         373    0.12   -0.03  1.0000
  12  -1  -3     107      47                                                         114    0.06   -0.13  1.0000
   1  12   3      45      35                                                          49    0.06   -0.13  1.0000
  12  -1   3      26      40                                                          29    0.06    0.13  1.0000
  12  -1   3       2      40                                                           3    0.06    0.13  1.0000
  12  -2  -3     201      57                                                         229    0.14   -0.38  1.0000
  12  -2   3     304      65                                                         338    0.14    0.38  1.0000
   2  12   3     172      47                                                         198    0.14   -0.38  1.0000
  12  -2   3     315      65                                                         349    0.14    0.38  1.0000
  12  -3  -3      33      38                                                          18    0.25   -0.55  1.0000
   3  12   3      24      33                                                          11    0.25   -0.55  1.0000
  12  -3   3     119      46                                                          88    0.25    0.55  1.0000
  12  -3   3       2      39                                                           0    0.25    0.55  1.0000
  12  -4  -3     196      53                                                         170    0.31   -0.33  1.0000
   4  12   3     173      46                                                         148    0.31   -0.33  1.0000
  12  -4   3     204      53                                                         177    0.31    0.33  1.0000
  12  -5  -3      47      39                                                          36    0.33    0.06  1.0000
  12  -5   3      42      41                                                          32    0.33   -0.06  1.0000
   5  12   3       1      34                                                         -21    0.33    0.06  1.0000
  12  -6  -3       5      38                                                           6    0.29    0.20  1.0000
  12  -6   3       1      36                                                         -35    0.29   -0.20  1.0000
   6  12   3       1      36                                                          -2    0.29    0.20  1.0000
   7  12  -3       0      41                                                          -6    0.09   -0.17  1.0000
  12  -7   3      25      42                                                          23    0.09   -0.17  1.0000
   7  12   3       8      40                                                           7    0.09    0.17  1.0000
   8  12  -3     455      80                                                         480   -0.21   -0.22  1.0000
   8  12   3     326      70                                                         347   -0.21    0.22  1.0000
  12  -8   3     413      72                                                         437   -0.21   -0.22  1.0000
   9  12  -3      32      52                                                          28   -0.38   -0.30  1.0000
  12  -9   3       2      39                                                         -47   -0.38   -0.30  1.0000
   9  12   3       2      40                                                         -47   -0.38    0.30  1.0000
  13   8  -3      31      44                                                          19    0.56   -0.06  1.0000
  13   8   3       2      45                                                          -6    0.56    0.06  1.0000
  13   7  -3      83      45                                                          85    0.82   -0.41  1.0000
  13   7   3      81      50                                                          83    0.82    0.41  1.0000
  13   6  -3      50      42                                                          70    0.83   -0.61  1.0000
  13   6   3      76      54                                                         101    0.83    0.61  1.0000
  13   5  -3     121      46                                                         109    0.59   -0.30  1.0000
  13   5   3      11      48                                                           6    0.59    0.30  1.0000
  13   4  -3     235      52                                                         276    0.34    0.38  1.0000
  13   4   3     155      56                                                         189    0.34   -0.38  1.0000
  13   4   3     299      71                                                         345    0.34   -0.38  1.0000
  13   3  -3     538      66                                                         618    0.30    0.87  1.0000
  13   3   3     420      78                                                         490    0.30   -0.87  1.0000
  13   3   3     653      91                                                         740    0.30   -0.87  1.0000
  13   2  -3     296      44                                                         276    0.38    0.90  1.0000
  -2  13   3     225      45                                                         207    0.38    0.90  1.0000
  13   2   3     245      59                                                         227    0.38   -0.90  1.0000
  13   2   3     219      57                                                         201    0.38   -0.90  1.0000
  13   1   3     136      54                                                         174    0.36   -0.67  1.0000
  13   1   3     176      59                                                         219    0.36   -0.67  1.0000
  -1  13   3     171      46                                                         214    0.36    0.67  1.0000
  13   0   3     169      54                                                         155    0.20   -0.38  1.0000
   0  13   3     122      39                                                         110    0.20    0.38  1.0000
   1  13   3      35      35                                                          31    0.14   -0.08  1.0000
  13  -1   3      21      42                                                          18    0.14    0.08  1.0000
   2  13   3       6      33                                                           1    0.28   -0.60  1.0000
  13  -2   3       3      38                                                         -12    0.28    0.60  1.0000
   3  13   3       5      33                                                         -13    0.44   -0.76  1.0000
  13  -3   3       6      42                                                          12    0.44    0.76  1.0000
   4  13   3      81      43                                                         104    0.41   -0.44  1.0000
  13  -4   3     134      54                                                         163    0.41    0.44  1.0000
  13  -5   3      72      46                                                          64    0.20    0.02  1.0000
   5  13   3      25      38                                                          21    0.20   -0.02  1.0000
  13  -6   3      66      46                                                          61   -0.06   -0.18  1.0000
   6  13   3      89      45                                                          83   -0.06    0.18  1.0000
   7  13  -3      97      60                                                         108   -0.27   -0.21  1.0000
  13  -7   3      91      50                                                         101   -0.27   -0.21  1.0000
   7  13   3       1      39                                                           2   -0.27    0.21  1.0000
   8  13  -3     170      69                                                         187   -0.35   -0.18  1.0000
  13  -8   3     124      56                                                         138   -0.35   -0.18  1.0000
   8  13   3     195      63                                                         213   -0.35    0.18  1.0000
  14   6  -3       4      43                                                          14    0.60   -0.34  1.0000
  14   6   3      31      55                                                          53    0.60    0.34  1.0000
  14   5  -3      93      48                                                         121    0.38   -0.43  1.0000
  14   5   3     206      67                                                         247    0.38    0.43  1.0000
  14   4  -3     139      44                                                         120    0.26   -0.30  1.0000
  14   4   3     115      55                                                          97    0.26    0.30  1.0000
  14   3  -3     157      44                                                         158    0.33   -0.03  1.0000
  14   3   3     156      57                                                         157    0.33    0.03  1.0000
  -2  14   3      38      40                                                          48    0.40    0.31  1.0000
  14   2   3       2      43                                                         -38    0.40   -0.31  1.0000
  14   1   3      60      43                                                          37    0.31   -0.60  1.0000
  -1  14   3      67      40                                                          43    0.31    0.60  1.0000
   0  14   3     144      47                                                         182    0.18    0.55  1.0000
  14   0   3     122      58                                                         157    0.18   -0.55  1.0000
  14  -1   3       1      41                                                           2    0.24   -0.08  1.0000
   1  14   3      19      38                                                          22    0.24    0.08  1.0000
  14  -2   3       9      41                                                          20    0.45    0.46  1.0000
   2  14   3       3      34                                                         -44    0.45   -0.46  1.0000
  14  -3   3      94      52                                                         115    0.54    0.62  1.0000
   3  14   3      86      46                                                         105    0.54   -0.62  1.0000
  14  -4   3      85      53                                                          72    0.39    0.42  1.0000
   4  14   3      88      45                                                          75    0.39   -0.42  1.0000
   5  14   3      40      46                                                          43    0.15   -0.19  1.0000
  14  -5   3      28      48                                                          30    0.15    0.19  1.0000
   6  14   3      28      47                                                          27   -0.04   -0.05  1.0000
  14  -6   3      74      53                                                          73   -0.04    0.05  1.0000
  15   3   3       2      43                                                         -12    0.18    0.51  1.0000
  15   2   3      26      49                                                          26    0.23    0.24  1.0000
  -1  15   3     129      51                                                         139    0.15    0.08  1.0000
  15   1   3     115      58                                                         124    0.15   -0.08  1.0000
  15   0   3      66      54                                                          60    0.12   -0.09  1.0000
   0  15   3      79      49                                                          72    0.12    0.09  1.0000
   1  15   3     192      54                                                         193    0.24   -0.21  1.0000
  15  -1   3      64      52                                                          64    0.24    0.21  1.0000
  15  -2   3      58      48                                                          50    0.38    0.42  1.0000
   2  15   3       2      39                                                         -13    0.38   -0.42  1.0000
  15  -3   3      63      55                                                          71    0.35    0.33  1.0000
   3  15   3      48      49                                                          55    0.35   -0.33  1.0000
   0   0   4       5      15                                                          29   -1.26    0.00  1.0000
   1   0  -4    1560      73                                                        1779   -1.19   -0.01  1.0000
   0   1   4    1488      62                                                        1702   -1.19   -0.01  1.0000
  -1   0   4    1547      71                                                        1766   -1.19    0.01  1.0000
   0   1   4    1593      80                                                        1815   -1.19   -0.01  1.0000
   1   0   4    1569      71                                                        1789   -1.19    0.01  1.0000
   0  -1   4    1549      77                                                        1768   -1.19   -0.01  1.0000
   1  -1  -4     265      21                                                         173   -1.16    0.39  1.0000
   1   1  -4     313      30                                                         213   -1.16   -0.39  1.0000
   1   1   4     345      22                                                         239   -1.16    0.39  1.0000
   1  -1   4     299      29                                                         201   -1.16   -0.39  1.0000
  -1   1   4     358      23                                                         250   -1.16   -0.39  1.0000
  -1  -1   4     324      29                                                         222   -1.16    0.39  1.0000
   1   1   4     231      30                                                         146   -1.16    0.39  1.0000
   2   1  -4    3089     107                                                        2783   -1.09   -0.67  1.0000
  -1   2   4    3173     103                                                        2863   -1.09   -0.67  1.0000
   2   1   4    3057     112                                                        2753   -1.09    0.67  1.0000
   1  -2   4    2807     107                                                        2516   -1.09   -0.67  1.0000
  -1   2   4    3060      83                                                        2756   -1.09   -0.67  1.0000
   2   1   4    3060      93                                                        2756   -1.09    0.67  1.0000
  -2  -1   4    2780     102                                                        2491   -1.09    0.67  1.0000
   2   0  -4     431      36                                                         374   -1.09   -0.09  1.0000
  -2   0   4     522      34                                                         459   -1.09    0.09  1.0000
   0   2   4     466      41                                                         407   -1.09   -0.09  1.0000
   0  -2   4     556      46                                                         491   -1.09   -0.09  1.0000
   2   0   4     469      35                                                         409   -1.09    0.09  1.0000
   2  -1  -4     186      26                                                         213   -1.10    0.55  1.0000
   1   2  -4     156      32                                                         180   -1.10   -0.55  1.0000
   2  -1   4     227      32                                                         258   -1.10   -0.55  1.0000
  -2   1   4     235      26                                                         267   -1.10   -0.55  1.0000
  -1  -2   4     181      32                                                         208   -1.10    0.55  1.0000
   1   2   4     204      34                                                         233   -1.10    0.55  1.0000
   2  -2  -4     614      39                                                         803   -1.05    0.92  1.0000
   2   2  -4     659      56                                                         854   -1.05   -0.92  1.0000
   2   2   4     569      34                                                         752   -1.05    0.92  1.0000
   2   2   4     604      33                                                         792   -1.05    0.92  1.0000
   2  -2   4     631      55                                                         823   -1.05   -0.92  1.0000
   2   2   4     698      59                                                         899   -1.05    0.92  1.0000
  -2  -2   4     633      55                                                         825   -1.05    0.92  1.0000
  -2   2   4     623      38                                                         813   -1.05   -0.92  1.0000
  -2   2   4     566      45                                                         748   -1.05   -0.92  1.0000
   3   2  -4     298      38                                                         268   -0.65   -0.95  1.0000
   2  -3  -4     253      20                                                         225   -0.65    0.95  1.0000
  -3  -2   4     278      36                                                         249   -0.65    0.95  1.0000
   2  -3   4     245      37                                                         217   -0.65   -0.95  1.0000
   3   2   4     270      23                                                         241   -0.65    0.95  1.0000
  -2   3   4     269      29                                                         240   -0.65   -0.95  1.0000
   3   2   4     277      40                                                         248   -0.65    0.95  1.0000
   3   1  -4     218      36                                                         267   -0.82   -0.85  1.0000
  -3  -1   4     262      36                                                         317   -0.82    0.85  1.0000
  -1   3   4     208      32                                                         256   -0.82   -0.85  1.0000
   1  -3   4     283      43                                                         340   -0.82   -0.85  1.0000
   3   1   4     237      43                                                         289   -0.82    0.85  1.0000
   3   0  -4     177      32                                                         254   -1.01   -0.30  1.0000
  -3   0   4     167      30                                                         242   -1.01    0.30  1.0000
   0   3   4     161      32                                                         234   -1.01   -0.30  1.0000
   0  -3   4     178      38                                                         255   -1.01   -0.30  1.0000
   3   0   4     138      38                                                         206   -1.01    0.30  1.0000
   1   3  -4     111      26                                                          62   -1.19   -0.42  1.0000
   3  -1  -4      95      19                                                          50   -1.19    0.42  1.0000
   1   3   4     111      23                                                          62   -1.19    0.42  1.0000
  -1  -3   4      39      21                                                          12   -1.19    0.42  1.0000
  -3   1   4      81      17                                                          40   -1.19   -0.42  1.0000
   2   3  -4     825      64                                                         881   -1.07   -0.84  1.0000
   3  -2  -4     928      51                                                         988   -1.07    0.84  1.0000
  -2  -3   4     932      64                                                         992   -1.07    0.84  1.0000
  -3   2   4    1044      50                                                        1108   -1.07   -0.84  1.0000
   3  -2   4     975      64                                                        1036   -1.07   -0.84  1.0000
   2   3   4     978      64                                                        1040   -1.07    0.84  1.0000
  -3   2   4    1065      51                                                        1130   -1.07   -0.84  1.0000
   3  -3  -4     964      50                                                        1044   -0.45    0.76  1.0000
   3   3  -4    1052      73                                                        1136   -0.45   -0.76  1.0000
  -3  -3   4    1093      72                                                        1179   -0.45    0.76  1.0000
  -3   3   4    1096      51                                                        1182   -0.45   -0.76  1.0000
   3   3   4    1044      44                                                        1128   -0.45    0.76  1.0000
   3  -3   4    1094      73                                                        1180   -0.45   -0.76  1.0000
   3   3   4    1092      72                                                        1178   -0.45    0.76  1.0000
   3  -4  -4      19      13                                                          12    0.36    0.29  1.0000
   4   3  -4       1      22                                                          -7    0.36   -0.29  1.0000
   3  -4   4      45      28                                                          34    0.36   -0.29  1.0000
  -3   4   4       7      13                                                           3    0.36   -0.29  1.0000
   4   3   4      24      14                                                          16    0.36    0.29  1.0000
   4   3   4      47      28                                                          36    0.36    0.29  1.0000
  -4  -3   4      58      26                                                          46    0.36    0.29  1.0000
   4   2  -4     541      57                                                         579    0.07   -0.62  1.0000
   2  -4  -4     655      29                                                         697    0.07    0.62  1.0000
   4   2   4     669      41                                                         712    0.07    0.62  1.0000
   4   2   4     596      64                                                         636    0.07    0.62  1.0000
  -4  -2   4     557      55                                                         596    0.07    0.62  1.0000
  -2   4   4     637      39                                                         678    0.07   -0.62  1.0000
   2  -4   4     600      62                                                         640    0.07   -0.62  1.0000
   4   1  -4    1658      85                                                        1696   -0.28   -0.75  1.0000
  -4  -1   4    1579      82                                                        1616   -0.28    0.75  1.0000
   4   1   4    1612      91                                                        1650   -0.28    0.75  1.0000
  -1   4   4    1662      73                                                        1700   -0.28   -0.75  1.0000
   1  -4   4    1851      95                                                        1892   -0.28   -0.75  1.0000
   4   0  -4      39      20                                                          30   -0.83   -0.45  1.0000
  -4   0   4      38      19                                                          29   -0.83    0.45  1.0000
   4   0   4      39      26                                                          30   -0.83    0.45  1.0000
   0   4   4      28      18                                                          20   -0.83   -0.45  1.0000
   0  -4   4      37      25                                                          28   -0.83   -0.45  1.0000
   4  -1  -4     236      38                                                         349   -1.30    0.10  1.0000
   1   4  -4     278      49                                                         400   -1.30   -0.10  1.0000
  -1  -4   4     230      47                                                         342   -1.30    0.10  1.0000
   4  -1   4     167      44                                                         264   -1.30   -0.10  1.0000
   1   4   4     306      44                                                         433   -1.30    0.10  1.0000
  -4   1   4     198      35                                                         303   -1.30   -0.10  1.0000
   2   4  -4     368      43                                                         258   -1.13   -0.52  1.0000
   4  -2  -4     462      35                                                         337   -1.13    0.52  1.0000
  -4   2   4     476      29                                                         349   -1.13   -0.52  1.0000
  -2  -4   4     469      46                                                         343   -1.13    0.52  1.0000
  -4   2   4     473      29                                                         347   -1.13   -0.52  1.0000
   2   4   4     448      41                                                         325   -1.13    0.52  1.0000
   3   4  -4     413      52                                                         411   -0.33   -0.48  1.0000
   4  -3  -4     523      38                                                         521   -0.33    0.48  1.0000
   3   4   4     600      58                                                         598   -0.33    0.48  1.0000
  -4   3   4     487      29                                                         485   -0.33   -0.48  1.0000
  -3  -4   4     520      58                                                         518   -0.33    0.48  1.0000
   3   4   4     498      25                                                         496   -0.33    0.48  1.0000
   4  -4  -4     461      39                                                         520    0.53    0.04  1.0000
   4   4  -4     481      60                                                         541    0.53   -0.04  1.0000
  -4   4   4     487      27                                                         547    0.53   -0.04  1.0000
  -4  -4   4     448      57                                                         506    0.53    0.04  1.0000
   4   4   4     511      60                                                         573    0.53    0.04  1.0000
   4   4   4     491      33                                                         552    0.53    0.04  1.0000
   4  -5  -4    1226      53                                                        1040    1.08   -0.37  1.0000
   5   4  -4    1205      76                                                        1020    1.08    0.37  1.0000
   5   4   4    1142      81                                                         962    1.08   -0.37  1.0000
   5   4   4    1155      52                                                         974    1.08   -0.37  1.0000
  -5  -4   4    1173      74                                                         991    1.08   -0.37  1.0000
  -4   5   4    1233      37                                                        1046    1.08    0.37  1.0000
   4  -5   4    1000      80                                                         832    1.08    0.37  1.0000
   3  -5  -4     574      38                                                         699    1.00   -0.25  1.0000
   5   3  -4     642      71                                                         774    1.00    0.25  1.0000
  -3   5   4     555      36                                                         678    1.00    0.25  1.0000
   3  -5   4     655      73                                                         788    1.00    0.25  1.0000
   5   3   4     602      45                                                         730    1.00   -0.25  1.0000
  -5  -3   4     546      64                                                         668    1.00   -0.25  1.0000
   2  -5  -4     175      14                                                         132    0.71   -0.06  1.0000
   5   2  -4     207      36                                                         160    0.71    0.06  1.0000
   2  -5   4     204      36                                                         157    0.71    0.06  1.0000
  -5  -2   4     203      33                                                         156    0.71   -0.06  1.0000
  -2   5   4     183      23                                                         139    0.71    0.06  1.0000
   5   2   4     195      26                                                         149    0.71   -0.06  1.0000
   5   2   4     139      36                                                         101    0.71   -0.06  1.0000
   5   1  -4    1019      67                                                        1020    0.21   -0.10  1.0000
   1  -5   4    1001      74                                                        1002    0.21   -0.10  1.0000
  -1   5   4    1003      53                                                        1004    0.21   -0.10  1.0000
   5   1   4     968      82                                                         969    0.21    0.10  1.0000
  -5  -1   4    1065      66                                                        1066    0.21    0.10  1.0000
   5   0  -4      49      26                                                          69   -0.50   -0.22  1.0000
   0   5   4      59      23                                                          80   -0.50   -0.22  1.0000
  -5   0   4      34      23                                                          51   -0.50    0.22  1.0000
   5   0   4      44      31                                                          63   -0.50    0.22  1.0000
   0  -5   4      35      30                                                          52   -0.50   -0.22  1.0000
   5  -1  -4     121      25                                                          83   -0.98   -0.23  1.0000
   1   5  -4     195      35                                                         147   -0.98    0.23  1.0000
   1   5   4     143      26                                                         102   -0.98   -0.23  1.0000
   5  -1   4     129      33                                                          90   -0.98    0.23  1.0000
  -1  -5   4     198      37                                                         149   -0.98   -0.23  1.0000
  -5   1   4     162      27                                                         118   -0.98    0.23  1.0000
  -5   1   4     182      21                                                         135   -0.98    0.23  1.0000
   5  -2  -4     675      49                                                         580   -0.82   -0.10  1.0000
   2   5  -4     720      64                                                         622   -0.82    0.10  1.0000
   2   5   4     646      53                                                         553   -0.82   -0.10  1.0000
  -5   2   4     635      30                                                         543   -0.82    0.10  1.0000
  -2  -5   4     568      57                                                         481   -0.82   -0.10  1.0000
   3   5  -4     156      40                                                         170   -0.22    0.04  1.0000
   5  -3  -4     124      28                                                         137   -0.22   -0.04  1.0000
   3   5   4      97      13                                                         108   -0.22   -0.04  1.0000
  -3  -5   4      90      35                                                         101   -0.22   -0.04  1.0000
   3   5   4      80      30                                                          90   -0.22   -0.04  1.0000
   4   5  -4    1022      86                                                         984    0.35    0.19  1.0000
   5  -4  -4    1041      59                                                        1003    0.35   -0.19  1.0000
   4   5   4    1085      72                                                        1046    0.35   -0.19  1.0000
  -4  -5   4    1205      80                                                        1164    0.35   -0.19  1.0000
   4   5   4    1066      47                                                        1027    0.35   -0.19  1.0000
   5  -5  -4    2877     114                                                        3021    0.73   -0.39  1.0000
   5   5  -4    2756     141                                                        2897    0.73    0.39  1.0000
   5   5   4    2737     132                                                        2877    0.73   -0.39  1.0000
   5   5   4    2841     107                                                        2984    0.73   -0.39  1.0000
  -5  -5   4    2765     140                                                        2906    0.73   -0.39  1.0000
   5  -6  -4     631      48                                                         582    0.90   -0.38  1.0000
   6   5  -4     405      59                                                         365    0.90    0.38  1.0000
  -6  -5   4     633      70                                                         584    0.90   -0.38  1.0000
   6   5   4     591      63                                                         544    0.90   -0.38  1.0000
   6   5   4     554      46                                                         508    0.90   -0.38  1.0000
   6   4  -4    4756     211                                                        5278    1.38    0.45  1.0000
   4  -6  -4    4893     173                                                        5422    1.38   -0.45  1.0000
   6   4   4    5070     203                                                        5608    1.38   -0.45  1.0000
  -4   6   4    5077     148                                                        5616    1.38    0.45  1.0000
   4  -6   4    4803     215                                                        5327    1.38    0.45  1.0000
  -6  -4   4    4483     204                                                        4990    1.38   -0.45  1.0000
   6   4   4    4814     180                                                        5339    1.38   -0.45  1.0000
   3  -6  -4    3044      92                                                        2634    1.41   -0.55  1.0000
   6   3  -4    2854     125                                                        2458    1.41    0.55  1.0000
  -6  -3   4    3044     124                                                        2634    1.41   -0.55  1.0000
  -3   6   4    3143      88                                                        2726    1.41    0.55  1.0000
   3  -6   4    3030     132                                                        2621    1.41    0.55  1.0000
   6   3   4    3046     107                                                        2636    1.41   -0.55  1.0000
   6   3   4    3263     130                                                        2838    1.41   -0.55  1.0000
   6   2  -4     245      48                                                         322    1.00    0.75  1.0000
   2  -6  -4     227      22                                                         302    1.00   -0.75  1.0000
   2  -6  -4     278      24                                                         360    1.00   -0.75  1.0000
  -2   6   4     299      34                                                         385    1.00    0.75  1.0000
   2  -6   4     282      54                                                         365    1.00    0.75  1.0000
   6   2   4     274      53                                                         356    1.00   -0.75  1.0000
   6   2   4     219      37                                                         292    1.00   -0.75  1.0000
  -6  -2   4     294      49                                                         379    1.00   -0.75  1.0000
   6   1  -4      82      28                                                          67    0.34    0.76  1.0000
   6   1   4      99      34                                                          83    0.34   -0.76  1.0000
   1  -6   4      58      30                                                          45    0.34    0.76  1.0000
   6   1   4     124      28                                                         106    0.34   -0.76  1.0000
  -1   6   4     103      23                                                          87    0.34    0.76  1.0000
  -6  -1   4      92      28                                                          76    0.34   -0.76  1.0000
   6   0  -4     211      37                                                         191   -0.16    0.30  1.0000
   0  -6   4     140      39                                                         124   -0.16    0.30  1.0000
  -6   0   4     142      32                                                         126   -0.16   -0.30  1.0000
   0   6   4     158      28                                                         141   -0.16    0.30  1.0000
   6   0   4     129      36                                                         114   -0.16   -0.30  1.0000
   6  -1  -4      35      23                                                          32   -0.19   -0.40  1.0000
   1   6  -4      49      30                                                          46   -0.19    0.40  1.0000
   1   6   4      38      23                                                          35   -0.19   -0.40  1.0000
  -6   1   4      32      15                                                          29   -0.19    0.40  1.0000
   6  -1   4      64      31                                                          61   -0.19    0.40  1.0000
  -6   1   4      53      25                                                          50   -0.19    0.40  1.0000
  -1  -6   4      49      31                                                          46   -0.19   -0.40  1.0000
   2   6  -4       6      26                                                           5    0.05    0.87  1.0000
   6  -2  -4      12      22                                                          14    0.05   -0.87  1.0000
   6  -2   4      37      30                                                          45    0.05    0.87  1.0000
  -2  -6   4       5      26                                                          -7    0.05   -0.87  1.0000
   2   6   4       4      21                                                           1    0.05   -0.87  1.0000
  -6   2   4       5      10                                                          -5    0.05    0.87  1.0000
   6  -3  -4     245      39                                                         283    0.10   -0.92  1.0000
   3   6  -4     164      44                                                         194    0.10    0.92  1.0000
   3   6   4     276      45                                                         316    0.10   -0.92  1.0000
  -3  -6   4     220      49                                                         256    0.10   -0.92  1.0000
   4   6  -4     286      51                                                         257   -0.00    0.73  1.0000
   6  -4  -4     305      38                                                         275   -0.00   -0.73  1.0000
   4   6   4     296      45                                                         267   -0.00   -0.73  1.0000
  -4  -6   4     425      60                                                         390   -0.00   -0.73  1.0000
   4   6   4     321      28                                                         291   -0.00   -0.73  1.0000
   5   6  -4      53      38                                                          69    0.05    0.47  1.0000
   6  -5  -4      64      28                                                          81    0.05   -0.47  1.0000
   5   6   4      19      30                                                          29    0.05   -0.47  1.0000
  -5  -6   4      59      36                                                          75    0.05   -0.47  1.0000
   5   6   4      57      22                                                          73    0.05   -0.47  1.0000
   6  -6  -4      30      25                                                          25    0.19   -0.20  1.0000
   6   6  -4      74      39                                                          66    0.19    0.20  1.0000
   6   6   4      55      24                                                          48    0.19   -0.20  1.0000
   6   6   4      84      38                                                          76    0.19   -0.20  1.0000
   6  -7  -4    1012      68                                                        1014    0.09    0.12  1.0000
   7   6  -4    1049      99                                                        1051    0.09   -0.12  1.0000
   7   6   4     997      92                                                         999    0.09    0.12  1.0000
   7   6   4    1096      68                                                        1098    0.09    0.12  1.0000
   5  -7  -4    1593      82                                                        1706    0.66   -0.22  1.0000
   7   5  -4    1572     110                                                        1685    0.66    0.22  1.0000
   7   5   4    1655      87                                                        1770    0.66   -0.22  1.0000
   7   5   4    1498     104                                                        1608    0.66   -0.22  1.0000
   7   4  -4   11194     357                                                       10569    1.27    0.42  1.0000
   4  -7  -4   10520     307                                                        9914    1.27   -0.42  1.0000
   7   4   4   11140     324                                                       10517    1.27   -0.42  1.0000
  -4   7   4   11245     277                                                       10618    1.27    0.42  1.0000
  -7  -4   4   11746     353                                                       11106    1.27   -0.42  1.0000
   7   4   4   11002     337                                                       10382    1.27   -0.42  1.0000
   4  -7   4   10605     359                                                        9996    1.27    0.42  1.0000
   3  -7  -4    2291      94                                                        2609    1.48   -0.70  1.0000
   7   3  -4    2290     131                                                        2609    1.48    0.70  1.0000
  -3   7   4    2376      90                                                        2701    1.48    0.70  1.0000
   7   3   4    2240     131                                                        2555    1.48   -0.70  1.0000
   7   3   4    2321     113                                                        2642    1.48   -0.70  1.0000
   3  -7   4    2373     139                                                        2698    1.48    0.70  1.0000
  -7  -3   4    2233     127                                                        2547    1.48   -0.70  1.0000
   2  -7  -4     220      19                                                         127    1.03   -1.04  1.0000
   7   2  -4     195      37                                                         108    1.03    1.04  1.0000
   2  -7  -4     233      20                                                         137    1.03   -1.04  1.0000
   7   2   4     207      39                                                         117    1.03   -1.04  1.0000
   2  -7   4     141      37                                                          69    1.03    1.04  1.0000
  -2   7   4     276      25                                                         170    1.03    1.04  1.0000
   7   2   4     220      32                                                         127    1.03   -1.04  1.0000
  -7  -2   4     214      37                                                         122    1.03   -1.04  1.0000
   7   1  -4     255      49                                                         309    0.33    1.05  1.0000
   1  -7  -4     286      20                                                         344    0.33   -1.05  1.0000
   1  -7   4     294      58                                                         352    0.33    1.05  1.0000
   7   1   4     169      47                                                         212    0.33   -1.05  1.0000
   7   1   4     260      44                                                         315    0.33   -1.05  1.0000
  -1   7   4     254      36                                                         308    0.33    1.05  1.0000
  -7  -1   4     323      51                                                         384    0.33   -1.05  1.0000
   7   0  -4     210      42                                                         225    0.16    0.46  1.0000
   0  -7   4     168      44                                                         181    0.16    0.46  1.0000
   7   0   4     120      39                                                         131    0.16   -0.46  1.0000
   0   7   4     203      34                                                         218    0.16    0.46  1.0000
  -7   0   4     129      34                                                         141    0.16   -0.46  1.0000
   7  -1  -4     184      36                                                         156    0.61   -0.50  1.0000
  -1  -7   4     133      38                                                         109    0.61   -0.50  1.0000
   7  -1   4     303      53                                                         267    0.61    0.50  1.0000
   1   7   4     170      32                                                         143    0.61   -0.50  1.0000
  -7   1   4     208      22                                                         178    0.61    0.50  1.0000
  -7   1   4     144      33                                                         119    0.61    0.50  1.0000
   2   7  -4     159      44                                                         153    0.92    1.35  1.0000
   7  -2  -4     183      37                                                         178    0.92   -1.35  1.0000
   7  -2   4     172      44                                                         166    0.92    1.35  1.0000
  -2  -7   4      50      36                                                          38    0.92   -1.35  1.0000
   2   7   4     195      37                                                         190    0.92   -1.35  1.0000
   7  -3  -4     336      51                                                         437    0.57   -1.68  1.0000
   3   7  -4     341      64                                                         443    0.57    1.68  1.0000
  -3  -7   4     290      59                                                         383    0.57   -1.68  1.0000
   3   7   4     314      52                                                         411    0.57   -1.68  1.0000
   7  -3   4     287      58                                                         379    0.57    1.68  1.0000
   4   7  -4      41      31                                                           9   -0.05    1.39  1.0000
   7  -4  -4      39      23                                                           8   -0.05   -1.39  1.0000
  -4  -7   4     116      36                                                          55   -0.05   -1.39  1.0000
   4   7   4     115      33                                                          54   -0.05   -1.39  1.0000
   4   7   4     102      19                                                          45   -0.05   -1.39  1.0000
   7  -5  -4     154      35                                                         154   -0.35   -0.73  1.0000
   5   7  -4     113      46                                                         112   -0.35    0.73  1.0000
   5   7   4     210      46                                                         210   -0.35   -0.73  1.0000
   5   7   4     214      31                                                         214   -0.35   -0.73  1.0000
   6   7  -4      40      39                                                          33   -0.33    0.03  1.0000
   7  -6  -4      41      27                                                          34   -0.33   -0.03  1.0000
   6   7   4      47      26                                                          39   -0.33   -0.03  1.0000
   6   7   4     103      40                                                          91   -0.33   -0.03  1.0000
   7   7  -4     114      46                                                          85   -0.27   -0.50  1.0000
   7  -7  -4      86      31                                                          61   -0.27    0.50  1.0000
   7   7   4      42      27                                                          25   -0.27    0.50  1.0000
   7   7   4      73      36                                                          50   -0.27    0.50  1.0000
   8   7  -4    1133     109                                                        1103   -0.17   -0.69  1.0000
   7  -8  -4    1316      80                                                        1284   -0.17    0.69  1.0000
   8   7   4    1349      83                                                        1317   -0.17    0.69  1.0000
   8   7   4    1156     103                                                        1126   -0.17    0.69  1.0000
   8   6  -4     446      72                                                         425   -0.13   -0.42  1.0000
   6  -8  -4     317      45                                                         300   -0.13    0.42  1.0000
   8   6   4     371      61                                                         352   -0.13    0.42  1.0000
   8   6   4     414      51                                                         394   -0.13    0.42  1.0000
   5  -8  -4     158      33                                                         153    0.12   -0.02  1.0000
   8   5  -4     190      54                                                         184    0.12    0.02  1.0000
   8   5   4     225      52                                                         219    0.12   -0.02  1.0000
   8   5   4     109      34                                                         105    0.12   -0.02  1.0000
   4  -8  -4    4288     156                                                        4474    0.58   -0.49  1.0000
   8   4  -4    4343     199                                                        4531    0.58    0.49  1.0000
   8   4   4    4382     191                                                        4570    0.58   -0.49  1.0000
   8   4   4    4438     175                                                        4627    0.58   -0.49  1.0000
  -4   8   4    4611     137                                                        4805    0.58    0.49  1.0000
   3  -8  -4    1425      63                                                        1286    0.87   -0.87  1.0000
   8   3  -4    1468      97                                                        1326    0.87    0.87  1.0000
   3  -8  -4    1563      68                                                        1417    0.87   -0.87  1.0000
   8   3   4    1635      84                                                        1486    0.87   -0.87  1.0000
  -8  -3   4    1307      88                                                        1173    0.87   -0.87  1.0000
  -3   8   4    1429      59                                                        1289    0.87    0.87  1.0000
   2  -8  -4      54      19                                                          51    0.72   -0.94  1.0000
   8   2  -4      44      32                                                          40    0.72    0.94  1.0000
  -2   8   4       9      19                                                          -1    0.72    0.94  1.0000
   8   2   4      29      34                                                          24    0.72   -0.94  1.0000
   8   2   4      32      27                                                          27    0.72   -0.94  1.0000
  -8  -2   4      56      33                                                          53    0.72   -0.94  1.0000
   1  -8  -4       4      13                                                          -8    0.43   -0.63  1.0000
   8   1  -4       4      30                                                          -1    0.43    0.63  1.0000
  -1   8   4       2      20                                                           6    0.43    0.63  1.0000
   1  -8   4      31      39                                                          51    0.43    0.63  1.0000
   8   1   4       4      28                                                         -32    0.43   -0.63  1.0000
   8   1   4      29      27                                                          48    0.43   -0.63  1.0000
  -8  -1   4      11      28                                                          23    0.43   -0.63  1.0000
   0  -8  -4     451      27                                                         456    0.52   -0.05  1.0000
   8   0  -4     380      55                                                         384    0.52    0.05  1.0000
  -8   0   4     433      57                                                         438    0.52   -0.05  1.0000
   8   0   4     399      61                                                         403    0.52   -0.05  1.0000
   8   0   4     383      53                                                         387    0.52   -0.05  1.0000
   0  -8   4     414      64                                                         419    0.52    0.05  1.0000
   0   8   4     412      45                                                         417    0.52    0.05  1.0000
   8  -1  -4     164      34                                                         106    0.95   -0.65  1.0000
  -1  -8  -4     131      14                                                          80    0.95    0.65  1.0000
   1   8   4     117      28                                                          69    0.95   -0.65  1.0000
  -8   1   4     107      31                                                          61    0.95    0.65  1.0000
  -1  -8   4      53      36                                                          22    0.95   -0.65  1.0000
   8  -1   4      22      30                                                           4    0.95    0.65  1.0000
   8  -2  -4     256      54                                                         401    1.14   -1.33  1.0000
   2   8  -4     191      58                                                         318    1.14    1.33  1.0000
  -2  -8  -4     229      27                                                         367    1.14    1.33  1.0000
   2   8   4     217      47                                                         352    1.14   -1.33  1.0000
   8  -2   4     139      53                                                         249    1.14    1.33  1.0000
   8  -3  -4      24      25                                                         -25    0.82   -1.73  1.0000
  -3  -8  -4       9      15                                                          20    0.82    1.73  1.0000
   3   8  -4       9      34                                                          19    0.82    1.73  1.0000
   8  -3   4      12      37                                                          32    0.82    1.73  1.0000
   3   8   4      24      21                                                         -56    0.82   -1.73  1.0000
   4   8  -4      74      36                                                          23    0.27    1.57  1.0000
  -4  -8  -4     181      22                                                          94    0.27    1.57  1.0000
   8  -4  -4     259      38                                                         153    0.27   -1.57  1.0000
   4   8   4     168      35                                                          85    0.27   -1.57  1.0000
   4   8   4     174      25                                                          89    0.27   -1.57  1.0000
   8  -4   4     195      41                                                         104    0.27    1.57  1.0000
  -5  -8  -4     370      42                                                         439   -0.18    0.90  1.0000
   5   8  -4     245      59                                                         302   -0.18    0.90  1.0000
   8  -5  -4     340      55                                                         407   -0.18   -0.90  1.0000
   5   8   4     290      40                                                         352   -0.18   -0.90  1.0000
   5   8   4     370      59                                                         439   -0.18   -0.90  1.0000
   6   8  -4     538      79                                                         589   -0.42    0.03  1.0000
   8  -6  -4     622      67                                                         677   -0.42   -0.03  1.0000
   6   8   4     437      66                                                         483   -0.42   -0.03  1.0000
   6   8   4     506      53                                                         555   -0.42   -0.03  1.0000
   7   8  -4     341      66                                                         305   -0.41   -0.58  1.0000
   8  -7  -4     406      53                                                         367   -0.41    0.58  1.0000
   7   8   4     369      58                                                         332   -0.41    0.58  1.0000
   7   8   4     412      48                                                         373   -0.41    0.58  1.0000
   8  -8  -4     987      83                                                         977   -0.15    0.57  1.0000
   8   8   4     852      90                                                         843   -0.15    0.57  1.0000
   9   8   4      86      43                                                          81    0.12   -0.00  1.0000
   7  -9  -4     276      46                                                         248    0.06    0.35  1.0000
   9   7   4     334      53                                                         304    0.06    0.35  1.0000
   9   7   4     347      63                                                         316    0.06    0.35  1.0000
   6  -9  -4     252      44                                                         289   -0.03    0.45  1.0000
   9   6  -4     192      56                                                         225   -0.03   -0.45  1.0000
   9   6   4     244      60                                                         281   -0.03    0.45  1.0000
   9   6   4     212      48                                                         247   -0.03    0.45  1.0000
   9   5  -4     345      66                                                         362   -0.17   -0.16  1.0000
   5  -9  -4     376      47                                                         394   -0.17    0.16  1.0000
   9   5   4     362      55                                                         379   -0.17    0.16  1.0000
   9   5   4     384      67                                                         402   -0.17    0.16  1.0000
   4  -9  -4      31      29                                                          39   -0.28   -0.40  1.0000
   9   4  -4      37      42                                                          46   -0.28    0.40  1.0000
   9   4   4      55      35                                                          66   -0.28   -0.40  1.0000
   9   4   4      70      44                                                          83   -0.28   -0.40  1.0000
   9   3  -4    1178     104                                                        1209   -0.24    0.81  1.0000
   3  -9  -4    1202      68                                                        1233   -0.24   -0.81  1.0000
   9   3   4    1185     107                                                        1215   -0.24   -0.81  1.0000
   9   3   4    1121      81                                                        1150   -0.24   -0.81  1.0000
  -3   9   4    1201      60                                                        1232   -0.24    0.81  1.0000
   2  -9  -4     249      35                                                         298    0.01   -0.72  1.0000
   9   2  -4     288      57                                                         340    0.01    0.72  1.0000
   9   2   4     205      56                                                         249    0.01   -0.72  1.0000
   9   2   4     202      47                                                         246    0.01   -0.72  1.0000
  -2   9   4     239      37                                                         286    0.01    0.72  1.0000
   1  -9  -4      50      19                                                          34    0.41   -0.25  1.0000
   9   1  -4      84      35                                                          63    0.41    0.25  1.0000
  -9  -1   4      75      36                                                          56    0.41   -0.25  1.0000
   9   1   4      34      30                                                          21    0.41   -0.25  1.0000
  -1   9   4      56      25                                                          39    0.41    0.25  1.0000
   9   1   4       2      34                                                         -12    0.41   -0.25  1.0000
   9   0  -4     264      53                                                         315    0.76   -0.25  1.0000
   0  -9  -4     342      33                                                         400    0.76    0.25  1.0000
  -9   0   4     324      58                                                         381    0.76    0.25  1.0000
   9   0   4     295      64                                                         349    0.76    0.25  1.0000
   0   9   4     234      41                                                         282    0.76   -0.25  1.0000
   9   0   4     350      57                                                         409    0.76    0.25  1.0000
  -1  -9  -4     211      25                                                         208    0.84    0.66  1.0000
   9  -1  -4     245      50                                                         243    0.84   -0.66  1.0000
   1   9   4     182      39                                                         179    0.84   -0.66  1.0000
   9  -1   4     213      51                                                         210    0.84    0.66  1.0000
   2   9  -4     424      77                                                         559    0.74    0.98  1.0000
  -2  -9  -4     400      38                                                         531    0.74    0.98  1.0000
   9  -2  -4     518      69                                                         666    0.74   -0.98  1.0000
   9  -2   4     371      69                                                         497    0.74    0.98  1.0000
   2   9   4     397      57                                                         528    0.74   -0.98  1.0000
   9  -3  -4     161      42                                                         129    0.65   -1.17  1.0000
   3   9  -4      80      41                                                          55    0.65    1.17  1.0000
  -3  -9  -4      86      20                                                          60    0.65    1.17  1.0000
   9  -3   4     156      49                                                         124    0.65    1.17  1.0000
   3   9   4     185      39                                                         151    0.65   -1.17  1.0000
   4   9  -4      95      44                                                          67    0.54    1.07  1.0000
   9  -4  -4     125      38                                                          94    0.54   -1.07  1.0000
   4   9   4      80      32                                                          54    0.54   -1.07  1.0000
   9  -4   4     202      49                                                         164    0.54    1.07  1.0000
   5   9  -4      60      45                                                          82    0.19    0.65  1.0000
   9  -5  -4      81      39                                                         107    0.19   -0.65  1.0000
   9  -5   4      96      46                                                         124    0.19    0.65  1.0000
   5   9   4      76      39                                                         101    0.19   -0.65  1.0000
   6   9  -4      38      43                                                          47   -0.26    0.08  1.0000
   9  -6  -4      62      36                                                          73   -0.26   -0.08  1.0000
   6   9   4      64      39                                                          76   -0.26   -0.08  1.0000
   9  -7  -4     397      62                                                         439   -0.37    0.24  1.0000
   7   9   4     233      55                                                         266   -0.37    0.24  1.0000
   9  -8  -4      75      42                                                          78   -0.07    0.02  1.0000
   8   9   4      25      42                                                          27   -0.07    0.02  1.0000
   9   9   4      20      42                                                          32    0.24   -0.48  1.0000
  10   9  -4     154      52                                                         115    0.22    0.65  1.0000
  10   9   4      89      51                                                          60    0.22   -0.65  1.0000
  10   8  -4     120      46                                                          93    0.13    0.57  1.0000
  10   8   4      51      42                                                          34    0.13   -0.57  1.0000
  10   7  -4      10      38                                                          16    0.23    0.33  1.0000
  10   7   4      16      44                                                          23    0.23   -0.33  1.0000
  10   6  -4      55      35                                                          44    0.32    0.01  1.0000
  10   6   4       1      34                                                         -22    0.32   -0.01  1.0000
  10   6   4      15      39                                                          10    0.32   -0.01  1.0000
  10   5  -4     303      66                                                         300    0.03   -0.17  1.0000
  10   5  -4     330      54                                                         326    0.03   -0.17  1.0000
  10   5   4     300      54                                                         297    0.03    0.17  1.0000
  10   5   4     316      64                                                         313    0.03    0.17  1.0000
  10   4  -4     418      74                                                         485   -0.63   -0.08  1.0000
  10   4  -4     401      59                                                         467   -0.63   -0.08  1.0000
  10   4   4     462      78                                                         532   -0.63    0.08  1.0000
  10   4   4     398      63                                                         463   -0.63    0.08  1.0000
  10   3  -4     948     105                                                        1126   -1.08    0.14  1.0000
  10   3   4     833      97                                                        1001   -1.08   -0.14  1.0000
  10   3   4     900      90                                                        1074   -1.08   -0.14  1.0000
  -3  10   4     929      60                                                        1105   -1.08    0.14  1.0000
  10   2  -4      96      43                                                          60   -0.78    0.30  1.0000
  10   2   4     124      39                                                          82   -0.78   -0.30  1.0000
  -2  10   4     114      29                                                          74   -0.78    0.30  1.0000
  10   2   4     119      43                                                          78   -0.78   -0.30  1.0000
  10   1  -4     253      53                                                         229    0.05    0.30  1.0000
  -1  10   4     301      41                                                         275    0.05    0.30  1.0000
  10   1   4     409      65                                                         379    0.05   -0.30  1.0000
  10   1   4     299      52                                                         273    0.05   -0.30  1.0000
  10   0  -4       6      32                                                           5    0.62    0.08  1.0000
   0  10   4       3      25                                                         -16    0.62    0.08  1.0000
  10   0   4      58      40                                                          62    0.62   -0.08  1.0000
  10   0   4      58      37                                                          62    0.62   -0.08  1.0000
  10  -1  -4     493      67                                                         527    0.55   -0.27  1.0000
   1  10   4     373      53                                                         402    0.55   -0.27  1.0000
  10  -1   4     383      62                                                         413    0.55    0.27  1.0000
  10  -1   4     320      63                                                         347    0.55    0.27  1.0000
  10  -2  -4      58      39                                                          80    0.27   -0.51  1.0000
   2  10   4      49      31                                                          70    0.27   -0.51  1.0000
  10  -2   4     105      50                                                         135    0.27    0.51  1.0000
  10  -3  -4     891      86                                                         847    0.27   -0.52  1.0000
   3  10  -4     800      94                                                         758    0.27    0.52  1.0000
  10  -3   4     833      88                                                         790    0.27    0.52  1.0000
   3  10   4     746      72                                                         705    0.27   -0.52  1.0000
  10  -4  -4     463      65                                                         500    0.38   -0.37  1.0000
   4  10   4     332      57                                                         363    0.38   -0.37  1.0000
  10  -4   4     382      70                                                         415    0.38    0.37  1.0000
  10  -5  -4      25      36                                                          31    0.23   -0.19  1.0000
   5  10   4       5      30                                                           8    0.23   -0.19  1.0000
  10  -5   4      21      42                                                          26    0.23    0.19  1.0000
  10  -6  -4      52      38                                                          49   -0.09   -0.08  1.0000
  10  -6   4      55      45                                                          52   -0.09    0.08  1.0000
   6  10   4      17      37                                                          15   -0.09   -0.08  1.0000
  10  -7  -4       0      33                                                         -39   -0.14   -0.19  1.0000
   7  10   4       0      34                                                         -28   -0.14   -0.19  1.0000
  10  -7   4      77      48                                                          76   -0.14    0.19  1.0000
  10  -8  -4       2      34                                                         -27    0.15   -0.58  1.0000
   8  10   4       2      39                                                         -14    0.15   -0.58  1.0000
   9  10   4      64      50                                                          91    0.40   -0.85  1.0000
  10  10   4     301      70                                                         335    0.35   -0.63  1.0000
  11   9  -4      94      54                                                          93    0.01    0.27  1.0000
  11   9   4      35      51                                                          34    0.01   -0.27  1.0000
  11   8  -4     101      51                                                         131   -0.06    0.55  1.0000
  11   8   4      48      51                                                          69   -0.06   -0.55  1.0000
  11   7  -4     169      51                                                         137    0.14    0.77  1.0000
  11   7   4     166      54                                                         135    0.14   -0.77  1.0000
  11   6  -4      83      45                                                         115    0.41    0.68  1.0000
  11   6   4      83      53                                                         115    0.41   -0.68  1.0000
  11   5  -4      19      34                                                          18    0.25    0.18  1.0000
  11   5   4       1      37                                                         -27    0.25   -0.18  1.0000
  11   5   4       5      39                                                           4    0.25   -0.18  1.0000
  11   4  -4     202      49                                                         235   -0.49   -0.46  1.0000
  11   4   4     290      60                                                         330   -0.49    0.46  1.0000
  11   4   4     340      71                                                         383   -0.49    0.46  1.0000
  11   3  -4     291      58                                                         197   -1.18   -0.73  1.0000
  11   3  -4     327      47                                                         227   -1.18   -0.73  1.0000
  11   3   4     235      53                                                         151   -1.18    0.73  1.0000
  11   3   4     330      51                                                         229   -1.18    0.73  1.0000
  11   2  -4      98      44                                                          60   -1.12   -0.37  1.0000
  -2  11   4      74      30                                                          41   -1.12   -0.37  1.0000
  11   2   4      40      45                                                          16   -1.12    0.37  1.0000
  11   2   4     110      40                                                          70   -1.12    0.37  1.0000
  11   1  -4     173      50                                                         152   -0.40    0.24  1.0000
  -1  11   4     165      37                                                         144   -0.40    0.24  1.0000
  11   1   4     208      49                                                         185   -0.40   -0.24  1.0000
  11   1   4     130      49                                                         112   -0.40   -0.24  1.0000
  11   0  -4     430      68                                                         435    0.20    0.45  1.0000
  11   0   4     250      52                                                         254    0.20   -0.45  1.0000
  11   0   4     383      71                                                         388    0.20   -0.45  1.0000
   0  11   4     333      49                                                         337    0.20    0.45  1.0000
  11  -1  -4     107      45                                                         116    0.24    0.21  1.0000
  11  -1   4      60      44                                                          67    0.24   -0.21  1.0000
  11  -1   4      79      42                                                          87    0.24   -0.21  1.0000
   1  11   4     142      42                                                         153    0.24    0.21  1.0000
  11  -2  -4     153      50                                                         154   -0.00   -0.03  1.0000
  11  -2   4     115      48                                                         116   -0.00    0.03  1.0000
  11  -2   4     119      49                                                         120   -0.00    0.03  1.0000
   2  11   4      74      35                                                          75   -0.00   -0.03  1.0000
  11  -3  -4     373      63                                                         361   -0.12   -0.02  1.0000
  11  -3   4     188      55                                                         179   -0.12    0.02  1.0000
   3  11   4     249      49                                                         239   -0.12   -0.02  1.0000
  11  -4  -4     340      62                                                         351   -0.10    0.07  1.0000
   4  11   4     248      51                                                         257   -0.10    0.07  1.0000
  11  -4   4     271      64                                                         281   -0.10   -0.07  1.0000
  11  -5  -4      95      47                                                          93   -0.06    0.06  1.0000
  11  -5   4     130      50                                                         127   -0.06   -0.06  1.0000
   5  11   4     196      49                                                         193   -0.06    0.06  1.0000
  11  -6  -4      30      40                                                          31    0.02   -0.09  1.0000
   6  11   4       0      31                                                          -8    0.02   -0.09  1.0000
  11  -6   4      28      47                                                          29    0.02    0.09  1.0000
  11  -7  -4      38      45                                                          39    0.21   -0.39  1.0000
   7  11   4       3      38                                                           2    0.21   -0.39  1.0000
  11  -7   4      53      47                                                          54    0.21    0.39  1.0000
   8  11   4     117      58                                                         167    0.40   -0.74  1.0000
  11  -8   4      43      50                                                          74    0.40    0.74  1.0000
  11  -9   4     215      63                                                         260    0.45    0.82  1.0000
   9  11   4     306      74                                                         359    0.45   -0.82  1.0000
  12   8  -4      26      43                                                          26   -0.15    0.05  1.0000
  12   8   4       0      44                                                         -18   -0.15   -0.05  1.0000
  12   7  -4     140      52                                                         135   -0.05    0.57  1.0000
  12   7   4     121      59                                                         116   -0.05   -0.57  1.0000
  12   6  -4      30      43                                                          42    0.12    0.96  1.0000
  12   6   4      89      55                                                         113    0.12   -0.96  1.0000
  12   5  -4       3      37                                                          -8    0.04    0.68  1.0000
  12   5   4       3      39                                                         -33    0.04   -0.68  1.0000
  12   5   4      45      46                                                          71    0.04   -0.68  1.0000
  12   4  -4       1      33                                                           5   -0.40   -0.19  1.0000
  12   4   4      66      50                                                          86   -0.40    0.19  1.0000
  12   4   4      47      46                                                          64   -0.40    0.19  1.0000
  12   3  -4      72      36                                                          68   -0.87   -0.88  1.0000
  12   3   4      28      42                                                          21   -0.87    0.88  1.0000
  12   3   4      19      42                                                          11   -0.87    0.88  1.0000
  12   2   4      10      41                                                          -7   -0.95    0.81  1.0000
  12   2   4     171      47                                                         103   -0.95    0.81  1.0000
  -1  12   4      49      33                                                          41   -0.60   -0.30  1.0000
  12   1   4      43      48                                                          35   -0.60    0.30  1.0000
  12   1   4      40      41                                                          33   -0.60    0.30  1.0000
  12   0  -4      60      45                                                          59   -0.19    0.07  1.0000
  12   0   4       0      46                                                         -11   -0.19   -0.07  1.0000
  12   0   4      62      43                                                          61   -0.19   -0.07  1.0000
   0  12   4      35      34                                                          34   -0.19    0.07  1.0000
  12  -1  -4      47      45                                                          41   -0.05    0.17  1.0000
  12  -1   4      81      44                                                          74   -0.05   -0.17  1.0000
  12  -1   4      56      48                                                          50   -0.05   -0.17  1.0000
   1  12   4      20      34                                                          16   -0.05    0.17  1.0000
  12  -2  -4      39      44                                                          30   -0.19    0.27  1.0000
  12  -2   4      57      47                                                          46   -0.19   -0.27  1.0000
  12  -2   4      96      45                                                          82   -0.19   -0.27  1.0000
   2  12   4     130      42                                                         114   -0.19    0.27  1.0000
  12  -3  -4       2      38                                                         -42   -0.44    0.37  1.0000
  12  -3   4       2      44                                                         -14   -0.44   -0.37  1.0000
   3  12   4       2      33                                                         -18   -0.44    0.37  1.0000
  12  -4  -4      11      40                                                          23   -0.53    0.29  1.0000
  12  -4   4      19      45                                                          35   -0.53   -0.29  1.0000
   4  12   4       9      38                                                          21   -0.53    0.29  1.0000
  12  -5  -4       1      42                                                          -1   -0.31    0.05  1.0000
  12  -5   4      17      46                                                          22   -0.31   -0.05  1.0000
   5  12   4      21      40                                                          27   -0.31    0.05  1.0000
   6  12   4       0      34                                                         -52    0.10   -0.17  1.0000
  12  -6   4      34      44                                                          36    0.10    0.17  1.0000
   7  12   4       2      38                                                         -46    0.40   -0.33  1.0000
  12  -7   4      44      49                                                          32    0.40    0.33  1.0000
   8  12   4      23      44                                                          29    0.43   -0.42  1.0000
  12  -8   4       2      46                                                         -50    0.43    0.42  1.0000
  13   6  -4       3      42                                                         -12   -0.15    0.63  1.0000
  13   6   4       3      35                                                         -84   -0.15   -0.63  1.0000
  13   5  -4      55      43                                                          49   -0.28    0.81  1.0000
  13   5   4       5      43                                                         -16   -0.28   -0.81  1.0000
  13   4   4      58      56                                                          80   -0.44   -0.41  1.0000
  13   4   4      91      59                                                         118   -0.44   -0.41  1.0000
  13   3   4     279      69                                                         307   -0.58    0.18  1.0000
  13   3   4     252      70                                                         278   -0.58    0.18  1.0000
  13   2   4      57      52                                                          89   -0.61    0.58  1.0000
  13   1   4      93      60                                                         138   -0.53    0.75  1.0000
   0  13   4      38      40                                                          61   -0.41   -0.68  1.0000
  13   0   4       4      47                                                          -6   -0.41    0.68  1.0000
  13  -1   4      30      49                                                          43   -0.34    0.28  1.0000
   1  13   4      36      39                                                          51   -0.34   -0.28  1.0000
  13  -2   4     187      59                                                         160   -0.42   -0.27  1.0000
   2  13   4     149      48                                                         125   -0.42    0.27  1.0000
   3  13   4      52      47                                                          74   -0.59    0.55  1.0000
  13  -3   4      59      53                                                          83   -0.59   -0.55  1.0000
   4  13   4     130      51                                                         164   -0.59    0.37  1.0000
  13  -4   4       1      49                                                           3   -0.59   -0.37  1.0000
  13  -5   4      46      52                                                          55   -0.29   -0.02  1.0000
   5  13   4      38      45                                                          46   -0.29    0.02  1.0000
   6  13   4     191      57                                                         195    0.11   -0.17  1.0000
  13  -6   4      76      56                                                          78    0.11    0.17  1.0000
  14   3   4       2      47                                                         -31   -0.28   -0.44  1.0000
  14   2   4      35      54                                                          43   -0.27    0.02  1.0000
  14   1   4     216      63                                                         211   -0.34    0.60  1.0000
   0  14   4       5      37                                                         -17   -0.45   -0.80  1.0000
  14   0   4      19      48                                                           6   -0.45    0.80  1.0000
  14  -1   4      73      53                                                          92   -0.52    0.41  1.0000
   1  14   4     125      51                                                         150   -0.52   -0.41  1.0000
   2  14   4     184      55                                                         225   -0.54    0.18  1.0000
  14  -2   4      37      55                                                          57   -0.54   -0.18  1.0000
  14  -3   4       3      46                                                         -35   -0.49   -0.44  1.0000
   3  14   4       3      41                                                         -42   -0.49    0.44  1.0000
   0   0   5      62      20                                                          78   -0.37   -0.00  1.0000
   1   0   5      69      21                                                          84   -0.33   -0.03  1.0000
  -1   0   5      91      22                                                         108   -0.33   -0.03  1.0000
   0  -1   5      87      25                                                         103   -0.33    0.03  1.0000
   0   1   5     100      31                                                         117   -0.33    0.03  1.0000
   0   1   5      78      16                                                          93   -0.33    0.03  1.0000
   1   1   5      98      31                                                         102   -0.27   -0.22  1.0000
   1   1   5      78      17                                                          81   -0.27   -0.22  1.0000
   1  -1   5      84      24                                                          87   -0.27    0.22  1.0000
  -1   1   5      96      18                                                         100   -0.27    0.22  1.0000
  -1   1   5      89      28                                                          93   -0.27    0.22  1.0000
  -1  -1   5     116      26                                                         120   -0.27   -0.22  1.0000
   2   1  -5     134      32                                                         166   -0.14    0.56  1.0000
  -1   2   5     157      35                                                         191   -0.14    0.56  1.0000
   2   1   5     134      23                                                         166   -0.14   -0.56  1.0000
   2   1   5     187      41                                                         225   -0.14   -0.56  1.0000
   1  -2   5     144      34                                                         177   -0.14    0.56  1.0000
  -1   2   5     151      16                                                         185   -0.14    0.56  1.0000
  -2  -1   5     122      29                                                         152   -0.14   -0.56  1.0000
   2   0  -5     498      42                                                         468   -0.22    0.18  1.0000
  -2   0   5     465      40                                                         436   -0.22   -0.18  1.0000
   2   0   5     421      52                                                         393   -0.22   -0.18  1.0000
   2   0   5     446      39                                                         417   -0.22   -0.18  1.0000
   0   2   5     451      48                                                         422   -0.22    0.18  1.0000
   0  -2   5     472      47                                                         442   -0.22    0.18  1.0000
   2  -1  -5     113      23                                                         108   -0.15   -0.32  1.0000
  -2   1   5      58      18                                                          54   -0.15    0.32  1.0000
   1   2   5      56      26                                                          52   -0.15   -0.32  1.0000
   2  -1   5      73      24                                                          69   -0.15    0.32  1.0000
  -1  -2   5      55      25                                                          51   -0.15   -0.32  1.0000
   2   2  -5     393      48                                                         419   -0.06    0.75  1.0000
   2  -2  -5     456      33                                                         485   -0.06   -0.75  1.0000
   2   2   5     422      24                                                         449   -0.06   -0.75  1.0000
   2   2   5     364      51                                                         389   -0.06   -0.75  1.0000
  -2  -2   5     341      45                                                         365   -0.06   -0.75  1.0000
  -2   2   5     494      48                                                         524   -0.06    0.75  1.0000
  -2   2   5     488      30                                                         518   -0.06    0.75  1.0000
   2  -2   5     476      51                                                         505   -0.06    0.75  1.0000
   3   2  -5     709      57                                                         585   -0.29    0.92  1.0000
   3   2   5     720      63                                                         595   -0.29   -0.92  1.0000
  -3  -2   5     709      56                                                         585   -0.29   -0.92  1.0000
   3   2   5     760      33                                                         631   -0.29   -0.92  1.0000
  -2   3   5     715      50                                                         590   -0.29    0.92  1.0000
   3   2   5     723      35                                                         597   -0.29   -0.92  1.0000
   2  -3   5     715      58                                                         590   -0.29    0.92  1.0000
   3   1  -5     280      36                                                         212   -0.24    0.86  1.0000
   3   1   5     250      26                                                         186   -0.24   -0.86  1.0000
   3   1   5     313      45                                                         241   -0.24   -0.86  1.0000
  -1   3   5     328      37                                                         254   -0.24    0.86  1.0000
  -3  -1   5     248      33                                                         184   -0.24   -0.86  1.0000
   1  -3   5     266      39                                                         200   -0.24    0.86  1.0000
   3   0  -5     826      56                                                         856   -0.19    0.42  1.0000
   0   3   5     772      64                                                         801   -0.19    0.42  1.0000
   0  -3   5     850      64                                                         880   -0.19    0.42  1.0000
   3   0   5     809      52                                                         838   -0.19   -0.42  1.0000
  -3   0   5     794      53                                                         823   -0.19   -0.42  1.0000
   3   0   5     819      76                                                         848   -0.19   -0.42  1.0000
   3  -1  -5     578      48                                                         593   -0.02   -0.26  1.0000
  -3   1   5     481      41                                                         494   -0.02    0.26  1.0000
  -1  -3   5     495      54                                                         508   -0.02   -0.26  1.0000
   3  -1   5     585      52                                                         600   -0.02    0.26  1.0000
   1   3   5     618      59                                                         633   -0.02   -0.26  1.0000
   3  -2  -5     318      35                                                         375   -0.05   -0.75  1.0000
   2   3  -5     274      47                                                         327   -0.05    0.75  1.0000
  -3   2   5     267      31                                                         319   -0.05    0.75  1.0000
   3  -2   5     281      45                                                         334   -0.05    0.75  1.0000
   2   3   5     230      44                                                         278   -0.05   -0.75  1.0000
  -3   2   5     283      37                                                         337   -0.05    0.75  1.0000
  -2  -3   5     297      47                                                         352   -0.05   -0.75  1.0000
   3  -3  -5     127      19                                                          77   -0.50   -0.85  1.0000
   3   3  -5     113      31                                                          66   -0.50    0.85  1.0000
   3   3   5      82      29                                                          43   -0.50   -0.85  1.0000
   3  -3   5     186      35                                                         124   -0.50    0.85  1.0000
  -3  -3   5     108      30                                                          62   -0.50   -0.85  1.0000
  -3   3   5     158      23                                                         101   -0.50    0.85  1.0000
   4   3  -5      97      41                                                         150   -1.07    0.74  1.0000
   3  -4  -5     142      22                                                         206   -1.07   -0.74  1.0000
   4   3   5     229      51                                                         310   -1.07   -0.74  1.0000
   3  -4   5     164      45                                                         233   -1.07    0.74  1.0000
   4   3   5     152      23                                                         219   -1.07   -0.74  1.0000
  -4  -3   5     147      41                                                         212   -1.07   -0.74  1.0000
  -3   4   5     153      29                                                         220   -1.07    0.74  1.0000
   4   2  -5     242      47                                                         307   -0.85    0.79  1.0000
   4   2   5     202      28                                                         261   -0.85   -0.79  1.0000
   4   2   5     238      50                                                         303   -0.85   -0.79  1.0000
  -2   4   5     191      34                                                         249   -0.85    0.79  1.0000
  -4  -2   5     207      43                                                         267   -0.85   -0.79  1.0000
   2  -4   5     299      51                                                         371   -0.85    0.79  1.0000
   4   1  -5     213      34                                                         143   -0.71    0.82  1.0000
   4   1   5     253      42                                                         176   -0.71   -0.82  1.0000
  -4  -1   5     277      34                                                         196   -0.71   -0.82  1.0000
   1  -4   5     318      43                                                         231   -0.71    0.82  1.0000
  -1   4   5     300      34                                                         215   -0.71    0.82  1.0000
   4   0  -5    1357      78                                                        1480   -0.42    0.53  1.0000
   4   0   5    1352      91                                                        1475   -0.42   -0.53  1.0000
   0   4   5    1188      74                                                        1304   -0.42    0.53  1.0000
  -4   0   5    1296      74                                                        1417   -0.42   -0.53  1.0000
   0  -4   5    1247      86                                                        1365   -0.42    0.53  1.0000
   4  -1  -5     421      44                                                         413   -0.08    0.00  1.0000
   1   4   5     424      50                                                         416   -0.08    0.00  1.0000
   4  -1   5     464      49                                                         456   -0.08   -0.00  1.0000
  -4   1   5     411      41                                                         403   -0.08   -0.00  1.0000
   4  -1   5     480      62                                                         472   -0.08   -0.00  1.0000
  -1  -4   5     462      55                                                         454   -0.08    0.00  1.0000
   2   4  -5      70      31                                                          58   -0.17    0.47  1.0000
   4  -2  -5      56      23                                                          45   -0.17   -0.47  1.0000
  -4   2   5      77      23                                                          64   -0.17    0.47  1.0000
   2   4   5      92      30                                                          78   -0.17   -0.47  1.0000
  -2  -4   5      71      31                                                          59   -0.17   -0.47  1.0000
   4  -2   5     105      30                                                          90   -0.17    0.47  1.0000
   3   4  -5    2796     143                                                        3089   -0.75    0.77  1.0000
   4  -3  -5    2899     115                                                        3197   -0.75   -0.77  1.0000
  -4   3   5    2857     107                                                        3153   -0.75    0.77  1.0000
  -3  -4   5    2797     141                                                        3090   -0.75   -0.77  1.0000
   4  -3   5    3153     143                                                        3463   -0.75    0.77  1.0000
   3   4   5    2714     135                                                        3002   -0.75   -0.77  1.0000
   4   4  -5    1965     102                                                        1675   -1.25    0.84  1.0000
   4  -4  -5    2144      74                                                        1841   -1.25   -0.84  1.0000
  -4  -4   5    2086     103                                                        1787   -1.25   -0.84  1.0000
   4   4   5    2047      60                                                        1751   -1.25   -0.84  1.0000
  -4   4   5    2182      68                                                        1876   -1.25    0.84  1.0000
   4  -4   5    2033     103                                                        1738   -1.25    0.84  1.0000
   4   4   5    1980      98                                                        1689   -1.25   -0.84  1.0000
   4  -5  -5     509      38                                                         569   -1.25   -0.63  1.0000
   5   4  -5     541      71                                                         603   -1.25    0.63  1.0000
   5   4   5     467      65                                                         524   -1.25   -0.63  1.0000
  -5  -4   5     490      66                                                         549   -1.25   -0.63  1.0000
   5   4   5     503      37                                                         562   -1.25   -0.63  1.0000
   4  -5   5     554      72                                                         617   -1.25    0.63  1.0000
  -4   5   5     519      34                                                         580   -1.25    0.63  1.0000
   5   3  -5    1357      83                                                        1177   -1.32    0.54  1.0000
  -5  -3   5    1386      84                                                        1204   -1.32   -0.54  1.0000
   5   3   5    1417      59                                                        1233   -1.32   -0.54  1.0000
   3  -5   5    1605      93                                                        1410   -1.32    0.54  1.0000
  -3   5   5    1499      58                                                        1310   -1.32    0.54  1.0000
   5   3   5    1384      98                                                        1202   -1.32   -0.54  1.0000
   5   2  -5      62      26                                                          22   -1.29    0.43  1.0000
   5   2   5     125      22                                                          65   -1.29   -0.43  1.0000
   2  -5   5      74      31                                                          30   -1.29    0.43  1.0000
  -5  -2   5     119      29                                                          61   -1.29   -0.43  1.0000
   5   2   5     213      41                                                         133   -1.29   -0.43  1.0000
  -2   5   5      12      19                                                          -1   -1.29    0.43  1.0000
   5   1  -5     425      57                                                         552   -1.17    0.33  1.0000
  -1   5   5     291      43                                                         398   -1.17    0.33  1.0000
  -5  -1   5     337      51                                                         451   -1.17   -0.33  1.0000
   1  -5   5     293      58                                                         400   -1.17    0.33  1.0000
   5   1   5     330      62                                                         443   -1.17   -0.33  1.0000
   5   0  -5     341      50                                                         407   -0.82    0.29  1.0000
  -5   0   5     364      47                                                         432   -0.82   -0.29  1.0000
   5   0   5     377      65                                                         447   -0.82   -0.29  1.0000
   0  -5   5     384      59                                                         454   -0.82    0.29  1.0000
   0   5   5     315      44                                                         379   -0.82    0.29  1.0000
   5  -1  -5      41      27                                                          44   -0.49    0.28  1.0000
   1   5   5      64      27                                                          68   -0.49    0.28  1.0000
  -5   1   5      78      28                                                          82   -0.49   -0.28  1.0000
   5  -1   5      97      39                                                         102   -0.49   -0.28  1.0000
  -1  -5   5     105      40                                                         111   -0.49    0.28  1.0000
   5  -2  -5    2409      99                                                        2283   -0.54    0.09  1.0000
   2   5  -5    2228     117                                                        2107   -0.54   -0.09  1.0000
  -2  -5   5    2493     122                                                        2365   -0.54    0.09  1.0000
  -5   2   5    2479      83                                                        2351   -0.54   -0.09  1.0000
   2   5   5    2178     103                                                        2058   -0.54    0.09  1.0000
   5  -2   5    2421     122                                                        2295   -0.54   -0.09  1.0000
   3   5  -5    1350      97                                                        1444   -0.85    0.37  1.0000
   5  -3  -5    1388      75                                                        1484   -0.85   -0.37  1.0000
   3   5   5    1486      89                                                        1586   -0.85   -0.37  1.0000
  -5   3   5    1389      59                                                        1485   -0.85    0.37  1.0000
  -3  -5   5    1548     101                                                        1650   -0.85   -0.37  1.0000
   4   5  -5      60      40                                                          91   -1.00    0.70  1.0000
   5  -4  -5      68      27                                                         101   -1.00   -0.70  1.0000
  -4  -5   5     110      42                                                         153   -1.00   -0.70  1.0000
  -5   4   5     101      17                                                         141   -1.00    0.70  1.0000
   4   5   5      31      32                                                          52   -1.00   -0.70  1.0000
   5  -4   5      80      39                                                         116   -1.00    0.70  1.0000
   5   5  -5     372      56                                                         317   -0.80    0.54  1.0000
   5  -5  -5     394      37                                                         337   -0.80   -0.54  1.0000
   5  -5   5     255      51                                                         209   -0.80    0.54  1.0000
   5   5   5     333      51                                                         281   -0.80   -0.54  1.0000
   5   5   5     359      27                                                         305   -0.80   -0.54  1.0000
  -5  -5   5     300      54                                                         250   -0.80   -0.54  1.0000
   5  -6  -5       1      20                                                         -18   -0.38   -0.04  1.0000
   6   5  -5       8      34                                                          13   -0.38    0.04  1.0000
   6   5   5       1      35                                                           3   -0.38   -0.04  1.0000
   4  -6  -5     296      31                                                         336   -0.87   -0.10  1.0000
   6   4  -5     277      56                                                         316   -0.87    0.10  1.0000
   4  -6   5     268      58                                                         306   -0.87    0.10  1.0000
   6   4   5     289      37                                                         329   -0.87   -0.10  1.0000
  -6  -4   5     302      56                                                         343   -0.87   -0.10  1.0000
   6   4   5     393      65                                                         440   -0.87   -0.10  1.0000
   6   3  -5    3855     175                                                        4249   -1.23    0.15  1.0000
   3  -6   5    3429     174                                                        3801   -1.23    0.15  1.0000
   6   3   5    3536     141                                                        3914   -1.23   -0.15  1.0000
   6   3   5    3720     176                                                        4107   -1.23   -0.15  1.0000
  -6  -3   5    3562     167                                                        3941   -1.23   -0.15  1.0000
  -3   6   5    3600     128                                                        3981   -1.23    0.15  1.0000
   6   2  -5     446      54                                                         328   -1.33   -0.04  1.0000
   2  -6   5     376      55                                                         268   -1.33   -0.04  1.0000
   6   2   5     474      41                                                         352   -1.33    0.04  1.0000
  -2   6   5     456      37                                                         337   -1.33   -0.04  1.0000
  -6  -2   5     561      55                                                         428   -1.33    0.04  1.0000
   6   2   5     392      57                                                         282   -1.33    0.04  1.0000
   6   1  -5    1091      76                                                        1040   -1.16   -0.27  1.0000
   6   1   5     933      61                                                         885   -1.16    0.27  1.0000
   6   1   5    1006      91                                                         956   -1.16    0.27  1.0000
  -6  -1   5     985      70                                                         936   -1.16    0.27  1.0000
   1  -6   5    1067      91                                                        1016   -1.16   -0.27  1.0000
  -1   6   5    1010      59                                                         960   -1.16   -0.27  1.0000
   6   0  -5     326      53                                                         395   -0.96   -0.10  1.0000
  -6   0   5     320      50                                                         389   -0.96    0.10  1.0000
   0   6   5     317      44                                                         385   -0.96   -0.10  1.0000
   0  -6   5     209      52                                                         265   -0.96   -0.10  1.0000
   6   0   5     314      59                                                         382   -0.96    0.10  1.0000
   6  -1  -5     217      35                                                         148   -0.98    0.38  1.0000
  -1  -6   5     189      43                                                         125   -0.98    0.38  1.0000
   1   6   5     231      35                                                         160   -0.98    0.38  1.0000
  -6   1   5     133      30                                                          80   -0.98   -0.38  1.0000
   6  -1   5     178      41                                                         116   -0.98   -0.38  1.0000
   6  -2  -5      58      28                                                          41   -1.07    0.63  1.0000
   2   6  -5      64      37                                                          46   -1.07   -0.63  1.0000
  -2  -6   5      57      34                                                          40   -1.07    0.63  1.0000
  -6   2   5      59      18                                                          42   -1.07   -0.63  1.0000
   2   6   5      43      27                                                          27   -1.07    0.63  1.0000
   6  -2   5      46      38                                                          30   -1.07   -0.63  1.0000
   6  -3  -5       6      22                                                          -6   -0.86    0.41  1.0000
   3   6  -5       6      32                                                         -18   -0.86   -0.41  1.0000
  -3  -6   5       6      34                                                          -2   -0.86    0.41  1.0000
   3   6   5       6      25                                                          -3   -0.86    0.41  1.0000
   4   6  -5      35      39                                                          46   -0.38   -0.11  1.0000
   6  -4  -5      46      27                                                          58   -0.38    0.11  1.0000
   4   6   5      31      33                                                          41   -0.38    0.11  1.0000
  -4  -6   5     146      48                                                         167   -0.38    0.11  1.0000
   6  -5  -5      82      28                                                          81    0.00    0.03  1.0000
   5   6  -5      28      37                                                          27    0.00   -0.03  1.0000
   5   6   5      76      36                                                          75    0.00    0.03  1.0000
   6   6  -5     587      82                                                         606    0.15    0.03  1.0000
   6  -6  -5     619      56                                                         639    0.15   -0.03  1.0000
   6   6   5     719      80                                                         740    0.15   -0.03  1.0000
   7   6  -5     878      95                                                         838    0.17    0.30  1.0000
   7   6   5    1017      95                                                         974    0.17   -0.30  1.0000
   7   5  -5     168      49                                                         154    0.10   -0.30  1.0000
   7   5   5     283      57                                                         265    0.10    0.30  1.0000
   7   4  -5     103      46                                                         137   -0.38   -0.49  1.0000
   7   4   5     131      47                                                         170   -0.38    0.49  1.0000
   7   4   5     105      32                                                         140   -0.38    0.49  1.0000
   7   3  -5      85      44                                                         109   -0.95   -0.44  1.0000
   7   3   5     100      31                                                         126   -0.95    0.44  1.0000
  -7  -3   5     100      39                                                         127   -0.95    0.44  1.0000
  -3   7   5     109      25                                                         137   -0.95   -0.44  1.0000
   7   3   5     153      52                                                         187   -0.95    0.44  1.0000
   7   2  -5    1517     108                                                        1719   -1.06   -0.47  1.0000
   7   2   5    1744      96                                                        1961   -1.06    0.47  1.0000
   7   2   5    1738     120                                                        1955   -1.06    0.47  1.0000
  -7  -2   5    1819     111                                                        2040   -1.06    0.47  1.0000
  -2   7   5    1822      83                                                        2043   -1.06   -0.47  1.0000
   7   1  -5    1648      95                                                        1481   -0.75   -0.49  1.0000
  -7  -1   5    1885      96                                                        1706   -0.75    0.49  1.0000
   1  -7   5    1910     112                                                        1729   -0.75   -0.49  1.0000
   7   1   5    1613      84                                                        1448   -0.75    0.49  1.0000
   7   1   5    1425     109                                                        1270   -0.75    0.49  1.0000
  -1   7   5    1751      76                                                        1578   -0.75   -0.49  1.0000
   7   0  -5     656      73                                                         749   -0.67   -0.21  1.0000
   7   0   5     600      79                                                         689   -0.67    0.21  1.0000
   0   7   5     591      59                                                         680   -0.67   -0.21  1.0000
   0  -7   5     651      81                                                         744   -0.67   -0.21  1.0000
  -7   0   5     706      71                                                         803   -0.67    0.21  1.0000
   7  -1  -5     384      57                                                         497   -1.05    0.31  1.0000
   7  -1   5     441      75                                                         562   -1.05   -0.31  1.0000
   1   7   5     334      52                                                         440   -1.05    0.31  1.0000
  -7   1   5     311      53                                                         413   -1.05   -0.31  1.0000
   7  -2  -5     353      44                                                         240   -1.29    0.76  1.0000
   2   7  -5     301      52                                                         197   -1.29   -0.76  1.0000
   2   7   5     357      44                                                         243   -1.29    0.76  1.0000
   7  -2   5     241      49                                                         149   -1.29   -0.76  1.0000
   3   7  -5     323      68                                                         457   -0.85   -1.06  1.0000
   7  -3  -5     291      52                                                         418   -0.85    1.06  1.0000
   7  -3   5     183      59                                                         286   -0.85   -1.06  1.0000
   3   7   5     310      57                                                         441   -0.85    1.06  1.0000
   7  -4  -5      62      26                                                          26    0.00    1.20  1.0000
   4   7  -5       9      33                                                         -12    0.00   -1.20  1.0000
   4   7   5      68      32                                                          30    0.00    1.20  1.0000
   7  -5  -5       9      29                                                          33    0.56    0.96  1.0000
   5   7  -5       3      38                                                          20    0.56   -0.96  1.0000
   5   7   5       0      33                                                          10    0.56    0.96  1.0000
   7  -6  -5     193      37                                                         165    0.53    0.17  1.0000
   6   7  -5     143      49                                                         119    0.53   -0.17  1.0000
   6   7   5     101      42                                                          81    0.53    0.17  1.0000
   7   7  -5     143      59                                                         180    0.09    0.75  1.0000
   7   7   5     104      46                                                         135    0.09   -0.75  1.0000
   8   7   5     216      50                                                         151   -0.33   -0.97  1.0000
   8   6  -5     399      75                                                         444    0.11    0.50  1.0000
   8   6   5     656      85                                                         713    0.11   -0.50  1.0000
   8   5  -5     758      89                                                         763    0.40   -0.21  1.0000
   8   5   5     386      69                                                         389    0.40    0.21  1.0000
   8   4  -5    1170     105                                                        1183    0.09   -0.69  1.0000
   8   4   5     930      68                                                         941    0.09    0.69  1.0000
   8   3  -5     495      70                                                         457   -0.46   -0.84  1.0000
   8   3   5     509      70                                                         471   -0.46    0.84  1.0000
   8   3   5     444      52                                                         408   -0.46    0.84  1.0000
   8   2  -5    1322     100                                                        1201   -0.59   -0.68  1.0000
   8   2   5    1074      99                                                         965   -0.59    0.68  1.0000
   8   2   5    1107      72                                                         996   -0.59    0.68  1.0000
  -2   8   5    1102      57                                                         991   -0.59   -0.68  1.0000
  -8  -2   5    1028      85                                                         921   -0.59    0.68  1.0000
   8   1  -5      76      39                                                          82   -0.33   -0.32  1.0000
   8   1   5      34      28                                                          37   -0.33    0.32  1.0000
   8   1   5      40      42                                                          44   -0.33    0.32  1.0000
  -8  -1   5      52      36                                                          57   -0.33    0.32  1.0000
  -1   8   5      65      29                                                          70   -0.33   -0.32  1.0000
   8   0  -5     434      62                                                         450   -0.25    0.03  1.0000
   8   0   5     525      62                                                         542   -0.25   -0.03  1.0000
   0   8   5     408      50                                                         423   -0.25    0.03  1.0000
  -8   0   5     473      60                                                         489   -0.25   -0.03  1.0000
   8   0   5     357      67                                                         371   -0.25   -0.03  1.0000
   8  -1  -5     271      48                                                         226   -0.59    0.23  1.0000
   8  -1   5     169      50                                                         134   -0.59   -0.23  1.0000
   1   8   5     175      37                                                         139   -0.59    0.23  1.0000
   8  -2  -5     577      68                                                         627   -0.90    0.49  1.0000
   2   8   5     527      62                                                         574   -0.90    0.49  1.0000
   8  -2   5     696      89                                                         751   -0.90   -0.49  1.0000
   8  -3  -5     323      51                                                         332   -0.73    1.06  1.0000
   3   8  -5     357      68                                                         366   -0.73   -1.06  1.0000
   8  -3   5     467      73                                                         479   -0.73   -1.06  1.0000
   3   8   5     288      50                                                         296   -0.73    1.06  1.0000
   8  -4  -5      29      32                                                          37   -0.15    1.64  1.0000
   4   8  -5      81      49                                                         106   -0.15   -1.64  1.0000
   8  -4   5      52      45                                                          69   -0.15   -1.64  1.0000
   4   8   5      71      39                                                          94   -0.15    1.64  1.0000
   5   8  -5     174      56                                                         184    0.43   -1.53  1.0000
   8  -5  -5     153      41                                                         161    0.43    1.53  1.0000
   8  -5   5     168      53                                                         178    0.43   -1.53  1.0000
   5   8   5     172      48                                                         182    0.43    1.53  1.0000
   6   8   5       4      27                                                         -46    0.56    0.55  1.0000
   7   8   5     178      47                                                         152    0.19   -0.49  1.0000
   8   8   5     402      76                                                         483   -0.32   -0.68  1.0000
   9   8   5     448      74                                                         397   -0.48   -0.09  1.0000
   9   7   5     131      57                                                         163   -0.45   -0.26  1.0000
   9   6   5     110      51                                                         111   -0.04   -0.21  1.0000
   9   5  -5    1197     120                                                        1257    0.36    0.03  1.0000
   9   5   5    1211     115                                                        1272    0.36   -0.03  1.0000
   9   4  -5     580      79                                                         531    0.41   -0.28  1.0000
   9   4   5     544      75                                                         496    0.41    0.28  1.0000
   9   3  -5     129      50                                                         137    0.21   -0.54  1.0000
   9   3   5      65      48                                                          70    0.21    0.54  1.0000
   9   3   5      73      34                                                          78    0.21    0.54  1.0000
   9   2  -5      59      39                                                          42    0.01   -0.48  1.0000
   9   2   5      42      45                                                          28    0.01    0.48  1.0000
   9   2   5     174      40                                                         144    0.01    0.48  1.0000
  -2   9   5      99      29                                                          77    0.01   -0.48  1.0000
   9   1  -5     555      73                                                         568   -0.06   -0.11  1.0000
   9   1   5     519      64                                                         532   -0.06    0.11  1.0000
  -1   9   5     517      52                                                         530   -0.06   -0.11  1.0000
   9   1   5     440      75                                                         452   -0.06    0.11  1.0000
   9   0  -5     211      51                                                         222   -0.04    0.19  1.0000
   9   0   5     355      57                                                         369   -0.04   -0.19  1.0000
   9   0   5     237      62                                                         249   -0.04   -0.19  1.0000
   0   9   5     221      41                                                         232   -0.04    0.19  1.0000
  -9   0   5     216      50                                                         227   -0.04   -0.19  1.0000
   9  -1  -5     250      52                                                         240   -0.06    0.19  1.0000
   1   9   5     246      44                                                         236   -0.06    0.19  1.0000
   9  -1   5     256      59                                                         246   -0.06   -0.19  1.0000
   9  -2  -5       1      32                                                         -27   -0.22    0.21  1.0000
   2   9   5       1      28                                                          -8   -0.22    0.21  1.0000
   9  -2   5       1      39                                                         -24   -0.22   -0.21  1.0000
   9  -3  -5       9      31                                                           1   -0.45    0.61  1.0000
   3   9  -5      29      38                                                          12   -0.45   -0.61  1.0000
   9  -3   5       4      35                                                         -30   -0.45   -0.61  1.0000
   3   9   5      38      33                                                          18   -0.45    0.61  1.0000
   9  -4  -5      45      42                                                          97   -0.45    1.14  1.0000
   9  -4   5       0      44                                                          11   -0.45   -1.14  1.0000
   4   9   5      42      40                                                          92   -0.45    1.14  1.0000
   9  -5  -5      72      35                                                          30   -0.06    1.20  1.0000
   9  -5   5      83      45                                                          37   -0.06   -1.20  1.0000
   5   9   5       9      32                                                          -5   -0.06    1.20  1.0000
   6   9   5     189      50                                                         175    0.36    0.73  1.0000
   9  -6   5     188      58                                                         174    0.36   -0.73  1.0000
   7   9   5       1      35                                                         -43    0.38    0.27  1.0000
   8   9   5     191      57                                                         206    0.07    0.20  1.0000
   9   9   5     423      79                                                         438   -0.15    0.29  1.0000
  10   8   5     131      59                                                         161   -0.28    0.42  1.0000
  10   7   5      65      51                                                          45   -0.27    0.64  1.0000
  10   6   5       1      39                                                         -40   -0.13    0.46  1.0000
  10   5   5     160      55                                                         151    0.15   -0.02  1.0000
  10   4   5      99      50                                                          76    0.53   -0.37  1.0000
  10   3  -5     249      63                                                         283    0.75    0.36  1.0000
  10   3   5     429      77                                                         475    0.75   -0.36  1.0000
  10   2  -5     496      73                                                         448    0.56    0.17  1.0000
  10   2   5     447      76                                                         401    0.56   -0.17  1.0000
  10   2   5     624      68                                                         570    0.56   -0.17  1.0000
  10   1  -5     129      48                                                         130    0.13    0.05  1.0000
  10   1   5      81      39                                                          81    0.13   -0.05  1.0000
  10   1   5     135      53                                                         136    0.13   -0.05  1.0000
  -1  10   5      21      28                                                          21    0.13    0.05  1.0000
  10   0  -5      14      36                                                          13   -0.06    0.05  1.0000
  10   0   5      25      37                                                          23   -0.06   -0.05  1.0000
  10   0   5      39      46                                                          37   -0.06   -0.05  1.0000
   0  10   5      39      32                                                          37   -0.06    0.05  1.0000
  10  -1  -5      45      40                                                          40    0.12    0.09  1.0000
   1  10   5      42      33                                                          38    0.12    0.09  1.0000
  10  -1   5       0      43                                                          -5    0.12   -0.09  1.0000
  10  -1   5       0      35                                                         -28    0.12   -0.09  1.0000
  10  -2  -5      70      42                                                          79    0.18    0.15  1.0000
   2  10   5     102      39                                                         113    0.18    0.15  1.0000
  10  -2   5      69      48                                                          78    0.18   -0.15  1.0000
  10  -3  -5     194      52                                                         202   -0.12    0.26  1.0000
  10  -3   5     204      63                                                         212   -0.12   -0.26  1.0000
   3  10   5     175      45                                                         183   -0.12    0.26  1.0000
  10  -4  -5       2      36                                                         -18   -0.40    0.36  1.0000
   4  10   5      36      37                                                          43   -0.40    0.36  1.0000
  10  -4   5      43      47                                                          51   -0.40   -0.36  1.0000
   5  10   5     112      44                                                         100   -0.24    0.43  1.0000
  10  -5   5      22      46                                                          16   -0.24   -0.43  1.0000
  10  -6   5     264      68                                                         278    0.17   -0.55  1.0000
   6  10   5     205      56                                                         217    0.17    0.55  1.0000
   7  10   5       5      39                                                          -8    0.39    0.77  1.0000
  10  -7   5      13      50                                                          22    0.39   -0.77  1.0000
   8  10   5      11      39                                                           1    0.31    0.87  1.0000
  11   7   5      10      49                                                          21   -0.08    0.82  1.0000
  11   6   5       5      41                                                         -37   -0.06    0.87  1.0000
  11   5   5       1      43                                                         -55    0.11    0.28  1.0000
  11   4   5     147      59                                                         124    0.56   -0.58  1.0000
  11   3   5     159      51                                                         103    0.94   -1.05  1.0000
  11   2   5     894      95                                                        1037    0.80   -0.86  1.0000
  11   2   5     948     116                                                        1096    0.80   -0.86  1.0000
  11   1  -5     117      52                                                         111    0.26    0.32  1.0000
  11   1   5     111      48                                                         105    0.26   -0.32  1.0000
  11   1   5     151      58                                                         144    0.26   -0.32  1.0000
  11   0  -5      38      45                                                          40   -0.07   -0.03  1.0000
  11   0   5     136      55                                                         139   -0.07    0.03  1.0000
  11   0   5      14      40                                                          15   -0.07    0.03  1.0000
   0  11   5       0      27                                                         -43   -0.07   -0.03  1.0000
  11  -1  -5     154      54                                                         154    0.01   -0.00  1.0000
  11  -1   5     147      52                                                         147    0.01    0.00  1.0000
  11  -1   5     163      57                                                         163    0.01    0.00  1.0000
   1  11   5     151      42                                                         151    0.01   -0.00  1.0000
  11  -2  -5      51      45                                                          43    0.17    0.15  1.0000
  11  -2   5     138      54                                                         125    0.17   -0.15  1.0000
   2  11   5     141      42                                                         127    0.17    0.15  1.0000
  11  -2   5     147      58                                                         133    0.17   -0.15  1.0000
  11  -3  -5      99      47                                                          91    0.12    0.14  1.0000
  11  -3   5      24      48                                                          20    0.12   -0.14  1.0000
   3  11   5      71      37                                                          65    0.12    0.14  1.0000
  11  -4  -5       0      39                                                         -52   -0.00   -0.00  1.0000
  11  -4   5       8      48                                                           8   -0.00    0.00  1.0000
   4  11   5       0      37                                                          -6   -0.00   -0.00  1.0000
  11  -5   5      44      52                                                          44    0.01   -0.00  1.0000
   5  11   5       0      36                                                         -37    0.01    0.00  1.0000
   6  11   5     136      51                                                         141    0.10    0.29  1.0000
  11  -6   5     113      59                                                         118    0.10   -0.29  1.0000
   7  11   5      46      46                                                          36    0.18    0.66  1.0000
  11  -7   5       3      47                                                         -18    0.18   -0.66  1.0000
  12   5   5     615      97                                                         666    0.25    0.50  1.0000
  12   4   5       2      45                                                         -36    0.58   -0.19  1.0000
  12   3   5     121      66                                                         189    0.80   -0.86  1.0000
  12   2   5      38      51                                                          61    0.67   -0.98  1.0000
  12   1   5     174      69                                                         220    0.32   -0.60  1.0000
  12   1   5      83      53                                                         116    0.32   -0.60  1.0000
  12   0   5     103      53                                                          96    0.05   -0.21  1.0000
  12   0   5     222      68                                                         212    0.05   -0.21  1.0000
  12  -1   5       8      51                                                           9   -0.02   -0.07  1.0000
   1  12   5       0      35                                                         -15   -0.02    0.07  1.0000
   2  12   5      81      42                                                          84    0.06    0.08  1.0000
  12  -2   5     107      59                                                         111    0.06   -0.08  1.0000
   3  12   5      60      42                                                          69    0.22    0.05  1.0000
  12  -3   5      61      59                                                          70    0.22   -0.05  1.0000
  12  -4   5       1      41                                                         -29    0.34   -0.01  1.0000
   4  12   5       1      37                                                         -32    0.34    0.01  1.0000
   5  12   5      57      43                                                          49    0.28    0.07  1.0000
  12  -5   5      35      51                                                          29    0.28   -0.07  1.0000
  13   2   5      74      55                                                          92    0.34   -0.45  1.0000
  13   1   5     157      63                                                         121    0.29   -0.53  1.0000
  13   0   5      72      61                                                          84    0.24   -0.43  1.0000
  13  -1   5      24      53                                                          18    0.13   -0.21  1.0000
  13  -2   5       0      44                                                         -28    0.08    0.00  1.0000
   2  13   5      15      39                                                          14    0.08   -0.00  1.0000
   0   0   6     122      26                                                         154   -0.53   -0.00  1.0000
  -1   0   6      54      20                                                          36   -0.52   -0.14  1.0000
   0   1   6      55      30                                                          37   -0.52    0.14  1.0000
   1   0   6       2      28                                                          -3   -0.52   -0.14  1.0000
   0   1   6      56      16                                                          38   -0.52    0.14  1.0000
   0  -1   6      29      23                                                          16   -0.52    0.14  1.0000
   1   0   6      58      20                                                          39   -0.52   -0.14  1.0000
  -1   1   6     502      35                                                         531   -0.51    0.02  1.0000
  -1  -1   6     494      49                                                         523   -0.51   -0.02  1.0000
   1   1   6     519      34                                                         548   -0.51   -0.02  1.0000
   1   1   6     437      59                                                         464   -0.51   -0.02  1.0000
  -1   1   6     423      55                                                         449   -0.51    0.02  1.0000
   1  -1   6     539      51                                                         569   -0.51    0.02  1.0000
  -2  -1   6      72      27                                                          54   -0.50   -0.09  1.0000
   1  -2   6      22      26                                                          12   -0.50    0.09  1.0000
   2   1   6      48      31                                                          33   -0.50   -0.09  1.0000
  -1   2   6     129      34                                                         104   -0.50    0.09  1.0000
   2   1   6      70      19                                                          52   -0.50   -0.09  1.0000
   2   0   6      63      34                                                          51   -0.48   -0.31  1.0000
   2   0   6      51      22                                                          40   -0.48   -0.31  1.0000
   0   2   6      83      31                                                          69   -0.48    0.31  1.0000
   0  -2   6      39      27                                                          29   -0.48    0.31  1.0000
  -2   0   6      91      24                                                          76   -0.48   -0.31  1.0000
   2  -1   6      37      25                                                          41   -0.50   -0.34  1.0000
  -2   1   6      20      26                                                          22   -0.50   -0.34  1.0000
   1   2   6      40      28                                                          44   -0.50    0.34  1.0000
  -1  -2   6      14      26                                                          15   -0.50    0.34  1.0000
  -2   1   6      12      18                                                          13   -0.50   -0.34  1.0000
   2   2   6      79      34                                                          58   -0.52    0.32  1.0000
  -2  -2   6      33      27                                                          20   -0.52    0.32  1.0000
  -2   2   6      65      30                                                          46   -0.52   -0.32  1.0000
   2  -2   6      50      28                                                          34   -0.52   -0.32  1.0000
   3   2  -6     508      61                                                         561   -0.34   -0.30  1.0000
   3   2   6     437      64                                                         486   -0.34    0.30  1.0000
   2  -3   6     471      59                                                         522   -0.34   -0.30  1.0000
  -3  -2   6     352      52                                                         397   -0.34    0.30  1.0000
  -2   3   6     440      53                                                         490   -0.34   -0.30  1.0000
   3   1  -6      23      29                                                          31   -0.33   -0.09  1.0000
   3   1   6      15      20                                                          22   -0.33    0.09  1.0000
   1  -3   6       1      26                                                         -19   -0.33   -0.09  1.0000
   3   1   6      27      33                                                          36   -0.33    0.09  1.0000
  -3  -1   6       1      23                                                         -21   -0.33    0.09  1.0000
  -1   3   6       6      26                                                          10   -0.33   -0.09  1.0000
   3   0  -6      92      31                                                         106   -0.34    0.19  1.0000
   3   0   6      41      25                                                          51   -0.34   -0.19  1.0000
   0   3   6      79      32                                                          92   -0.34    0.19  1.0000
  -3   0   6      43      25                                                          53   -0.34   -0.19  1.0000
   0  -3   6      30      31                                                          38   -0.34    0.19  1.0000
   3   0   6      21      35                                                          28   -0.34   -0.19  1.0000
   3  -1  -6     553      49                                                         563   -0.47    0.48  1.0000
  -1  -3   6     515      58                                                         525   -0.47    0.48  1.0000
  -3   1   6     589      55                                                         599   -0.47   -0.48  1.0000
   3  -1   6     475      52                                                         484   -0.47   -0.48  1.0000
   3  -1   6     470      66                                                         479   -0.47   -0.48  1.0000
  -3   1   6     512      45                                                         521   -0.47   -0.48  1.0000
   1   3   6     487      59                                                         496   -0.47    0.48  1.0000
   3  -2  -6     593      42                                                         567   -0.52    0.59  1.0000
   2   3   6     476      59                                                         452   -0.52    0.59  1.0000
  -3   2   6     519      52                                                         495   -0.52   -0.59  1.0000
   3  -2   6     606      59                                                         580   -0.52   -0.59  1.0000
  -2  -3   6     620      62                                                         593   -0.52    0.59  1.0000
   3   3  -6     387      60                                                         444   -0.29   -0.48  1.0000
   3   3   6     425      64                                                         485   -0.29    0.48  1.0000
  -3   3   6     381      47                                                         438   -0.29   -0.48  1.0000
  -3  -3   6     519      61                                                         585   -0.29    0.48  1.0000
   3  -3   6     422      61                                                         482   -0.29   -0.48  1.0000
   4   3  -6    1289      88                                                        1274    0.06   -0.30  1.0000
   4   3   6    1353      94                                                        1338    0.06    0.30  1.0000
  -3   4   6    1219      66                                                        1205    0.06   -0.30  1.0000
  -4  -3   6    1339      85                                                        1324    0.06    0.30  1.0000
   3  -4   6    1220      87                                                        1206    0.06   -0.30  1.0000
   4   2  -6    1306      88                                                        1319    0.03   -0.18  1.0000
  -2   4   6    1416      76                                                        1430    0.03   -0.18  1.0000
  -4  -2   6    1502      87                                                        1516    0.03    0.18  1.0000
   2  -4   6    1464      95                                                        1478    0.03   -0.18  1.0000
   4   2   6    1387      95                                                        1401    0.03    0.18  1.0000
   4   1  -6     665      66                                                         675    0.08   -0.16  1.0000
  -4  -1   6     794      66                                                         804    0.08    0.16  1.0000
   4   1   6     682      49                                                         692    0.08    0.16  1.0000
  -1   4   6     698      63                                                         708    0.08   -0.16  1.0000
   4   1   6     670      77                                                         680    0.08    0.16  1.0000
   1  -4   6     747      75                                                         757    0.08   -0.16  1.0000
   4   0  -6    1695      88                                                        1689   -0.02   -0.05  1.0000
   0  -4   6    1564      96                                                        1558   -0.02   -0.05  1.0000
   4   0   6    1807     112                                                        1800   -0.02    0.05  1.0000
   0   4   6    1687      90                                                        1681   -0.02   -0.05  1.0000
  -4   0   6    1689      84                                                        1683   -0.02    0.05  1.0000
   4   0   6    1670      82                                                        1664   -0.02    0.05  1.0000
   4  -1  -6    2140      94                                                        2057   -0.32    0.16  1.0000
   1   4   6    2055     102                                                        1973   -0.32    0.16  1.0000
   4  -1   6    2023      96                                                        1942   -0.32   -0.16  1.0000
   4  -1   6    2040     117                                                        1959   -0.32   -0.16  1.0000
  -4   1   6    1959      86                                                        1879   -0.32   -0.16  1.0000
  -1  -4   6    2072     108                                                        1990   -0.32    0.16  1.0000
   4  -2  -6    1071      65                                                        1138   -0.46    0.35  1.0000
   2   4   6    1141      83                                                        1211   -0.46    0.35  1.0000
  -4   2   6    1053      65                                                        1120   -0.46   -0.35  1.0000
   4  -2   6    1066     100                                                        1133   -0.46   -0.35  1.0000
  -2  -4   6    1098      84                                                        1166   -0.46    0.35  1.0000
   4  -2   6    1126      78                                                        1195   -0.46   -0.35  1.0000
   3   4  -6     413      59                                                         386   -0.22   -0.48  1.0000
  -4   3   6     350      39                                                         325   -0.22   -0.48  1.0000
   4  -3   6     361      51                                                         336   -0.22   -0.48  1.0000
   3   4   6     276      51                                                         254   -0.22    0.48  1.0000
  -3  -4   6     322      53                                                         298   -0.22    0.48  1.0000
   4   4  -6    1027      95                                                        1053    0.07   -0.54  1.0000
   4   4   6    1008      93                                                        1033    0.07    0.54  1.0000
  -4  -4   6    1156      86                                                        1183    0.07    0.54  1.0000
   4  -4   6    1132      95                                                        1159    0.07   -0.54  1.0000
   5   4  -6       1      35                                                          -5    0.01   -0.41  1.0000
   4  -5   6       1      34                                                         -36    0.01   -0.41  1.0000
  -5  -4   6       1      33                                                         -12    0.01    0.41  1.0000
   5   4   6      33      36                                                          40    0.01    0.41  1.0000
   5   3  -6     337      56                                                         314    0.18   -0.17  1.0000
   5   3   6     236      53                                                         217    0.18    0.17  1.0000
  -3   5   6     347      38                                                         324    0.18   -0.17  1.0000
   3  -5   6     221      50                                                         203    0.18   -0.17  1.0000
  -5  -3   6     318      51                                                         296    0.18    0.17  1.0000
   5   2  -6     373      57                                                         386    0.30    0.05  1.0000
  -2   5   6     317      42                                                         329    0.30    0.05  1.0000
   5   2   6     323      61                                                         335    0.30   -0.05  1.0000
   2  -5   6     303      55                                                         315    0.30    0.05  1.0000
  -5  -2   6     368      52                                                         381    0.30   -0.05  1.0000
   5   1  -6     199      42                                                         169    0.40    0.14  1.0000
   5   1   6     214      34                                                         183    0.40   -0.14  1.0000
   5   1   6     175      46                                                         147    0.40   -0.14  1.0000
   1  -5   6     191      45                                                         162    0.40    0.14  1.0000
  -1   5   6     135      31                                                         111    0.40    0.14  1.0000
  -5  -1   6     103      34                                                          82    0.40   -0.14  1.0000
   5   0  -6     124      37                                                         141    0.31    0.03  1.0000
   5   0   6     174      36                                                         194    0.31   -0.03  1.0000
   0  -5   6      89      42                                                         104    0.31    0.03  1.0000
  -5   0   6     158      38                                                         177    0.31   -0.03  1.0000
   5   0   6     116      44                                                         133    0.31   -0.03  1.0000
   0   5   6     181      39                                                         202    0.31    0.03  1.0000
   5  -1  -6     731      63                                                         707    0.02   -0.22  1.0000
   1   5   6     676      65                                                         653    0.02   -0.22  1.0000
  -1  -5   6     600      70                                                         579    0.02   -0.22  1.0000
  -5   1   6     622      55                                                         600    0.02    0.22  1.0000
   5  -1   6     527      74                                                         507    0.02    0.22  1.0000
   5  -1   6     610      61                                                         588    0.02    0.22  1.0000
   5  -2  -6    1816      91                                                        1818   -0.16   -0.25  1.0000
   5  -2   6    1827     121                                                        1829   -0.16    0.25  1.0000
  -2  -5   6    1982     115                                                        1984   -0.16   -0.25  1.0000
  -5   2   6    1971      82                                                        1973   -0.16    0.25  1.0000
   5  -2   6    1883     103                                                        1885   -0.16    0.25  1.0000
   2   5   6    1789     100                                                        1791   -0.16   -0.25  1.0000
   3   5  -6     532      73                                                         551   -0.14   -0.10  1.0000
   5  -3   6     476      64                                                         494   -0.14   -0.10  1.0000
  -3  -5   6     540      70                                                         559   -0.14    0.10  1.0000
   3   5   6     581      68                                                         600   -0.14    0.10  1.0000
   4   5  -6      78      46                                                         101   -0.18   -0.45  1.0000
   4   5   6     131      44                                                         160   -0.18    0.45  1.0000
   5  -4   6     145      48                                                         175   -0.18   -0.45  1.0000
   5   5  -6     618      77                                                         572   -0.45   -0.39  1.0000
   5   5   6     462      62                                                         422   -0.45    0.39  1.0000
   6   5  -6      18      43                                                          35   -0.79   -0.01  1.0000
   6   5   6       4      32                                                         -11   -0.79    0.01  1.0000
   6   4  -6      73      42                                                          84   -0.34   -0.04  1.0000
   6   4   6     171      52                                                         188   -0.34    0.04  1.0000
   6   3  -6     202      50                                                         201    0.05    0.03  1.0000
   6   3   6     153      50                                                         152    0.05   -0.03  1.0000
  -6  -3   6     155      45                                                         154    0.05   -0.03  1.0000
   6   2  -6      35      38                                                          43    0.26    0.32  1.0000
   6   2   6      61      41                                                          72    0.26   -0.32  1.0000
  -2   6   6      49      27                                                          59    0.26    0.32  1.0000
  -6  -2   6      74      36                                                          86    0.26   -0.32  1.0000
   6   1  -6     300      50                                                         252    0.30    0.58  1.0000
   6   1   6     324      57                                                         274    0.30   -0.58  1.0000
  -1   6   6     329      42                                                         279    0.30    0.58  1.0000
  -6  -1   6     387      51                                                         332    0.30   -0.58  1.0000
   6   0  -6     583      64                                                         566    0.26    0.38  1.0000
   6   0   6     563      79                                                         547    0.26   -0.38  1.0000
   0   6   6     616      58                                                         599    0.26    0.38  1.0000
  -6   0   6     517      56                                                         501    0.26   -0.38  1.0000
   6  -1  -6     678      69                                                         724    0.27   -0.21  1.0000
   1   6   6     655      67                                                         700    0.27   -0.21  1.0000
   6  -1   6     837      98                                                         888    0.27    0.21  1.0000
  -6   1   6     779      68                                                         829    0.27    0.21  1.0000
   6  -2  -6     950      71                                                         852    0.28   -0.58  1.0000
   6  -2   6     701      81                                                         617    0.28    0.58  1.0000
   2   6   6     741      69                                                         655    0.28   -0.58  1.0000
   6  -2   6     982      81                                                         882    0.28    0.58  1.0000
   3   6  -6      99      49                                                         115    0.04    0.46  1.0000
   6  -3   6     111      45                                                         128    0.04    0.46  1.0000
   6  -3   6     111      47                                                         127    0.04    0.46  1.0000
   3   6   6      40      34                                                          50    0.04   -0.46  1.0000
   4   6  -6      86      48                                                         113   -0.49    0.24  1.0000
   6  -4   6      22      43                                                          37   -0.49    0.24  1.0000
   4   6   6     109      44                                                         140   -0.49   -0.24  1.0000
   5   6  -6     119      50                                                         106   -0.97    0.19  1.0000
   5   6   6     156      46                                                         142   -0.97   -0.19  1.0000
   6   6  -6      52      41                                                          29   -1.06    0.12  1.0000
   6   6   6     114      43                                                          81   -1.06   -0.12  1.0000
   7   6   6      11      39                                                           3   -0.76    0.15  1.0000
   7   5  -6      60      45                                                          33   -0.92    0.25  1.0000
   7   5   6     113      42                                                          75   -0.92   -0.25  1.0000
   7   4  -6     485      77                                                         522   -0.62    0.39  1.0000
   7   4   6     447      73                                                         482   -0.62   -0.39  1.0000
   7   3  -6     144      49                                                         154   -0.15    0.40  1.0000
   7   3   6     146      54                                                         157   -0.15   -0.40  1.0000
   7   2  -6     821      82                                                         787    0.03    0.56  1.0000
  -7  -2   6     554      67                                                         526    0.03   -0.56  1.0000
   7   2   6     588      80                                                         559    0.03   -0.56  1.0000
   7   1  -6      19      37                                                          34   -0.14    0.70  1.0000
  -1   7   6      13      27                                                          26   -0.14    0.70  1.0000
   7   1   6       3      40                                                           9   -0.14   -0.70  1.0000
  -7  -1   6      24      34                                                          41   -0.14   -0.70  1.0000
   7   0  -6     254      51                                                         244   -0.20    0.49  1.0000
  -7   0   6     313      50                                                         301   -0.20   -0.49  1.0000
   0   7   6     356      49                                                         344   -0.20    0.49  1.0000
   7   0   6     360      68                                                         348   -0.20   -0.49  1.0000
   7  -1  -6     924      82                                                         909    0.11    0.05  1.0000
   7  -1   6    1041     105                                                        1025    0.11   -0.05  1.0000
   1   7   6     845      74                                                         831    0.11    0.05  1.0000
   7  -2   6     650      93                                                         720    0.44    0.34  1.0000
   2   7   6     712      74                                                         785    0.44   -0.34  1.0000
   3   7  -6      25      41                                                          12    0.22    0.67  1.0000
   7  -3   6      68      46                                                          45    0.22    0.67  1.0000
   3   7   6      42      35                                                          24    0.22   -0.67  1.0000
   4   7  -6      65      48                                                         104   -0.47    1.01  1.0000
   4   7   6      33      38                                                          61   -0.47   -1.01  1.0000
   7  -4   6      24      46                                                          48   -0.47    1.01  1.0000
   5   7  -6     127      63                                                         223   -1.01    1.04  1.0000
   5   7   6      99      49                                                         186   -1.01   -1.04  1.0000
   6   7   6     169      48                                                         130   -0.89   -0.44  1.0000
   7   7   6     426      75                                                         466   -0.31    0.38  1.0000
   8   7   6      12      45                                                          22    0.15    0.70  1.0000
   8   6   6     254      65                                                         261   -0.38    0.36  1.0000
   8   5   6      42      40                                                          20   -0.78   -0.16  1.0000
   8   4  -6       5      39                                                         -43   -0.70    0.54  1.0000
   8   4   6      34      46                                                          48   -0.70   -0.54  1.0000
   8   3  -6     182      55                                                         185   -0.34    0.76  1.0000
   8   3   6     195      59                                                         198   -0.34   -0.76  1.0000
   8   2  -6     143      53                                                         176   -0.24    0.79  1.0000
   8   2   6      87      52                                                         112   -0.24   -0.79  1.0000
   8   1  -6      64      42                                                          51   -0.50    0.53  1.0000
   8   1   6      40      45                                                          29   -0.50   -0.53  1.0000
  -1   8   6      15      26                                                           8   -0.50    0.53  1.0000
   8   0  -6      45      40                                                          50   -0.63    0.19  1.0000
   8   0   6      23      44                                                          25   -0.63   -0.19  1.0000
   0   8   6      64      33                                                          70   -0.63    0.19  1.0000
   8  -1  -6     102      45                                                         119   -0.32    0.08  1.0000
   8  -1   6     120      54                                                         138   -0.32   -0.08  1.0000
   1   8   6     186      44                                                         209   -0.32    0.08  1.0000
   8  -2   6      38      47                                                          43    0.14   -0.05  1.0000
   2   8   6     130      41                                                         139    0.14    0.05  1.0000
   3   8   6      80      41                                                          98    0.22   -0.39  1.0000
   8  -3   6      54      50                                                          69    0.22    0.39  1.0000
   8  -4   6      13      44                                                           8   -0.15    1.13  1.0000
   4   8   6       8      31                                                         -30   -0.15   -1.13  1.0000
   8  -5   6      21      40                                                          18   -0.49    1.38  1.0000
   5   8   6      40      40                                                          44   -0.49   -1.38  1.0000
   6   8   6      37      41                                                          57   -0.41   -0.77  1.0000
   7   8   6     711      89                                                         719    0.01    0.11  1.0000
   8   8   6      92      48                                                          70    0.32    0.49  1.0000
   9   7   6       1      46                                                         -10    0.19    0.34  1.0000
   9   6   6      13      47                                                          11   -0.17    0.25  1.0000
   9   5   6     100      57                                                         124   -0.55    0.10  1.0000
   9   4   6     178      58                                                         143   -0.69   -0.26  1.0000
   9   3  -6      79      51                                                         100   -0.63    0.75  1.0000
   9   3   6      77      51                                                          98   -0.63   -0.75  1.0000
   9   2  -6     334      71                                                         392   -0.56    0.88  1.0000
   9   2   6     351      78                                                         411   -0.56   -0.88  1.0000
   9   1  -6     122      46                                                          91   -0.59    0.43  1.0000
   9   1   6      81      46                                                          56   -0.59   -0.43  1.0000
   9   0  -6     147      52                                                         166   -0.61   -0.10  1.0000
   0   9   6     130      40                                                         148   -0.61   -0.10  1.0000
   9   0   6     150      62                                                         169   -0.61    0.10  1.0000
   9  -1  -6     150      48                                                         148   -0.48   -0.17  1.0000
   9  -1   6     168      59                                                         166   -0.48    0.17  1.0000
   1   9   6     181      44                                                         179   -0.48   -0.17  1.0000
   9  -2   6       0      41                                                         -10   -0.20   -0.02  1.0000
   2   9   6       0      33                                                         -24   -0.20    0.02  1.0000
   3   9   6     178      49                                                         169    0.05   -0.12  1.0000
   9  -3   6     191      59                                                         182    0.05    0.12  1.0000
   4   9   6      60      43                                                          73    0.11   -0.59  1.0000
   9  -4   6       2      47                                                         -18    0.11    0.59  1.0000
   5   9   6       5      38                                                          -8   -0.00   -0.87  1.0000
   9  -5   6      65      54                                                         100   -0.00    0.87  1.0000
   6   9   6      15      37                                                          15   -0.07   -0.71  1.0000
   9  -6   6       3      42                                                         -33   -0.07    0.71  1.0000
   9  -7   6     875     110                                                         917    0.01    0.36  1.0000
   7   9   6     954     103                                                         998    0.01   -0.36  1.0000
  10   6   6      28      52                                                          25   -0.13   -0.03  1.0000
  10   5   6      23      47                                                          32   -0.37    0.24  1.0000
  10   4   6     280      75                                                         344   -0.69    0.19  1.0000
  10   3   6      99      59                                                         112   -0.93   -0.26  1.0000
  10   2   6     205      61                                                         170   -0.87   -0.61  1.0000
  10   1  -6      45      48                                                          27   -0.53    0.45  1.0000
  10   1   6      24      47                                                          11   -0.53   -0.45  1.0000
  10   0  -6      87      51                                                          97   -0.23   -0.01  1.0000
  10   0   6     113      60                                                         124   -0.23    0.01  1.0000
   1  10   6      55      36                                                          43   -0.14   -0.30  1.0000
  10  -1   6       5      47                                                           2   -0.14    0.30  1.0000
   2  10   6       4      35                                                           5   -0.13   -0.29  1.0000
  10  -2   6      68      52                                                          75   -0.13    0.29  1.0000
   3  10   6      95      43                                                         104   -0.03   -0.18  1.0000
  10  -3   6     203      70                                                         216   -0.03    0.18  1.0000
   4  10   6      39      41                                                          38    0.07   -0.11  1.0000
  10  -4   6      67      54                                                          66    0.07    0.11  1.0000
  10  -5   6      70      57                                                          69    0.03    0.15  1.0000
   5  10   6     123      49                                                         122    0.03   -0.15  1.0000
  10  -6   6     277      76                                                         304   -0.09    0.33  1.0000
   6  10   6     173      58                                                         195   -0.09   -0.33  1.0000
  11   4   6     314      70                                                         253   -0.61    0.36  1.0000
  11   3   6     542      97                                                         669   -0.98    0.26  1.0000
  11   2   6     267      66                                                         205   -0.96   -0.06  1.0000
  11   1   6     103      59                                                         116   -0.47   -0.27  1.0000
  11   0   6      87      53                                                          95    0.09   -0.18  1.0000
  11  -1   6       6      49                                                           3    0.32    0.12  1.0000
   2  11   6      49      42                                                          54    0.24   -0.36  1.0000
  11  -2   6     154      65                                                         164    0.24    0.36  1.0000
   3  11   6       1      41                                                          -9    0.07   -0.30  1.0000
  11  -3   6       1      45                                                          -2    0.07    0.30  1.0000
   4  11   6       0      34                                                         -48   -0.08   -0.05  1.0000
  11  -4   6      14      51                                                          16   -0.08    0.05  1.0000
   0   0   7     154      38                                                         132    0.37   -0.00  1.0000
   1   0   7     306      52                                                         277    0.36    0.18  1.0000
  -1   0   7     329      52                                                         299    0.36    0.18  1.0000
   0   1   7     288      51                                                         260    0.36   -0.18  1.0000
   1   1   7     598      74                                                         646    0.32    0.24  1.0000
  -1   1   7     559      68                                                         606    0.32   -0.24  1.0000
   1  -1   7     564      75                                                         611    0.32   -0.24  1.0000
  -1   2   7     448      58                                                         418    0.18   -0.45  1.0000
   2   1   7     475      65                                                         444    0.18    0.45  1.0000
   0   2   7    1306      86                                                        1290    0.27   -0.38  1.0000
   2   0   7    1045      96                                                        1031    0.27    0.38  1.0000
   2  -1   7    1200     104                                                        1205    0.25    0.06  1.0000
  -2   1   7    1210      81                                                        1215    0.25    0.06  1.0000
   1   2   7    1091      94                                                        1096    0.25   -0.06  1.0000
  -2   2   7     807      73                                                         827    0.09   -0.12  1.0000
   2   2   7     735      81                                                         754    0.09    0.12  1.0000
  -2   3   7     170      41                                                         170   -0.18   -0.10  1.0000
   3   2   7     144      48                                                         144   -0.18    0.10  1.0000
   3   1   7      29      36                                                          23   -0.12    0.23  1.0000
  -1   3   7       0      28                                                         -24   -0.12   -0.23  1.0000
   3   0   7      80      45                                                          91    0.02    0.24  1.0000
   0   3   7     153      44                                                         168    0.02   -0.24  1.0000
   3  -1   7     427      67                                                         402    0.14    0.21  1.0000
   1   3   7     418      59                                                         393    0.14   -0.21  1.0000
  -3   1   7     482      57                                                         455    0.14    0.21  1.0000
   2   3   7     243      53                                                         259    0.11   -0.18  1.0000
   3  -2   7     228      58                                                         243    0.11    0.18  1.0000
  -3   2   7     294      48                                                         311    0.11    0.18  1.0000
   3   3   7      58      41                                                          64   -0.10   -0.10  1.0000
   4   3  -7     214      53                                                         193   -0.32   -0.02  1.0000
   4   3   7     102      46                                                          87   -0.32    0.02  1.0000
  -2   4   7      46      33                                                          60   -0.36   -0.11  1.0000
   4   2   7      66      45                                                          83   -0.36    0.11  1.0000
  -1   4   7      14      31                                                          19   -0.42   -0.05  1.0000
   4   1   7       1      34                                                         -27   -0.42    0.05  1.0000
   4   0   7      98      49                                                         113   -0.34   -0.01  1.0000
   0   4   7      52      35                                                          63   -0.34    0.01  1.0000
   1   4   7     182      47                                                         177   -0.07   -0.02  1.0000
   4  -1   7     210      55                                                         205   -0.07    0.02  1.0000
  -4   1   7     175      39                                                         170   -0.07    0.02  1.0000
   2   4   7       0      32                                                         -12    0.14   -0.11  1.0000
   4  -2   7      49      40                                                          45    0.14    0.11  1.0000
   3   4   7      41      38                                                          46    0.05   -0.19  1.0000
   4   4  -7     136      51                                                         152   -0.19    0.21  1.0000
   4   4   7      48      41                                                          58   -0.19   -0.21  1.0000
   5   4  -7     223      57                                                         232   -0.32    0.22  1.0000
   5   4   7     150      51                                                         157   -0.32   -0.22  1.0000
   5   3   7     171      54                                                         155   -0.36    0.05  1.0000
   5   2   7      84      45                                                          72   -0.32    0.26  1.0000
  -1   5   7     118      39                                                         145   -0.44   -0.27  1.0000
   5   1   7     166      54                                                         198   -0.44    0.27  1.0000
   5   0   7      35      43                                                          23   -0.50    0.09  1.0000
   0   5   7     123      38                                                          99   -0.50   -0.09  1.0000
   1   5   7      34      31                                                          29   -0.31    0.12  1.0000
   5  -1   7      16      40                                                          13   -0.31   -0.12  1.0000
   2   5   7      64      37                                                          61   -0.04    0.11  1.0000
   5  -2   7      96      49                                                          92   -0.04   -0.11  1.0000
   3   5   7     277      53                                                         265    0.07   -0.13  1.0000
   5  -3   7     201      58                                                         191    0.07    0.13  1.0000
   4   5  -7      50      48                                                          48    0.08    0.35  1.0000
   4   5   7      75      41                                                          72    0.08   -0.35  1.0000
   5   5  -7     127      54                                                         111    0.08    0.34  1.0000
   5   5   7      69      43                                                          57    0.08   -0.34  1.0000
   6   5  -7     114      54                                                         105   -0.01    0.20  1.0000
   6   5   7      15      45                                                          12   -0.01   -0.20  1.0000
   6   4  -7      70      50                                                          89   -0.37    0.22  1.0000
   6   4   7      80      50                                                         101   -0.37   -0.22  1.0000
   6   3   7       1      32                                                         -52   -0.36   -0.06  1.0000
   6   2   7       1      42                                                          -5   -0.20    0.27  1.0000
   6   1   7      46      45                                                          48   -0.15    0.51  1.0000
   0   6   7     177      43                                                         195   -0.22   -0.38  1.0000
   6   0   7      96      52                                                         109   -0.22    0.38  1.0000
   6  -1   7       1      37                                                         -21   -0.32    0.07  1.0000
   1   6   7       7      32                                                           3   -0.32   -0.07  1.0000
   6  -2   7     123      60                                                         141   -0.33   -0.02  1.0000
   2   6   7      75      40                                                          89   -0.33    0.02  1.0000
   3   6   7     173      45                                                         175   -0.12   -0.15  1.0000
   6  -3   7     264      64                                                         266   -0.12    0.15  1.0000
   4   6  -7      94      53                                                          77    0.28    0.24  1.0000
   4   6   7      57      41                                                          44    0.28   -0.24  1.0000
   6  -4   7      80      49                                                          64    0.28    0.24  1.0000
   5   6   7     161      53                                                         191    0.56   -0.14  1.0000
   6   6   7     221      61                                                         257    0.46   -0.04  1.0000
   7   6   7      51      50                                                          55    0.10   -0.07  1.0000
   7   5   7       0      42                                                         -35   -0.17   -0.09  1.0000
   7   4   7       1      39                                                         -25   -0.42   -0.17  1.0000
   7   3   7      38      47                                                          36   -0.45   -0.15  1.0000
   7   2   7     156      57                                                         155   -0.20    0.06  1.0000
   7   1   7      67      52                                                          78    0.12    0.23  1.0000
   7   0   7      80      53                                                          94    0.22    0.22  1.0000
   7  -1   7      57      55                                                          54   -0.06    0.21  1.0000
   1   7   7     161      44                                                         157   -0.06   -0.21  1.0000
   2   7   7       2      33                                                         -30   -0.39   -0.33  1.0000
   7  -2   7      36      45                                                          49   -0.39    0.33  1.0000
   7  -3   7      18      45                                                          12   -0.30    0.34  1.0000
   3   7   7       1      36                                                         -13   -0.30   -0.34  1.0000
   7  -4   7     209      67                                                         217    0.23    0.06  1.0000
   4   7   7     128      48                                                         134    0.23   -0.06  1.0000
   5   7   7      86      43                                                          57    0.64    0.25  1.0000
   7  -5   7       3      43                                                         -34    0.64   -0.25  1.0000
   6   7   7      81      46                                                          73    0.54    0.22  1.0000
   8   4   7      27      45                                                          37   -0.37   -0.05  1.0000
   8   3   7       1      49                                                           4   -0.44   -0.04  1.0000
   8   2   7      42      51                                                          33   -0.27   -0.11  1.0000
   8   1   7      26      49                                                          33    0.11   -0.33  1.0000
   8   0   7     101      57                                                         117    0.35   -0.43  1.0000
   8  -1   7     289      73                                                         291    0.17   -0.10  1.0000
   1   8   7     232      51                                                         234    0.17    0.10  1.0000
   2   8   7     106      42                                                          85   -0.18   -0.41  1.0000
   8  -2   7     229      64                                                         197   -0.18    0.41  1.0000
   8  -3   7     124      61                                                         156   -0.23    0.49  1.0000
   3   8   7      40      44                                                          59   -0.23   -0.49  1.0000
   4   8   7     215      54                                                         215    0.06   -0.01  1.0000
   8  -4   7     153      65                                                         153    0.06    0.01  1.0000
   9   2   7      53      53                                                          49   -0.11   -0.00  1.0000
   9   1   7       2      47                                                         -25    0.01   -0.50  1.0000
   9   0   7       5      48                                                         -44    0.11   -0.84  1.0000
   9  -1   7     325      80                                                         378    0.08   -0.56  1.0000
   2   9   7     358      61                                                         362   -0.01   -0.05  1.0000
   9  -2   7     431      86                                                         435   -0.01    0.05  1.0000
   0   0   8    1982     118                                                        1907   -0.34   -0.00  1.0000
   0  -1   8    1490     107                                                        1563   -0.35    0.29  1.0000
  -1   0   8    1304     110                                                        1372   -0.35   -0.29  1.0000
   0   1   8    1473     103                                                        1545   -0.35    0.29  1.0000
   1   0   8    1477     109                                                        1550   -0.35   -0.29  1.0000
  -1   1   8     812      83                                                         787   -0.34    0.41  1.0000
  -1  -1   8     865      87                                                         839   -0.34   -0.41  1.0000
   1  -1   8     910      93                                                         883   -0.34    0.41  1.0000
   1   1   8     841      88                                                         815   -0.34   -0.41  1.0000
  -1   2   8       6      37                                                         -12   -0.13    0.95  1.0000
   1  -2   8      74      47                                                          57   -0.13    0.95  1.0000
   2   1   8       6      37                                                         -13   -0.13   -0.95  1.0000
   2   0   8      95      49                                                          92   -0.24   -0.73  1.0000
  -2   0   8     243      53                                                         240   -0.24   -0.73  1.0000
   0   2   8     327      59                                                         325   -0.24    0.73  1.0000
  -2   1   8     590      73                                                         615   -0.26   -0.00  1.0000
   2  -1   8     594      83                                                         619   -0.26   -0.00  1.0000
   1   2   8     775      87                                                         804   -0.26    0.00  1.0000
   2  -2   8     110      52                                                         136   -0.08    0.53  1.0000
   2   2   8     200      58                                                         234   -0.08   -0.53  1.0000
   3   2   8      68      48                                                          92    0.25   -0.49  1.0000
   3   1   8      25      43                                                           8    0.34   -0.79  1.0000
   0   3   8      38      38                                                          31    0.21    0.68  1.0000
   3   0   8       3      38                                                         -21    0.21   -0.68  1.0000
   3  -1   8      83      48                                                          75   -0.01   -0.26  1.0000
   1   3   8     134      49                                                         124   -0.01    0.26  1.0000
   3  -2   8     252      63                                                         254   -0.08    0.07  1.0000
   2   3   8     169      52                                                         171   -0.08   -0.07  1.0000
   3  -3   8      17      44                                                          16    0.02    0.11  1.0000
   3   3   8      25      44                                                          24    0.02   -0.11  1.0000
   4   3   8      13      45                                                          13    0.08   -0.00  1.0000
   4   2   8     208      58                                                         182    0.44   -0.17  1.0000
   4   1   8       5      41                                                         -11    0.79   -0.28  1.0000
   4   0   8      43      49                                                          52    0.78   -0.22  1.0000
   0   4   8      80      44                                                          94    0.78    0.22  1.0000
   1   4   8     118      47                                                         103    0.38    0.06  1.0000
   4  -1   8      98      53                                                          85    0.38   -0.06  1.0000
   2   4   8      72      43                                                          71   -0.03   -0.03  1.0000
   4  -2   8       7      48                                                           7   -0.03    0.03  1.0000
   4  -3   8      69      49                                                          63   -0.15    0.01  1.0000
   3   4   8      28      40                                                          24   -0.15   -0.01  1.0000
   4   4   8      68      46                                                          66   -0.07    0.05  1.0000
   4  -4   8      40      49                                                          38   -0.07   -0.05  1.0000
   5   2   8      36      47                                                          37    0.34    0.01  1.0000
   5   1   8      57      55                                                          92    0.81   -0.03  1.0000
   5   0   8      91      57                                                         139    0.94    0.09  1.0000
   1   5   8      51      42                                                          41    0.57   -0.23  1.0000
   5  -1   8     227      63                                                         209    0.57    0.23  1.0000
   5  -2   8     173      61                                                         158    0.09    0.22  1.0000
   2   5   8      14      41                                                          10    0.09   -0.22  1.0000
   0   0   0       0       0                                                           0    0.09   -0.22  1.0000
   0   0   0       0       0                                                           0    0.09   -0.22  1.0000
;
_shelx_hkl_checksum              5760
loop_
_space_group_symop_operation_xyz
'x, y, z'
'y, -x, -z'
'-y, x, -z'
'-x, -y, z'
loop_
_atom_site_label
_atom_site_type_symbol
_atom_site_fract_x
_atom_site_fract_y
_atom_site_fract_z
_atom_site_U_iso_or_equiv
_atom_site_adp_type
_atom_site_occupancy
_atom_site_site_symmetry_order
_atom_site_calc_flag
_atom_site_refinement_flags_posn
_atom_site_refinement_flags_adp
_atom_site_refinement_flags_occupancy
_atom_site_disorder_assembly
_atom_site_disorder_group
N1 N -0.1698(3) 0.7455(3) -0.1084(6) 0.0552(11) Uani 1 1 d . . . . .
C1 C 0.4104(2) 0.5257(2) 0.8735(4) 0.0211(8) Uani 1 1 d . . . . .
C2 C 0.4364(2) 0.6129(2) 1.0003(5) 0.0216(7) Uani 1 1 d . . . . .
H2A H 0.3795 0.6294 1.0808 0.026 Uiso 1 1 calc R U . . .
H2B H 0.4513 0.6707 0.9208 0.026 Uiso 1 1 calc R U . . .
C3 C 0.5000 0.5000 0.7526(6) 0.0216(10) Uani 1 2 d S T P . .
H3A H 0.4838 0.4436 0.6705 0.026 Uiso 0.5 1 calc R U P . .
H3B H 0.5162 0.5564 0.6705 0.026 Uiso 0.5 1 calc R U P . .
C4 C 0.3232(2) 0.5525(2) 0.7468(5) 0.0270(9) Uani 1 1 d . . . . .
C5 C 0.2319(3) 0.5105(3) 0.7646(6) 0.0433(11) Uani 1 1 d . . . . .
H5 H 0.2217 0.4622 0.8591 0.052 Uiso 1 1 calc R U . . .
C6 C 0.1551(3) 0.5363(4) 0.6496(7) 0.0587(13) Uani 1 1 d . . . . .
H6 H 0.0929 0.5069 0.6703 0.070 Uiso 1 1 calc R U . . .
C7 C 0.1649(3) 0.6028(3) 0.5067(7) 0.0528(12) Uani 1 1 d . . . . .
C8 C 0.2582(3) 0.6470(3) 0.4858(6) 0.0479(12) Uani 1 1 d D . . . .
H8 H 0.2680 0.6942 0.3891 0.057 Uiso 1 1 calc R U . . .
C9 C 0.3352(3) 0.6227(3) 0.6035(5) 0.0350(10) Uani 1 1 d . . . . .
H9 H 0.3969 0.6538 0.5874 0.042 Uiso 1 1 calc R U . . .
C10A C 0.0754(6) 0.6245(5) 0.4042(12) 0.031(2) Uani 0.575(17) 1 d . . P A 1
H10A H 0.0143 0.6081 0.4604 0.037 Uiso 0.575(17) 1 calc R U P A 1
C11A C 0.0755(5) 0.6690(5) 0.2239(9) 0.024(2) Uani 0.575(17) 1 d D . P A 1
H11A H 0.1363 0.6869 0.1683 0.028 Uiso 0.575(17) 1 calc R U P A 1
C10B C 0.1137(16) 0.6482(12) 0.317(3) 0.073(5) Uiso 0.425(17) 1 d . . P A 2
H10B H 0.1435 0.6844 0.2177 0.087 Uiso 0.425(17) 1 calc R U P A 2
C11B C 0.0377(14) 0.6267(16) 0.331(3) 0.098(7) Uiso 0.425(17) 1 d D . P A 2
H11B H 0.0068 0.5876 0.4248 0.117 Uiso 0.425(17) 1 calc R U P A 2
C12 C -0.0147(4) 0.6882(4) 0.1215(9) 0.0701(16) Uani 1 1 d . . . . .
C13 C -0.1105(4) 0.6994(4) 0.1927(7) 0.0671(15) Uani 1 1 d . . . . .
H13 H -0.1241 0.6872 0.3220 0.081 Uiso 1 1 calc R U . . .
C14 C -0.1835(3) 0.7281(3) 0.0730(7) 0.0501(12) Uani 1 1 d . . . . .
H14 H -0.2476 0.7359 0.1228 0.060 Uiso 1 1 calc R U . . .
C15 C -0.0801(4) 0.7325(4) -0.1701(8) 0.0688(15) Uani 1 1 d . . . . .
H15 H -0.0688 0.7430 -0.3007 0.083 Uiso 1 1 calc R U . . .
C16 C -0.0030(4) 0.7056(5) -0.0648(9) 0.0796(18) Uani 1 1 d . . . . .
H16 H 0.0597 0.6987 -0.1211 0.096 Uiso 1 1 calc R U . . .
loop_
_atom_site_aniso_label
_atom_site_aniso_U_11
_atom_site_aniso_U_22
_atom_site_aniso_U_33
_atom_site_aniso_U_23
_atom_site_aniso_U_13
_atom_site_aniso_U_12
N1 0.042(2) 0.060(2) 0.064(3) 0.022(2) -0.015(2) -0.0064(18)
C1 0.0232(17) 0.0243(17) 0.0158(17) 0.0017(14) -0.0012(14) 0.0003(13)
C2 0.0249(17) 0.0223(16) 0.0175(14) 0.0019(15) 0.0026(15) 0.0030(13)
C3 0.029(3) 0.021(2) 0.016(2) 0.000 0.000 -0.001(2)
C4 0.034(2) 0.0259(19) 0.0208(19) -0.0042(16) -0.0027(16) 0.0055(15)
C5 0.039(2) 0.037(2) 0.054(3) 0.010(2) -0.017(2) -0.0032(18)
C6 0.041(2) 0.054(3) 0.080(3) 0.011(3) -0.031(2) -0.004(2)
C7 0.054(3) 0.054(3) 0.050(3) -0.006(3) -0.034(2) 0.011(2)
C8 0.070(3) 0.052(3) 0.022(2) 0.000(2) -0.003(2) 0.029(2)
C9 0.040(2) 0.042(2) 0.0235(19) 0.0039(18) 0.0006(17) 0.0123(18)
C10A 0.019(3) 0.047(4) 0.027(5) 0.018(3) -0.012(3) -0.010(3)
C11A 0.023(3) 0.037(4) 0.011(4) 0.015(3) -0.005(3) -0.004(3)
C12 0.058(3) 0.067(3) 0.085(4) -0.012(3) -0.039(3) 0.021(3)
C13 0.090(4) 0.064(3) 0.047(3) 0.009(2) -0.031(3) 0.005(3)
C14 0.046(2) 0.049(3) 0.055(3) 0.015(2) -0.011(2) -0.009(2)
C15 0.056(3) 0.088(4) 0.062(3) 0.019(3) -0.008(3) -0.005(3)
C16 0.046(3) 0.116(5) 0.076(4) -0.020(3) -0.020(3) 0.009(3)
loop_
_atom_type_symbol
_atom_type_description
_atom_type_scat_dispersion_real
_atom_type_scat_dispersion_imag
_atom_type_scat_source
C C 0.0033 0.0016 'International Tables Vol C Tables 4.2.6.8 and 6.1.1.4'
H H 0.0000 0.0000 'International Tables Vol C Tables 4.2.6.8 and 6.1.1.4'
N N 0.0061 0.0033 'International Tables Vol C Tables 4.2.6.8 and 6.1.1.4'
loop_
_geom_angle_atom_site_label_1
_geom_angle_atom_site_label_2
_geom_angle_atom_site_label_3
_geom_angle
_geom_angle_site_symmetry_1
_geom_angle_site_symmetry_3
_geom_angle_publ_flag
C15 N1 C14 115.6(4) . . ?
C2 C1 C3 108.7(2) . . ?
C2 C1 C4 109.8(2) . . ?
C3 C1 C4 110.2(2) . . ?
C2 C1 C2 108.7(2) . 3_657 ?
C3 C1 C2 107.9(2) . 3_657 ?
C4 C1 C2 111.5(3) . 3_657 ?
C1 C2 C1 111.2(3) . 2_567 ?
C1 C2 H2A 109.4 . . ?
C1 C2 H2A 109.4 2_567 . ?
C1 C2 H2B 109.4 . . ?
C1 C2 H2B 109.4 2_567 . ?
H2A C2 H2B 108.0 . . ?
C1 C3 C1 112.1(3) 4_665 . ?
C1 C3 H3A 109.2 4_665 . ?
C1 C3 H3A 109.2 . . ?
C1 C3 H3B 109.2 4_665 . ?
C1 C3 H3B 109.2 . . ?
H3A C3 H3B 107.9 . . ?
C5 C4 C9 117.1(3) . . ?
C5 C4 C1 123.3(3) . . ?
C9 C4 C1 119.7(3) . . ?
C6 C5 C4 122.0(4) . . ?
C6 C5 H5 119.0 . . ?
C4 C5 H5 119.0 . . ?
C7 C6 C5 122.4(4) . . ?
C7 C6 H6 118.8 . . ?
C5 C6 H6 118.8 . . ?
C6 C7 C8 116.7(4) . . ?
C6 C7 C10A 115.1(5) . . ?
C8 C7 C10A 128.1(5) . . ?
C6 C7 C10B 145.0(8) . . ?
C8 C7 C10B 97.8(8) . . ?
C9 C8 C7 121.2(4) . . ?
C9 C8 H8 119.4 . . ?
C7 C8 H8 119.4 . . ?
C8 C9 C4 120.8(4) . . ?
C8 C9 H9 119.6 . . ?
C4 C9 H9 119.6 . . ?
C11A C10A C7 122.6(7) . . ?
C11A C10A H10A 118.7 . . ?
C7 C10A H10A 118.7 . . ?
C10A C11A C12 121.8(6) . . ?
C10A C11A H11A 119.1 . . ?
C12 C11A H11A 119.1 . . ?
C11B C10B C7 103(2) . . ?
C11B C10B H10B 128.4 . . ?
C7 C10B H10B 128.4 . . ?
C10B C11B C12 100(2) . . ?
C10B C11B H11B 130.1 . . ?
C12 C11B H11B 130.1 . . ?
C16 C12 C13 116.1(4) . . ?
C16 C12 C11A 114.8(6) . . ?
C13 C12 C11A 128.8(5) . . ?
C16 C12 C11B 145.0(7) . . ?
C13 C12 C11B 96.9(7) . . ?
C14 C13 C12 119.0(5) . . ?
C14 C13 H13 120.5 . . ?
C12 C13 H13 120.5 . . ?
N1 C14 C13 123.6(5) . . ?
N1 C14 H14 118.2 . . ?
C13 C14 H14 118.2 . . ?
N1 C15 C16 125.7(5) . . ?
N1 C15 H15 117.2 . . ?
C16 C15 H15 117.2 . . ?
C15 C16 C12 120.0(5) . . ?
C15 C16 H16 120.0 . . ?
C12 C16 H16 120.0 . . ?
loop_
_geom_bond_atom_site_label_1
_geom_bond_atom_site_label_2
_geom_bond_distance
_geom_bond_site_symmetry_2
_geom_bond_publ_flag
N1 C15 1.311(7) . ?
N1 C14 1.321(6) . ?
C1 C2 1.533(5) . ?
C1 C3 1.534(4) . ?
C1 C4 1.535(4) . ?
C1 C2 1.546(4) 3_657 ?
C2 C1 1.546(4) 2_567 ?
C2 H2A 0.9900 . ?
C2 H2B 0.9900 . ?
C3 C1 1.534(4) 4_665 ?
C3 H3A 0.9900 . ?
C3 H3B 0.9900 . ?
C4 C5 1.378(5) . ?
C4 C9 1.406(5) . ?
C5 C6 1.374(6) . ?
C5 H5 0.9500 . ?
C6 C7 1.367(7) . ?
C6 H6 0.9500 . ?
C7 C8 1.417(6) . ?
C7 C10A 1.451(8) . ?
C7 C10B 1.64(2) . ?
C8 C9 1.383(5) . ?
C8 H8 0.9500 . ?
C9 H9 0.9500 . ?
C10A C11A 1.416(13) . ?
C10A H10A 0.9500 . ?
C11A C12 1.453(8) . ?
C11A H11A 0.9500 . ?
C10B C11B 1.08(3) . ?
C10B H10B 0.9500 . ?
C11B C12 1.85(2) . ?
C11B H11B 0.9500 . ?
C12 C16 1.352(8) . ?
C12 C13 1.410(8) . ?
C13 C14 1.366(6) . ?
C13 H13 0.9500 . ?
C14 H14 0.9500 . ?
C15 C16 1.341(7) . ?
C15 H15 0.9500 . ?
C16 H16 0.9500 . ?
loop_
_geom_torsion_atom_site_label_1
_geom_torsion_atom_site_label_2
_geom_torsion_atom_site_label_3
_geom_torsion_atom_site_label_4
_geom_torsion
_geom_torsion_site_symmetry_1
_geom_torsion_site_symmetry_2
_geom_torsion_site_symmetry_3
_geom_torsion_site_symmetry_4
_geom_torsion_publ_flag
C3 C1 C2 C1 -57.9(3) . . . 2_567 ?
C4 C1 C2 C1 -178.5(3) . . . 2_567 ?
C2 C1 C2 C1 59.2(2) 3_657 . . 2_567 ?
C2 C1 C3 C1 58.79(18) . . . 4_665 ?
C4 C1 C3 C1 179.1(3) . . . 4_665 ?
C2 C1 C3 C1 -58.92(18) 3_657 . . 4_665 ?
C2 C1 C4 C5 -111.9(4) . . . . ?
C3 C1 C4 C5 128.4(3) . . . . ?
C2 C1 C4 C5 8.6(4) 3_657 . . . ?
C2 C1 C4 C9 68.5(4) . . . . ?
C3 C1 C4 C9 -51.2(4) . . . . ?
C2 C1 C4 C9 -171.0(3) 3_657 . . . ?
C9 C4 C5 C6 -0.7(6) . . . . ?
C1 C4 C5 C6 179.6(4) . . . . ?
C4 C5 C6 C7 2.2(7) . . . . ?
C5 C6 C7 C8 -2.1(7) . . . . ?
C5 C6 C7 C10A -177.6(5) . . . . ?
C5 C6 C7 C10B 166.3(10) . . . . ?
C6 C7 C8 C9 0.7(7) . . . . ?
C10A C7 C8 C9 175.6(5) . . . . ?
C10B C7 C8 C9 -172.6(6) . . . . ?
C7 C8 C9 C4 0.6(6) . . . . ?
C5 C4 C9 C8 -0.6(5) . . . . ?
C1 C4 C9 C8 179.1(3) . . . . ?
C6 C7 C10A C11A -162.2(6) . . . . ?
C8 C7 C10A C11A 22.9(9) . . . . ?
C10B C7 C10A C11A 0.4(10) . . . . ?
C7 C10A C11A C12 178.6(5) . . . . ?
C6 C7 C10B C11B 19(2) . . . . ?
C8 C7 C10B C11B -171.9(14) . . . . ?
C10A C7 C10B C11B -9.6(14) . . . . ?
C7 C10B C11B C12 176.2(8) . . . . ?
C10A C11A C12 C16 -162.8(6) . . . . ?
C10A C11A C12 C13 23.3(9) . . . . ?
C10A C11A C12 C11B -8.6(12) . . . . ?
C10B C11B C12 C16 46(2) . . . . ?
C10B C11B C12 C13 -153.2(14) . . . . ?
C10B C11B C12 C11A 2.3(10) . . . . ?
C16 C12 C13 C14 -1.1(8) . . . . ?
C11A C12 C13 C14 172.7(5) . . . . ?
C11B C12 C13 C14 -169.1(7) . . . . ?
C15 N1 C14 C13 0.8(7) . . . . ?
C12 C13 C14 N1 0.5(7) . . . . ?
C14 N1 C15 C16 -1.5(8) . . . . ?
N1 C15 C16 C12 0.9(10) . . . . ?
C13 C12 C16 C15 0.5(9) . . . . ?
C11A C12 C16 C15 -174.2(5) . . . . ?
C11B C12 C16 C15 159.4(13) . . . . ?
loop_
_platon_squeeze_void_nr
_platon_squeeze_void_average_x
_platon_squeeze_void_average_y
_platon_squeeze_void_average_z
_platon_squeeze_void_volume
_platon_squeeze_void_count_electrons
_platon_squeeze_void_content
1 0.000 -0.000 -0.054 209 46 ' '
