#------------------------------------------------------------------------------
#$Date: 2020-08-22 01:48:55 +0300 (Sat, 22 Aug 2020) $
#$Revision: 255521 $
#$URL: file:///home/coder/svn-repositories/cod/cif/4/13/51/4135168.cif $
#------------------------------------------------------------------------------
#
# This file is available in the Crystallography Open Database (COD),
# http://www.crystallography.net/
#
# All data on this site have been placed in the public domain by the
# contributors.
#
data_4135168
loop_
_publ_author_name
'Yan, Yong'
'Carrington, Elliot J.'
'P\'etuya, R\'emi'
'Whitehead, George F. S.'
'Verma, Ajay'
'Hylton, Rebecca K.'
'Tang, Chiu C.'
'Berry, Neil G.'
'Darling, George R.'
'Dyer, Matthew S.'
'Antypov, Dmytro'
'Katsoulidis, Alexandros P.'
'Rosseinsky, Matthew J.'
_publ_section_title
;
 Amino Acid Residues Determine the Response of Flexible Metal-Organic
 Frameworks to Guests.
;
_journal_name_full               'Journal of the American Chemical Society'
_journal_paper_doi               10.1021/jacs.0c03853
_journal_year                    2020
_chemical_formula_moiety         'C6 H5 N3 O3 Zn, 0.58(C9 H12)'
_chemical_formula_sum            'C11.25 H12 N3 O3 Zn'
_chemical_formula_weight         302.61
_space_group_crystal_system      trigonal
_space_group_IT_number           161
_space_group_name_Hall           'R 3 -2"c'
_space_group_name_H-M_alt        'R 3 c :H'
_atom_sites_solution_hydrogens   geom
_audit_creation_date             2018-05-30
_audit_creation_method
;
Olex2 1.2
(compiled 2018.05.18 svn.r3508 for OlexSys, GUI svn.r5497)
;
_cell_angle_alpha                90
_cell_angle_beta                 90
_cell_angle_gamma                120
_cell_formula_units_Z            18
_cell_length_a                   26.5317(7)
_cell_length_b                   26.5317(7)
_cell_length_c                   10.1159(2)
_cell_measurement_reflns_used    11479
_cell_measurement_temperature    100
_cell_measurement_theta_max      27.4670
_cell_measurement_theta_min      3.0490
_cell_volume                     6166.9(3)
_computing_cell_refinement       'CrysAlisPro 1.171.38.46 (Rigaku OD, 2015)'
_computing_data_collection       'CrysAlisPro 1.171.38.46 (Rigaku OD, 2015)'
_computing_data_reduction        'CrysAlisPro 1.171.38.46 (Rigaku OD, 2015)'
_computing_molecular_graphics    'Olex2 (Dolomanov et al., 2009)'
_computing_publication_material  'Olex2 (Dolomanov et al., 2009)'
_computing_structure_refinement  'ShelXL (Sheldrick, 2015)'
_diffrn_ambient_temperature      100
_diffrn_detector                 'CCD plate'
_diffrn_measured_fraction_theta_full 0.999
_diffrn_measured_fraction_theta_max 0.999
_diffrn_measurement_details
;
List of Runs (angles in degrees, time in seconds):

  # Type    Start    End  Width  t~exp~   \w     \q     \k     \f   Frames
--------------------------------------------------------------------------
  1  \w   -110.00  15.00   1.00   15.00    --  -20.00 -68.00   0.00  125
  2  \w   -110.00  15.00   1.00   15.00    --  -20.00 -68.00 120.00  125
  3  \w   -110.00  15.00   1.00   15.00    --  -20.00 -68.00 240.00  125
  4  \w   -110.00  15.00   1.00   15.00    --  -20.00 -30.00  90.00  125
;
_diffrn_measurement_device       'abstract diffractometer'
_diffrn_measurement_device_type
'dtrek-CrysAlisPro-abstract goniometer imported rigaku-d*trek images'
_diffrn_measurement_method       '\w scans'
_diffrn_orient_matrix_type
'CrysAlisPro convention (1999,Acta A55,543-557)'
_diffrn_orient_matrix_UB_11      -0.0192529000
_diffrn_orient_matrix_UB_12      0.0109150000
_diffrn_orient_matrix_UB_13      -0.0103164000
_diffrn_orient_matrix_UB_21      0.0239133000
_diffrn_orient_matrix_UB_22      0.0288453000
_diffrn_orient_matrix_UB_23      0.0004636000
_diffrn_orient_matrix_UB_31      0.0030404000
_diffrn_orient_matrix_UB_32      -0.0013988000
_diffrn_orient_matrix_UB_33      -0.0693476000
_diffrn_radiation_monochromator  graphite
_diffrn_radiation_probe          x-ray
_diffrn_radiation_type           MoK\a
_diffrn_radiation_wavelength     0.71073
_diffrn_reflns_av_R_equivalents  0.0532
_diffrn_reflns_av_unetI/netI     0.0272
_diffrn_reflns_Laue_measured_fraction_full 0.999
_diffrn_reflns_Laue_measured_fraction_max 0.999
_diffrn_reflns_limit_h_max       34
_diffrn_reflns_limit_h_min       -34
_diffrn_reflns_limit_k_max       34
_diffrn_reflns_limit_k_min       -34
_diffrn_reflns_limit_l_max       13
_diffrn_reflns_limit_l_min       -8
_diffrn_reflns_number            24557
_diffrn_reflns_point_group_measured_fraction_full 0.923
_diffrn_reflns_point_group_measured_fraction_max 0.895
_diffrn_reflns_theta_full        25.242
_diffrn_reflns_theta_max         27.476
_diffrn_reflns_theta_min         2.659
_diffrn_source                   'fine-focus sealed X-ray tube'
_diffrn_source_type              'Enhance (Mo) X-ray Source'
_exptl_absorpt_coefficient_mu    1.796
_exptl_absorpt_correction_T_max  1.00000
_exptl_absorpt_correction_T_min  0.55562
_exptl_absorpt_correction_type   multi-scan
_exptl_absorpt_process_details
;
CrysAlisPro 1.171.38.46 (Rigaku Oxford Diffraction, 2015)
Empirical absorption correction using spherical harmonics,
 implemented in SCALE3 ABSPACK scaling algorithm.
;
_exptl_crystal_colour            white
_exptl_crystal_colour_primary    white
_exptl_crystal_density_diffrn    1.467
_exptl_crystal_description       needle
_exptl_crystal_F_000             2781
_exptl_crystal_preparation       'Solvent Exchnaged in Mesitylene'
_exptl_crystal_size_max          0.5
_exptl_crystal_size_mid          0.04
_exptl_crystal_size_min          0.04
_refine_diff_density_max         0.752
_refine_diff_density_min         -0.374
_refine_diff_density_rms         0.106
_refine_ls_abs_structure_details
;
 Flack x determined using 1093 quotients [(I+)-(I-)]/[(I+)+(I-)]
 (Parsons, Flack and Wagner, Acta Cryst. B69 (2013) 249-259).
;
_refine_ls_abs_structure_Flack   -0.022(12)
_refine_ls_extinction_method     none
_refine_ls_goodness_of_fit_ref   1.037
_refine_ls_hydrogen_treatment    mixed
_refine_ls_matrix_type           full
_refine_ls_number_parameters     150
_refine_ls_number_reflns         2824
_refine_ls_number_restraints     87
_refine_ls_restrained_S_all      1.109
_refine_ls_R_factor_all          0.0470
_refine_ls_R_factor_gt           0.0446
_refine_ls_shift/su_max          0.006
_refine_ls_shift/su_mean         0.000
_refine_ls_structure_factor_coef Fsqd
_refine_ls_weighting_details
'w=1/[\s^2^(Fo^2^)+(0.0844P)^2^+19.8587P] where P=(Fo^2^+2Fc^2^)/3'
_refine_ls_weighting_scheme      calc
_refine_ls_wR_factor_gt          0.1184
_refine_ls_wR_factor_ref         0.1198
_reflns_Friedel_coverage         0.781
_reflns_Friedel_fraction_full    0.846
_reflns_Friedel_fraction_max     0.789
_reflns_number_gt                2697
_reflns_number_total             2824
_reflns_threshold_expression     'I > 2\s(I)'
_cod_data_source_file            ZnGlyPyr_Mesitylene_100K.cif
_cod_data_source_block           ZnGlyPyr_Mesitylene_100K
_cod_original_sg_symbol_H-M      'R 3 c'
_cod_database_code               4135168
_shelx_shelxl_version_number     2014/7
_chemical_oxdiff_formula         ZnC6H5N3O5
_shelx_space_group_comment
;
The symmetry employed for this shelxl refinement is uniquely defined
by the following loop, which should always be used as a source of
symmetry information in preference to the above space-group names.
They are only intended as comments.
;
_reflns_odcompleteness_completeness 99.94
_reflns_odcompleteness_iscentric 1
_reflns_odcompleteness_theta     27.42
_olex2_refinement_description
;
1. Fixed Uiso
 At 1.2 times of:
  All C(H) groups, All C(H,H) groups, All N(H) groups
2. Restrained distances
 C14B-C13B
 1.5 with sigma of 0.02
 C14B-C15B
 2.3 with sigma of 0.02
 C14B-C12B
 2.3 with sigma of 0.02
 C11B-C10B
 1.5 with sigma of 0.02
 C12B-C11B
 2.3 with sigma of 0.02
 C11B-C9B
 2.3 with sigma of 0.02
 C8B-C7B
 1.5 with sigma of 0.02
 C7B-C9B
 2.3 with sigma of 0.02
 C7B-C15B
 2.3 with sigma of 0.02
 C13A-C14A
 1.5 with sigma of 0.02
 C15A-C14A
 2.3 with sigma of 0.02
 C14A-C12A
 2.3 with sigma of 0.02
 C10A-C11A
 1.5 with sigma of 0.02
 C12A-C11A
 2.3 with sigma of 0.02
 C11A-C9A
 2.3 with sigma of 0.02
 C8A-C7A
 1.5 with sigma of 0.02
 C15A-C7A
 2.3 with sigma of 0.02
 C9A-C7A
 2.3 with sigma of 0.02
3. Restrained planarity
 C13B, C15B, C8B, C12B, C14B, C9B, C7B, C10B, C11B, C13B, C15B, C8B, C15B,
 C13B, C12B, C13B, C14B, C9B, C8B, C7B, C8B, C10B, C12B, C9B, C10B, C11B, C10B
 with sigma of 0.001
 C10A, C9A, C8A, C12A, C11A, C15A, C7A, C13A, C14A, C10A, C9A, C9A, C8A, C10A,
 C12A, C10A, C11A, C8A, C15A, C7A, C8A, C13A, C12A, C13A, C15A, C14A, C13A
 with sigma of 0.001
4. Rigid bond restraints
 O1, C6
 with sigma for 1-2 distances of 0.01 and sigma for 1-3 distances of 0.01
 C6, O2
 with sigma for 1-2 distances of 0.01 and sigma for 1-3 distances of 0.01
5. Uiso/Uaniso restraints and constraints
O1 \\sim C6: within 2A with sigma of 0.02 and sigma for terminal atoms of 0.04
C6 \\sim O2: within 2A with sigma of 0.02 and sigma for terminal atoms of 0.04
C5 \\sim C6: within 2A with sigma of 0.02 and sigma for terminal atoms of 0.04
Uiso(C11B) = Uiso(C15B) = Uiso(H15B) = Uiso(C13B) = Uiso(C8B) = Uiso(C12B) =
Uiso(C14B) = Uiso(C9B) = Uiso(C7B) = Uiso(H12B) = Uiso(C10B) = Uiso(H14D) =
Uiso(H14E) = Uiso(H14F) = Uiso(H9B) = Uiso(H7BA) = Uiso(H7BB) = Uiso(H7BC) =
Uiso(H11D) = Uiso(H11E) = Uiso(H11F) = Uiso(C15B) = Uiso(H15B) = Uiso(C13B) =
Uiso(C15B) = Uiso(C8B) = Uiso(C15B) = Uiso(C13B) = Uiso(C12B) = Uiso(C13B) =
Uiso(C14B) = Uiso(C9B) = Uiso(C8B) = Uiso(C7B) = Uiso(C8B) = Uiso(C12B) =
Uiso(H12B) = Uiso(C10B) = Uiso(C12B) = Uiso(C14B) = Uiso(H14D) = Uiso(C14B) =
Uiso(H14E) = Uiso(C14B) = Uiso(H14F) = Uiso(C9B) = Uiso(C10B) = Uiso(C9B) =
Uiso(H9B) = Uiso(C7B) = Uiso(H7BA) = Uiso(C7B) = Uiso(H7BB) = Uiso(C7B) =
Uiso(H7BC) = Uiso(C11B) = Uiso(C10B) = Uiso(C11B) = Uiso(H11D) = Uiso(C11B) =
Uiso(H11E) = Uiso(C11B) = Uiso(H11F)
Uiso(C10A) = Uiso(C9A) = Uiso(H9A) = Uiso(C8A) = Uiso(C12A) = Uiso(C11A) =
Uiso(C15A) = Uiso(C7A) = Uiso(H12A) = Uiso(C13A) = Uiso(H11A) = Uiso(H11B) =
Uiso(H11C) = Uiso(H15A) = Uiso(H7AA) = Uiso(H7AB) = Uiso(H7AC) = Uiso(C14A) =
Uiso(H14A) = Uiso(H14B) = Uiso(H14C) = Uiso(C9A) = Uiso(H9A) = Uiso(C10A) =
Uiso(C9A) = Uiso(C9A) = Uiso(C8A) = Uiso(C10A) = Uiso(C12A) = Uiso(C10A) =
Uiso(C11A) = Uiso(C8A) = Uiso(C15A) = Uiso(C7A) = Uiso(C8A) = Uiso(C12A) =
Uiso(H12A) = Uiso(C13A) = Uiso(C12A) = Uiso(C11A) = Uiso(H11A) = Uiso(C11A) =
Uiso(H11B) = Uiso(C11A) = Uiso(H11C) = Uiso(C13A) = Uiso(C15A) = Uiso(C15A) =
Uiso(H15A) = Uiso(C7A) = Uiso(H7AA) = Uiso(C7A) = Uiso(H7AB) = Uiso(C7A) =
Uiso(H7AC) = Uiso(C14A) = Uiso(C13A) = Uiso(C14A) = Uiso(H14A) = Uiso(C14A) =
Uiso(H14B) = Uiso(C14A) = Uiso(H14C)
6. Others
 Fixed Sof: C9A(0.33333) H9A(0.33333) C10A(0.33333) C12A(0.33333)
 H12A(0.33333) C13A(0.33333) C15A(0.33333) H15A(0.33333) C8A(0.33333)
 C11A(0.33333) H11A(0.33333) H11B(0.33333) H11C(0.33333) C14A(0.33333)
 H14A(0.33333) H14B(0.33333) H14C(0.33333) C7A(0.33333) H7AA(0.33333)
 H7AB(0.33333) H7AC(0.33333) C15B(0.25) H15B(0.25) C13B(0.25) C12B(0.25)
 H12B(0.25) C10B(0.25) C9B(0.25) H9B(0.25) C8B(0.25) C7B(0.25) H7BA(0.25)
 H7BB(0.25) H7BC(0.25) C11B(0.25) H11D(0.25) H11E(0.25) H11F(0.25) C14B(0.25)
 H14D(0.25) H14E(0.25) H14F(0.25)
7.a Secondary CH2 refined with riding coordinates:
 C5(H5A,H5B)
7.b Me refined with riding coordinates:
 C11A(H11A,H11B,H11C), C14A(H14A,H14B,H14C), C7A(H7AA,H7AB,H7AC), C7B(H7BA,
 H7BB,H7BC), C11B(H11D,H11E,H11F), C14B(H14D,H14E,H14F)
7.c Aromatic/amide H refined with riding coordinates:
 N3(H3), C1(H1), C3(H3A), C9A(H9A), C12A(H12A), C15A(H15A), C15B(H15B),
 C12B(H12B), C9B(H9B)
7.d Fitted hexagon refined as free rotating group:
 C9A(C10A,C12A,C13A,C15A,C8A), C15B(C13B,C12B,C10B,C9B,C8B)
;
_shelx_res_file
;
    yy_znglypyr_mesitylene_100k_0-77.res created by SHELXL-2014/7

TITL YY_ZnGlyPyr_Mesitylene_100K_0-77 in R3c
REM R3c (#161 in standard setting)
CELL 0.71073 26.531661 26.531661 10.115894 90 90 120
ZERR 18 0.000663 0.000663 0.000219 0 0 0
LATT -3
SYMM -Y,+X-Y,+Z
SYMM +Y-X,-X,+Z
SYMM -Y,-X,0.5+Z
SYMM +Y-X,+Y,0.5+Z
SYMM +X,+X-Y,0.5+Z
SFAC C H N O Zn
UNIT 202.5 216 54 54 18
DFIX 1.5 C14B C13B
DFIX 2.3 C14B C15B
DFIX 2.3 C14B C12B
DFIX 1.5 C11B C10B
DFIX 2.3 C12B C11B
DFIX 2.3 C11B C9B
DFIX 1.5 C8B C7B
DFIX 2.3 C7B C9B
DFIX 2.3 C7B C15B
DFIX 1.5 C13A C14A
DFIX 2.3 C15A C14A
DFIX 2.3 C14A C12A
DFIX 1.5 C10A C11A
DFIX 2.3 C12A C11A
DFIX 2.3 C11A C9A
DFIX 1.5 C8A C7A
DFIX 2.3 C15A C7A
DFIX 2.3 C9A C7A
FLAT 0.001 C13B C15B C8B C12B C14B C9B C7B C10B C11B C13B C15B C8B C15B =
 C13B C12B C13B C14B C9B C8B C7B C8B C10B C12B C9B C10B C11B C10B
FLAT 0.001 C10A C9A C8A C12A C11A C15A C7A C13A C14A C10A C9A C9A C8A C10A =
 C12A C10A C11A C8A C15A C7A C8A C13A C12A C13A C15A C14A C13A
DELU O1 C6
DELU C6 O2
SIMU 0.02 0.04 2 O1 C6
SIMU 0.02 0.04 2 C6 O2
SIMU 0.02 0.04 2 C5 C6
EADP C11B C15B H15B C13B C8B C12B C14B C9B C7B H12B C10B H14d H14e H14f H9B =
 H7BA H7BB H7BC H11D H11E H11F C15B H15B C13B C15B C8B C15B C13B C12B C13B =
 C14B C9B C8B C7B C8B C12B H12B C10B C12B C14B H14D C14B H14E C14B H14F C9B =
 C10B C9B H9B C7B H7BA C7B H7BB C7B H7BC C11B C10B C11B H11D C11B H11E C11B =
 H11F
EADP C10A C9A H9A C8A C12A C11A C15A C7A H12A C13A H11a H11b H11c H15A H7Aa =
 H7AB H7AC C14A H14A H14B H14C C9A H9A C10A C9A C9A C8A C10A C12A C10A C11A =
 C8A C15A C7A C8A C12A H12A C13A C12A C11A H11A C11A H11B C11A H11C C13A =
 C15A C15A H15A C7A H7AA C7A H7AB C7A H7AC C14A C13A C14A H14A C14A H14B =
 C14A H14C

L.S. 50
PLAN  20
BOND $H
list 4
fmap 2
acta
REM <olex2.extras>
REM <HklSrc "%.\\YY_ZnGlyPyr_Mesitylene_100K_0-77.hkl">
REM </olex2.extras>

WGHT    0.084400   19.858698
FVAR       1.38658
ZN1   5   -0.352299   -0.323969   -0.675162    11.00000    0.02109    0.02214 =
         0.00742   -0.00037    0.00014    0.01022
O3    4   -0.557941   -0.443408   -0.238430    11.00000    0.02798    0.03609 =
         0.01044    0.00244    0.00295    0.01107
O2    4   -0.680085   -0.597976   -0.314617    11.00000    0.02583    0.02790 =
         0.00773    0.00397    0.00081    0.01311
N3    3   -0.585478   -0.460370   -0.452521    11.00000    0.02069    0.01934 =
         0.01215    0.00106    0.00107    0.00707
AFIX  43
H3    2   -0.576540   -0.449959   -0.533592    11.00000   -1.20000
AFIX   0
O1    4   -0.621261   -0.576965   -0.488587    11.00000    0.03072    0.02394 =
         0.01277    0.00224    0.00433    0.01545
N2    3   -0.404562   -0.350626   -0.521974    11.00000    0.02127    0.02451 =
         0.00821    0.00019    0.00221    0.01000
N1    3   -0.387898   -0.349024   -0.394145    11.00000    0.02425    0.02829 =
         0.00534    0.00087    0.00073    0.01180
C6    1   -0.648095   -0.563945   -0.405404    11.00000    0.01788    0.02435 =
         0.00709   -0.00024   -0.00366    0.00859
C1    1   -0.435623   -0.376943   -0.320418    11.00000    0.02696    0.02650 =
         0.01075    0.00533    0.00197    0.01020
AFIX  43
H1    2   -0.436060   -0.382158   -0.229427    11.00000   -1.20000
AFIX   0
C3    1   -0.462189   -0.379597   -0.526727    11.00000    0.01979    0.02584 =
         0.01027    0.00007   -0.00023    0.00857
AFIX  43
H3A   2   -0.484316   -0.387117   -0.603146    11.00000   -1.20000
AFIX   0
C5    1   -0.644066   -0.505591   -0.419102    11.00000    0.01901    0.02415 =
         0.01702    0.00107    0.00168    0.00857
AFIX  23
H5A   2   -0.670714   -0.507741   -0.487454    11.00000   -1.20000
H5B   2   -0.655678   -0.495698   -0.336617    11.00000   -1.20000
AFIX   0
C4    1   -0.545189   -0.434718   -0.357728    11.00000    0.02913    0.02432 =
         0.00979    0.00010   -0.00219    0.01393
C2    1   -0.484615   -0.397097   -0.399667    11.00000    0.02539    0.02635 =
         0.01069   -0.00223   -0.00180    0.01233

PART -1
AFIX  66
C9A   1   -0.735458   -0.518698    0.114438    10.33333    0.09712
AFIX  43
H9A   2   -0.718003   -0.496365    0.189317    10.33333    0.09712
AFIX  65
C10A  1   -0.723886   -0.492497   -0.009348    10.33333    0.09712
C12A  1   -0.749976   -0.525875   -0.121263    10.33333    0.09712
AFIX  43
H12A  2   -0.742233   -0.508345   -0.204084    10.33333    0.09712
AFIX  65
C13A  1   -0.787637   -0.585454   -0.109393    10.33333    0.09712
C15A  1   -0.799210   -0.611656    0.014392    10.33333    0.09712
AFIX  43
H15A  2   -0.824409   -0.651518    0.022333    10.33333    0.09712
AFIX  65
C8A   1   -0.773121   -0.578278    0.126308    10.33333    0.09712
AFIX   0
C11A  1   -0.686549   -0.433628   -0.018156    10.33333    0.09712
AFIX  33
H11A  2   -0.682765   -0.421753   -0.108967    10.33333    0.09712
H11B  2   -0.701651   -0.413533    0.032560    10.33333    0.09712
H11C  2   -0.649102   -0.424397    0.015774    10.33333    0.09712
AFIX   0
C14A  1   -0.814513   -0.620624   -0.212745    10.33333    0.09712
AFIX  33
H14A  2   -0.838338   -0.659844   -0.181954    10.33333    0.09712
H14B  2   -0.838473   -0.608142   -0.256654    10.33333    0.09712
H14C  2   -0.785923   -0.619005   -0.273438    10.33333    0.09712
AFIX   0
C7A   1   -0.784539   -0.604039    0.247084    10.33333    0.09712
AFIX  33
H7AA  2   -0.763285   -0.575214    0.313398    10.33333    0.09712
H7AB  2   -0.825476   -0.622123    0.265005    10.33333    0.09712
H7AC  2   -0.772927   -0.632988    0.248221    10.33333    0.09712
AFIX  66
PART 0
PART -2
C15B  1   -0.788334   -0.519080   -0.402074    10.25000    0.11568
AFIX  43
H15B  2   -0.809368   -0.539596   -0.476111    10.25000    0.11568
AFIX  65
C13B  1   -0.788089   -0.548893   -0.289309    10.25000    0.11568
C12B  1   -0.756650   -0.518228   -0.178652    10.25000    0.11568
AFIX  43
H12B  2   -0.756486   -0.538176   -0.103205    10.25000    0.11568
AFIX  65
C10B  1   -0.725456   -0.457751   -0.180759    10.25000    0.11568
C9B   1   -0.725701   -0.427937   -0.293523    10.25000    0.11568
AFIX  43
H9B   2   -0.704830   -0.387474   -0.294931    10.25000    0.11568
AFIX  65
C8B   1   -0.757139   -0.458601   -0.404180    10.25000    0.11568
AFIX   0
C7B   1   -0.756150   -0.427660   -0.512318    10.25000    0.11568
AFIX  33
H7BA  2   -0.779455   -0.453950   -0.581095    10.25000    0.11568
H7BB  2   -0.771497   -0.402831   -0.489424    10.25000    0.11568
H7BC  2   -0.716801   -0.404360   -0.542768    10.25000    0.11568
AFIX   0
C11B  1   -0.694212   -0.426338   -0.074281    10.25000    0.11568
AFIX  33
H11D  2   -0.697928   -0.452330   -0.004078    10.25000    0.11568
H11E  2   -0.653982   -0.403025   -0.098490    10.25000    0.11568
H11F  2   -0.708678   -0.401496   -0.045144    10.25000    0.11568
AFIX   0
C14B  1   -0.819184   -0.608306   -0.290470    10.25000    0.11568
AFIX  33
H14D  2   -0.815081   -0.622911   -0.206741    10.25000    0.11568
H14E  2   -0.859514   -0.621121   -0.306071    10.25000    0.11568
H14F  2   -0.804817   -0.622649   -0.359416    10.25000    0.11568
AFIX   0
HKLF 4

REM  YY_ZnGlyPyr_Mesitylene_100K_0-77 in R3c
REM R1 =  0.0446 for    2697 Fo > 4sig(Fo)  and  0.0470 for all    2824 data
REM    150 parameters refined using     87 restraints

END

WGHT      0.0839     20.0522

REM Highest difference peak  0.752,  deepest hole -0.374,  1-sigma level  0.106
Q1    1  -0.7991 -0.6086 -0.0673  11.00000  0.05    0.75
Q2    1  -0.3186 -0.2889 -0.6749  11.00000  0.05    0.69
Q3    1  -0.3520 -0.3551 -0.6810  11.00000  0.05    0.61
Q4    1  -0.3194 -0.3260 -0.6676  11.00000  0.05    0.59
Q5    1  -0.7791 -0.5660  0.3343  11.00000  0.05    0.58
Q6    1  -0.7878 -0.5266 -0.4649  11.00000  0.05    0.55
Q7    1  -0.7475 -0.4161 -0.3297  11.00000  0.05    0.52
Q8    1  -0.7683 -0.5105 -0.1973  11.00000  0.05    0.46
Q9    1  -0.3919 -0.3568 -0.6748  11.00000  0.05    0.45
Q10   1  -0.3844 -0.3248 -0.6754  11.00000  0.05    0.45
Q11   1  -0.7776 -0.5879  0.0423  11.00000  0.05    0.44
Q12   1  -0.3510 -0.2902 -0.6789  11.00000  0.05    0.43
Q13   1  -0.7673 -0.4842 -0.4398  11.00000  0.05    0.40
Q14   1  -0.7295 -0.4426 -0.2692  11.00000  0.05    0.40
Q15   1  -0.7382 -0.5240  0.1673  11.00000  0.05    0.39
Q16   1  -0.5160 -0.4266 -0.2255  11.00000  0.05    0.39
Q17   1  -0.7359 -0.4332 -0.2095  11.00000  0.05    0.36
Q18   1  -0.6476 -0.5345 -0.4115  11.00000  0.05    0.36
Q19   1  -0.8319 -0.6255 -0.3616  11.00000  0.05    0.36
Q20   1  -0.7566 -0.4663 -0.3451  11.00000  0.05    0.36
;
_shelx_res_checksum              64820
_shelx_hkl_file
;
   0   0   3 567.985 608.256   1
   0   0   6 338663. 4670.54   1
   0   0   6 358260. 4067.03   2
   0   0   9 102.612 876.539   2
   0   0   9-361.442 899.114   3
   0   0   9-669.237 1137.56   1
   0   0  12 95020.4 3054.22   2
   0   0  12 96997.6 3608.18   1
   1  -1  -1-105.785 200.846   3
  -1   0  -1-18.5948 205.963   1
   1  -1   2 85503.8 1458.07   1
  -1   0   2 83394.6 1246.86   2
   0   1   2 84562.3 1264.03   1
  -1   0   5-462.770 634.575   2
   1  -1   5-30.8118 593.423   2
  -1   0   5-617.378 921.764   1
  -1   0   5-95.0023 255.533   4
   0   1   5 26.7905 216.329   4
   0   1   5-1.24606 864.011   1
   1  -1   5 711.092 981.048   1
  -1   0   8 3020.27 207.664   4
  -1   0   8 5107.00 941.126   2
   1  -1   8 3027.43 1154.40   1
  -1   0   8 3507.89 889.529   3
   1  -1   8 4406.61 867.131   2
   0   1   8 2794.67 1094.88   1
   0   1   8 3370.79 951.932   3
   0   1   8 3445.10 934.506   2
  -1   0   8 4964.50 1240.12   1
   0   1  11-729.516 1015.27   2
   1  -1  11 1495.43 1363.00   1
  -1   0  11 813.723 1047.91   3
  -1   0  11 31.0784 946.088   2
   0   1  11-499.214 1008.61   3
  -1   0  11 458.796 1401.90   1
   1  -1  11-351.393 1034.78   3
   1  -1  11-457.445 946.120   2
   0   1  11-190.860 1200.35   1
   1   0  -2 82450.6 846.761   4
  -1   1  -2 89448.9 1509.85   1
  -1   1   1-63.3291 174.535   3
   1   0   1 146.352 197.188   1
   1   0   4 17171.8 1054.88   1
   0  -1   4 18044.4 1201.47   1
   0  -1   4 16655.4 835.234   2
  -1   1   4 17566.9 518.534   4
  -1   1   4 17742.2 1071.09   1
   0  -1   4 16776.8 402.427   4
   0  -1   7 55.8998 1008.13   1
  -1   1   7 77.8042 974.930   1
   0  -1   7 651.626 665.357   2
   1   0   7-199.812 887.300   1
   1   0   7 329.369 676.058   2
  -1   1   7-153.722 654.087   3
  -1   1   7-398.346 719.447   2
  -1   1   7-179.889 209.710   4
   0  -1  10-313.471 1310.34   1
  -1   1  10 196.975 1073.73   2
  -1   1  10 1611.48 917.483   3
   1   0  10 2237.33 1108.62   3
   1   0  10 1017.84 1159.48   1
   1   0  10 1263.00 956.304   2
   0  -1  10 1182.53 975.466   3
   0  -1  10 983.446 853.323   2
  -1   1  10-127.673 1260.53   1
  -1   1  13-446.854 1359.96   1
  -1   1  13 182.849 1112.59   3
   1   0  13 1596.34 1213.95   3
   0  -1  13 729.222 1499.21   1
   0  -1  13-416.081 1106.86   3
   1   0  13-560.896 1430.15   1
   0   2  -5-16.3647 216.516   4
   0   2  -2 49348.2 685.931   4
   0   2  -2 50298.3 868.849   2
   2  -2  -2 50174.5 952.779   3
  -2   0   1 142.285 245.910   2
   0   2   1 186.634 238.468   3
  -2   0   1-71.2740 214.376   4
   2  -2   1 140.984 290.688   1
   0   2   1-117.804 206.422   4
  -2   0   4 25419.3 694.288   4
   2  -2   4 26891.3 889.695   2
  -2   0   4 25201.4 1048.69   2
   0   2   4 26640.3 1078.26   1
   2  -2   4 25514.2 1262.18   1
   0   2   4 26337.6 1182.32   3
  -2   0   7-123.492 1067.21   1
   0   2   7 111.534 736.857   3
   0   2   7-189.765 791.769   1
  -2   0   7 338.558 626.352   3
   2  -2   7 464.960 610.727   2
   2  -2   7-270.630 905.044   1
   0   2   7 221.041 190.323   4
  -2   0   7-13.1638 295.693   4
  -2   0   7 96.7536 686.045   2
   0   2   7-85.9855 183.130   4
  -2   0  10 9124.54 1106.21   2
   0   2  10 9677.69 1365.76   2
   0   2  10 7745.30 1287.50   3
   2  -2  10 10787.3 1563.93   1
   2  -2  10 8056.55 1052.73   2
   0   2  10 8274.65 1399.39   1
   2  -2  10 8388.73 1296.37   3
  -2   0  10 9592.42 1721.98   1
  -2   0  10 8413.72 1164.20   3
  -2   0  13 255.012 1519.73   1
   0   2  13-666.255 1187.94   3
  -2   0  13 870.449 1096.24   3
   2  -2  13 246.345 1186.75   3
   2  -2  13-605.579 1432.00   1
   0   2  13 1232.63 1282.74   1
  -2   1  -3 332813. 3387.23   1
  -1  -1  -3 329923. 3063.96   1
   1  -2   3 322328. 2338.36   2
   2  -1   3 314680. 3091.17   1
  -2   1   3 298956. 2035.92   4
   1   1   3 302000. 1491.70   4
   1   1   3 312689. 2792.69   1
  -1  -1   3 305810. 1861.42   4
  -2   1   3 307790. 2983.21   2
  -1   2   3 319497. 2951.18   3
  -1   2   3 319192. 2935.21   1
   1  -2   3 319184. 3473.48   1
  -1  -1   3 321619. 2721.61   2
  -2   1   6 98026.5 2259.45   3
   2  -1   6 98775.7 2069.50   2
  -2   1   6 97728.8 2715.57   1
   1  -2   6 101572. 2033.68   2
  -1   2   6 96995.5 2370.31   3
  -1   2   6 96420.4 1308.74   4
  -1  -1   6 105647. 2243.90   2
  -1  -1   6 95950.6 1199.23   4
   1  -2   6 101882. 2760.78   1
  -2   1   6 98688.4 2305.45   2
   1   1   6 93070.1 2359.00   3
  -1  -1   6 106742. 2919.12   1
   1   1   6 102203. 2447.19   1
  -1   2   6 103378. 2598.37   1
   2  -1   6 99685.1 2584.25   1
  -2   1   6 97912.5 1387.02   4
   2  -1   9 84053.6 2400.76   2
  -1  -1   9 80086.9 2351.99   2
  -1   2   9 73990.8 2455.16   3
  -1  -1   9 75255.1 2483.75   3
  -2   1   9 80204.1 2585.35   3
   1  -2   9 84220.2 3131.29   1
  -1   2   9 87990.0 2935.41   1
  -2   1   9 84742.3 2653.24   2
   1   1   9 73957.1 2632.57   3
  -1   2   9 79049.8 2638.83   2
   1  -2   9 82348.4 2267.62   2
   2  -1   9 81521.4 2876.11   1
   2  -1   9 69870.4 2595.74   3
  -2   1   9 81417.4 3044.73   1
  -1  -1   9 87249.9 3183.83   1
   1   1   9 79541.0 2705.43   1
   1   1   9 79956.1 2531.40   2
  -1  -1  12 15818.8 1622.96   3
  -1  -1  12 19209.0 2228.81   1
  -1   2  12 18599.3 1646.00   3
   1   1  12 16864.9 1732.97   3
   1  -2  12 18591.3 2063.02   1
  -1   2  12 18136.4 1761.38   2
   1   1  12 15879.5 1726.27   1
  -1  -1  12 18193.0 1550.25   2
   1  -2  12 15749.0 1692.49   3
   2  -1  12 15919.4 1819.10   1
  -2   1  12 19707.8 2072.47   1
  -2   1  12 16208.7 1523.32   3
   2  -1  12 14528.0 1692.77   3
   1   1  12 18529.4 1707.45   2
  -2   1  12 18569.8 1635.50   2
  -1   2  12 14126.4 1699.50   1
   2   0  -4 27276.8 723.647   4
  -2   2  -4 25302.9 1323.60   1
   2   0  -1-84.3103 243.522   2
   0  -2  -1 44.6981 260.199   3
  -2   2  -1-219.971 325.266   1
   2   0  -1 159.382 210.989   4
  -2   2   2 54720.2 923.570   3
   0  -2   2 56559.5 727.806   4
   0  -2   2 54722.3 842.739   2
   2   0   2 55427.3 1031.11   1
   2   0   5-245.132 818.175   1
   0  -2   5 875.564 1013.30   1
   0  -2   5 655.983 555.061   2
  -2   2   5 200.760 335.614   4
  -2   2   5-519.448 845.956   1
   0  -2   5 341.615 237.204   4
  -2   2   5-542.926 617.208   3
  -2   2   5 261.166 641.131   2
  -2   2   8 24987.9 755.650   4
   2   0   8 25103.1 1585.36   3
   0  -2   8 24160.1 1267.51   2
   2   0   8 23964.4 1358.92   2
  -2   2   8 26156.3 1815.15   1
   2   0   8 26324.9 1645.32   1
  -2   2   8 25364.8 1524.31   2
  -2   2   8 26452.5 1477.40   3
   0  -2   8 25384.7 1908.84   1
  -2   2  11-58.0660 1253.87   1
   2   0  11-895.082 1203.44   1
   0  -2  11 7.50148 939.742   2
  -2   2  11 552.948 1007.01   2
   0  -2  11 999.142 1462.00   1
   2   0  11 1127.21 1140.94   3
   0  -2  11 850.132 1025.38   3
  -2   2  11-153.796 951.929   3
   2   0  11-1044.95 989.878   2
   0   3  -6 438230. 2486.37   4
  -3   0  -3 147.754 175.018   4
  -3   0  -3 24.2008 547.888   1
   0   3  -3 500.569 386.892   2
   0   3  -3 166.849 283.485   4
   3  -3  -3 331.928 460.244   3
   0   3   0 352857. 1947.94   2
  -3   0   0 348858. 2093.59   4
   3  -3   3 23.6648 260.634   2
  -3   0   3 51.2033 486.546   2
   0   3   3 268.463 539.180   3
   3  -3   3 3.16173 648.810   1
  -3   0   3-17.5824 345.437   4
   0   3   3 186.022 309.151   4
   0   3   3 129.383 415.346   1
   0   3   6 277437. 4079.20   3
  -3   0   6 295316. 4794.06   1
   0   3   6 278561. 3760.25   1
   0   3   6 279471. 2262.09   4
  -3   0   6 278824. 3821.64   2
   3  -3   6 283244. 4367.93   1
   0   3   6 274436. 2221.12   4
   3  -3   6 298515. 3164.17   2
  -3   0   6 278734. 2576.53   4
  -3   0   9-434.418 786.446   2
   0   3   9 865.594 920.613   3
   0   3   9 500.784 938.839   2
  -3   0   9 171.812 323.799   4
  -3   0   9 1082.76 1436.46   1
   3  -3   9-255.411 1141.45   1
   0   3   9-353.498 975.677   1
   3  -3   9-39.2448 666.664   2
  -3   0   9-424.468 842.511   3
  -3   0  12 62961.5 2625.06   2
  -3   0  12 57653.4 2479.92   3
   0   3  12 58206.8 2610.23   1
  -3   0  12 59766.7 3309.52   1
   0   3  12 63588.7 2880.73   2
   3  -3  12 58804.5 2872.97   3
   3  -3  12 60959.4 3027.02   1
   0   3  12 56476.7 2566.88   3
  -1   3  -4 3825.56 270.446   4
   1   2  -4 4177.02 378.662   4
  -2  -1  -4 4544.08 780.559   1
  -3   1  -4 4729.52 844.061   1
  -2  -1  -1 47516.9 777.436   2
   3  -2  -1 47593.0 851.824   4
   3  -2  -1 47315.4 779.626   1
  -2  -1  -1 47497.0 604.453   1
  -3   1  -1 47045.3 535.503   2
   1   2  -1 46400.5 617.733   3
   3  -2  -1 47090.7 519.572   3
  -1   3  -1 47454.6 829.703   3
  -2  -1  -1 44013.0 684.519   4
  -3   1  -1 45496.5 645.810   4
  -1   3  -1 44208.0 1018.45   1
   1   2  -1 43420.4 739.971   4
  -1   3  -1 46340.8 711.261   4
   1   2  -1 48570.0 738.563   2
   2  -3  -1 47415.8 701.271   3
  -3   1  -1 45449.5 763.849   1
  -1   3  -1 48267.7 547.560   2
  -1   3   2 93862.4 1356.19   3
  -3   1   2 94023.8 1542.95   2
  -2  -1   2 89416.9 1311.06   2
   1   2   2 90768.0 1037.40   4
   2  -3   2 96208.8 1726.86   1
  -3   1   2 93320.0 1047.79   3
  -2  -1   2 90197.1 1157.17   4
   1   2   2 96012.8 1583.43   3
  -3   1   2 91834.0 1201.37   4
   3  -2   2 93773.8 1511.09   1
   1   2   2 93995.7 1074.96   1
  -2  -1   5 976.043 598.208   2
  -1   3   5 1095.21 699.558   3
  -2  -1   5 292.471 1003.50   1
   1   2   5 1085.49 259.631   4
  -1   3   5 778.565 369.916   4
   2  -3   5 1640.76 986.104   1
  -3   1   5 1165.79 651.383   2
  -1   3   5 1070.60 853.591   1
   1   2   5 1042.19 786.352   3
   3  -2   5 1297.41 862.552   1
  -3   1   5 1396.48 402.783   4
   2  -3   5 847.292 516.117   2
   1   2   5 1469.66 717.216   1
  -2  -1   5 1139.01 393.983   4
  -3   1   5 843.577 579.176   3
   3  -2   8 792.060 685.160   2
  -1   3   8 576.921 812.093   3
  -3   1   8 1584.86 756.578   3
   1   2   8 878.974 920.509   1
  -2  -1   8 685.322 316.108   4
  -2  -1   8 797.726 696.053   2
   2  -3   8 110.893 1092.59   1
  -3   1   8 1377.19 876.809   2
  -1   3   8 932.628 878.690   2
   1   2   8 505.708 894.204   3
  -1   3   8 810.120 949.762   1
   3  -2   8 1786.71 1079.93   1
  -2  -1   8 690.037 1269.32   1
  -1   3   8 382.578 286.154   4
  -3   1   8 786.572 1190.07   1
   2  -3   8 750.917 680.264   2
  -3   1   8 985.157 391.070   4
  -1   3   8 657.178 271.508   4
   1   2  11 1961.40 1109.45   3
  -1   3  11 197.318 953.852   3
   2  -3  11-263.042 1138.39   3
   3  -2  11-156.203 899.051   2
   3  -2  11 336.915 1225.25   1
  -1   3  11-783.376 1085.08   1
   3  -2  11 655.562 1120.87   3
  -2  -1  11 28.1601 1444.52   1
  -3   1  11 157.164 898.453   3
  -3   1  11 1636.09 937.277   2
  -2  -1  11-621.390 941.996   2
   1   2  11 166.993 1108.14   2
  -3   1  11-1057.89 1322.79   1
   2  -3  11-19.9665 840.328   2
  -2  -1  11 398.839 954.488   3
   2  -3  11 1496.04 1365.52   1
  -1   3  11 538.256 1109.15   2
   1   2  11 1239.70 1129.91   1
   2   1  -5 758.209 345.650   4
  -3   2  -5 873.502 868.076   1
  -3   2  -2 103998. 1660.69   1
   3  -1  -2 97918.6 1589.54   2
   2   1  -2 99601.9 1435.14   2
  -2   3  -2 97746.4 890.628   4
  -1  -2  -2 103009. 1228.78   1
  -2   3  -2 101438. 1827.24   1
   3  -1  -2 92961.5 1261.68   4
   2   1  -2 98293.0 1200.03   4
   1  -3  -2 101121. 1463.82   3
   1  -3   1 47709.8 554.494   2
   2   1   1 44915.6 919.496   3
  -2   3   1 47916.1 690.989   3
   1  -3   1 48077.2 1055.81   1
   2   1   1 49229.4 600.876   1
   2   1   1 45056.7 693.651   4
   3  -1   1 46182.1 753.230   1
  -3   2   1 48527.7 771.288   1
   3  -1   1 45566.5 662.476   4
   1  -3   1 46883.1 785.270   3
  -3   2   1 45307.5 941.145   2
   2   1   1 47062.7 760.238   2
  -3   2   1 44807.4 823.298   4
  -1  -2   1 46147.3 767.352   4
  -1  -2   1 46410.6 708.584   2
   3  -1   1 47413.7 534.732   2
   1  -3   1 46618.9 730.908   4
  -3   2   1 48141.4 503.799   3
  -1  -2   1 47881.9 590.626   3
   1  -3   4 3779.78 973.543   1
  -2   3   4 3511.66 577.372   3
   1  -3   4 3250.95 285.494   4
   1  -3   4 3424.67 478.775   2
   2   1   4 3541.46 656.299   1
  -3   2   4 3719.87 579.001   3
  -3   2   4 3357.59 424.919   4
  -1  -2   4 3289.19 896.543   1
   2   1   4 3171.98 238.491   4
  -2   3   4 3463.56 398.705   4
  -3   2   4 3423.59 695.413   2
   3  -1   4 3415.14 732.051   1
  -1  -2   4 3387.89 361.648   4
  -1  -2   4 3923.63 536.004   2
  -1  -2   7 62363.3 2555.24   1
  -2   3   7 56674.7 2046.23   2
  -1  -2   7 57328.7 1718.97   2
   2   1   7 55494.7 2068.76   3
   3  -1   7 59994.0 1775.55   2
   1  -3   7 55843.2 1574.84   2
  -1  -2   7 59212.7 992.294   4
  -3   2   7 58170.1 2010.46   2
   3  -1   7 58983.7 2106.72   1
  -2   3   7 62159.4 2258.66   1
  -3   2   7 56782.5 1848.58   3
  -3   2   7 57821.0 1260.88   4
   2   1   7 53630.7 1920.83   1
  -2   3   7 60138.2 1217.27   4
  -3   2   7 62607.3 2449.75   1
   1  -3   7 57705.9 2362.07   1
  -2   3   7 55076.6 1872.55   3
  -2   3  10 698.193 978.575   2
   2   1  10 855.862 922.534   2
   2   1  10 621.060 1060.43   3
   1  -3  10-286.998 760.731   2
  -1  -2  10 212.455 903.992   3
   3  -1  10 249.345 903.776   2
  -1  -2  10 674.652 1374.77   1
  -3   2  10-402.724 1229.71   1
   3  -1  10 650.952 1102.91   3
   1  -3  10 253.069 1280.43   1
   2   1  10 1649.42 1052.30   1
  -1  -2  10-169.508 823.285   2
  -2   3  10-160.941 1159.87   1
  -3   2  10-240.540 945.951   2
   3  -1  10 646.980 1125.06   1
  -2   3  10 768.206 907.429   3
  -3   2  10-41.6030 835.597   3
   3  -1  13 15081.0 1840.14   1
   2   1  13 13260.8 1599.58   1
  -2   3  13 12343.8 1759.38   1
  -3   2  13 11772.9 1456.42   3
  -1  -2  13 12659.3 2164.76   1
  -2   3  13 15696.2 1766.63   2
  -1  -2  13 14973.2 1675.23   3
  -3   2  13 13948.3 1983.76   1
   1  -3  13 14378.2 1770.40   3
   2   1  13 13639.5 1756.45   3
  -3   2  13 15288.9 1714.01   2
  -2   3  13 16116.1 1621.00   3
   3  -1  13 15203.7 1885.52   3
   1  -3  13 17243.2 2176.86   1
   3   0  -3 196.054 343.435   4
  -3   3  -3-85.0176 669.874   1
   3   0  -3-776.558 566.284   2
   0  -3   0 384045. 2103.94   2
   3   0   0 383858. 2183.79   4
   0  -3   0 377082. 2170.44   4
  -3   3   3 253.446 368.176   4
   0  -3   3-56.3037 328.827   2
   3   0   3 61.2085 171.090   4
  -3   3   3-120.203 386.933   3
   0  -3   3 792.731 784.793   1
   3   0   3 142.650 488.777   1
   3   0   3-243.868 391.669   2
   0  -3   3 456.270 311.796   4
   0  -3   6 477710. 6244.21   1
   0  -3   6 452401. 4046.27   2
  -3   3   6 442153. 5073.02   2
  -3   3   6 461544. 4604.34   3
   0  -3   6 465499. 2561.40   4
  -3   3   6 483928. 5633.84   1
   3   0   6 446566. 4808.53   1
  -3   3   6 463846. 3449.89   4
  -3   3   9-699.783 1138.63   1
   3   0   9-17.4687 1001.86   3
   0  -3   9-251.800 723.935   2
   3   0   9-590.413 1012.46   1
   3   0   9 462.760 832.908   2
  -3   3   9 786.206 841.088   3
  -3   3   9-705.899 885.066   2
   0  -3   9 265.261 1310.79   1
  -3   3   9 52.3365 370.841   4
   0  -3  12 56045.9 3133.74   1
   0  -3  12 49928.3 2501.00   3
   3   0  12 48544.7 2581.01   3
  -3   3  12 48221.9 2300.22   3
  -3   3  12 48496.5 2777.99   1
  -3   3  12 54258.0 2664.57   2
   3   0  12 50718.1 2573.53   1
   0   4  -7 90.9894 239.742   4
  -4   0  -4 20795.1 1106.52   1
   0   4  -4 19428.7 650.899   4
   0   4  -4 20138.8 879.193   2
  -4   0  -4 18729.5 457.679   4
  -4   0  -1-84.0912 272.388   2
   4  -4  -1-1.68974 272.929   3
   0   4  -1 76.5061 277.374   2
  -4   0  -1 304.049 333.632   4
  -4   0  -1 37.5537 296.324   1
   4  -4  -1 57.4237 297.396   1
   0   4  -1 235.676 362.511   4
   0   4  -1-253.632 328.253   3
   4  -4   2 95066.6 1706.55   1
   0   4   2 96441.3 1334.26   4
   0   4   2 96727.8 1516.80   3
  -4   0   2 95219.4 1566.15   2
  -4   0   2 90584.9 1420.87   4
   4  -4   5 70.8774 870.461   1
  -4   0   5 323.520 423.670   4
   0   4   5-88.4617 740.541   3
   0   4   5 259.053 600.343   1
   0   4   5 117.510 373.165   4
   4  -4   5-109.110 410.015   2
  -4   0   5-427.370 645.916   2
   4  -4   8 85744.6 1871.62   2
   4  -4   8 84993.0 2841.03   1
  -4   0   8 86807.6 2340.27   3
  -4   0   8 82621.4 2367.31   2
   0   4   8 84506.5 1336.81   4
   0   4   8 85935.5 2595.01   3
   0   4   8 85188.4 2402.15   1
  -4   0   8 89646.7 3260.01   1
   0   4   8 82296.4 1285.92   4
  -4   0   8 83463.5 1631.46   4
   4  -4  11 93.0516 738.080   2
   0   4  11 701.948 1077.15   2
  -4   0  11-586.749 1492.14   1
  -4   0  11 616.412 996.754   2
   0   4  11 692.858 1067.79   3
   4  -4  11-1301.49 1397.61   1
  -4   0  11 222.290 909.175   3
   0   4  11-165.881 1016.58   1
   1   3  -5 37572.9 895.599   4
  -4   1  -5 42785.7 1744.21   1
  -3  -1  -5 42764.4 1617.17   1
  -1   4  -5 37200.1 734.726   4
  -3  -1  -2 20973.6 768.866   2
  -4   1  -2 18921.7 505.693   4
   4  -3  -2 20214.5 580.038   3
   1   3  -2 20065.3 643.569   2
  -4   1  -2 20789.8 765.818   1
   1   3  -2 18796.3 618.504   4
  -3  -1  -2 19924.2 658.747   1
  -1   4  -2 19493.9 596.406   4
  -1   4  -2 20295.6 526.581   2
  -1   4  -2 20907.5 831.591   3
   3  -4  -2 21103.6 692.977   3
  -3  -1  -2 19450.5 554.464   4
  -4   1  -2 20944.8 590.480   2
  -3  -1   1 11750.1 569.450   4
  -4   1   1 10408.4 543.559   4
   3  -4   1 11178.1 586.591   3
   1   3   1 10699.6 541.095   3
  -4   1   1 11509.2 601.300   2
   3  -4   1 11003.2 647.470   1
   1   3   1 10693.6 541.368   4
   4  -3   1 10953.0 547.056   1
  -4   1   1 11034.9 576.082   1
  -1   4   1 11151.2 493.168   3
  -3  -1   1 11016.4 532.513   2
   4  -3   1 10194.6 629.054   3
   1   3   1 11813.6 607.404   2
  -1   4   4 7827.93 793.131   3
   1   3   4 7448.08 474.790   4
  -3  -1   4 7248.34 552.449   4
  -1   4   4 6876.37 732.319   1
  -3  -1   4 6569.74 673.185   2
   1   3   4 8349.04 703.327   1
  -4   1   4 7599.24 651.786   3
   3  -4   4 8381.94 1029.96   1
  -4   1   4 7328.82 823.284   2
   4  -3   4 6586.24 879.778   1
   1   3   4 7307.32 860.102   3
   3  -4   4 7902.03 469.486   2
  -4   1   4 7222.92 566.294   4
   1   3   7 11536.6 1145.82   3
   3  -4   7 12419.8 774.000   2
  -1   4   7 13398.1 1138.30   1
  -4   1   7 12823.3 1028.21   3
   4  -3   7 12630.4 1220.03   1
  -3  -1   7 12351.4 1003.40   2
   1   3   7 12118.4 1067.07   1
  -1   4   7 11304.1 618.362   4
   4  -3   7 12297.7 883.673   2
  -4   1   7 12818.3 732.761   4
   1   3   7 11685.3 472.350   4
  -3  -1   7 12018.0 1572.81   1
  -1   4   7 12281.3 659.403   4
  -4   1   7 12449.8 1099.63   2
   1   3   7 11663.6 505.344   4
   3  -4   7 13233.8 1409.62   1
  -3  -1   7 11905.9 669.198   4
  -4   1   7 11851.8 1408.50   1
  -1   4   7 13114.6 1144.80   3
  -1   4  10 14606.8 1373.91   3
   3  -4  10 17780.9 1163.42   2
  -1   4  10 17428.4 1537.44   1
  -3  -1  10 17258.1 2029.91   1
   3  -4  10 19685.0 1849.48   1
  -4   1  10 15890.6 1977.44   1
   1   3  10 14978.8 1499.78   2
   1   3  10 16500.5 1501.25   1
  -3  -1  10 15871.3 1412.74   3
   4  -3  10 18083.2 1691.93   1
  -3  -1  10 15530.6 1345.17   2
   1   3  10 15225.5 1507.47   3
  -4   1  10 16484.4 1407.97   2
   4  -3  10 18194.7 1263.07   2
  -4   1  10 17474.6 1392.49   3
  -1   4  10 15216.1 1552.79   2
   1   3  13 8782.14 1488.77   1
   3  -4  13 6710.04 1523.62   3
   3  -4  13 9485.90 1892.80   1
  -1   4  13 6712.91 1511.03   2
   1   3  13 7284.66 1513.63   3
  -3  -1  13 6432.97 1291.90   3
  -3  -1  13 10817.2 2101.33   1
  -1   4  13 7570.02 1426.63   1
  -4   1  13 9075.67 1452.07   2
  -4   1  13 6310.41 1211.97   3
   4  -3  13 7172.69 1667.67   3
  -4   1  13 6468.76 1910.86   1
   4  -3  13 6689.98 1623.20   1
  -1   4  13 6794.89 1424.87   3
   2   2  -6 59263.3 1170.33   4
  -4   2  -6 60631.2 2257.28   1
  -2   4  -3 315749. 2093.01   2
   2  -4  -3 319540. 3105.47   3
   4  -2  -3 316867. 2665.72   4
  -2  -2  -3 317669. 2801.58   1
   2   2  -3 317260. 2942.23   2
   2   2  -3 312995. 2380.82   4
  -4   2  -3 320702. 3386.25   1
  -2   4  -3 326666. 3879.86   1
  -2   4  -3 317547. 1857.17   4
  -2  -2   0 299925. 1868.46   2
   2   2   0 311279. 2102.80   4
   4  -2   0 312247. 1810.22   3
   2  -4   0 297598. 1732.47   1
  -4   2   0 308710. 2113.51   4
  -2  -2   0 308988. 1653.48   3
  -4   2   0 311297. 1842.41   1
   2   2   0 306138. 1866.89   2
   4  -2   0 308186. 2122.69   4
  -4   2   0 301758. 1853.08   2
   4  -2   0 304877. 1940.62   2
   4  -2   0 310058. 1836.39   1
  -2  -2   0 312410. 2097.58   4
  -2   4   0 305521. 1838.46   1
   2   2   0 308177. 1582.51   3
  -2   4   0 309576. 1842.44   3
  -4   2   3 271543. 2464.49   4
   4  -2   3 308885. 2030.62   2
  -2  -2   3 284495. 2238.98   4
   2  -4   3 300040. 1834.62   2
   2   2   3 294736. 3264.85   3
   2   2   3 287641. 2892.10   2
   4  -2   3 288966. 2981.54   1
  -4   2   3 280125. 3183.37   2
  -2   4   3 286001. 2696.73   3
   2   2   3 293707. 1975.86   4
  -4   2   3 283383. 2222.74   3
   2  -4   3 284779. 3494.52   1
   2   2   3 298080. 2410.88   1
  -2  -2   3 280407. 2598.96   2
  -2  -2   6 57538.5 1641.95   2
  -2  -2   6 60451.3 2421.09   1
   2   2   6 54274.0 797.021   4
  -4   2   6 58489.4 1665.00   3
   2  -4   6 58244.1 2234.51   1
   2   2   6 53651.0 827.902   4
   2   2   6 57064.9 1725.52   1
   4  -2   6 53756.1 1902.17   1
   2  -4   6 59153.4 1380.01   2
  -2   4   6 56384.0 1249.33   4
  -4   2   6 55769.4 1313.36   4
  -4   2   6 59660.7 1942.82   2
  -2   4   6 59190.3 1962.29   1
  -2   4   6 60517.7 1815.09   3
  -2  -2   6 57762.0 1144.33   4
   2   2   6 56357.4 1991.27   3
  -4   2   9 81002.6 1570.05   4
  -2   4   9 76669.6 2680.92   2
   4  -2   9 75784.1 2758.27   1
   2   2   9 75496.0 2434.31   1
  -2  -2   9 78018.5 2309.56   2
  -2  -2   9 82636.3 3357.43   1
   4  -2   9 83390.8 2289.60   2
  -2   4   9 77875.2 2712.73   1
  -2  -2   9 70504.9 2393.08   3
  -4   2   9 82035.6 3302.32   1
  -4   2   9 70148.1 2283.82   3
  -2   4   9 75811.8 2445.79   3
  -2   4   9 70349.4 1270.93   4
   2   2   9 80650.3 2599.44   2
   2  -4   9 79913.9 2069.17   2
  -4   2   9 82596.4 2742.55   2
   2  -4   9 84562.1 3225.65   1
   2   2   9 79616.2 2805.47   3
  -2   4   9 72683.2 1334.42   4
   2   2  12 15518.1 1699.25   2
  -4   2  12 10445.8 1816.94   1
  -4   2  12 16144.4 1599.10   2
   4  -2  12 14465.3 1754.39   3
   2   2  12 14877.0 1632.90   3
  -2   4  12 14322.3 1683.10   2
   2  -4  12 17335.7 2006.44   1
   2  -4  12 14193.4 1747.13   3
   2   2  12 14037.1 1536.59   1
  -4   2  12 14995.6 1422.30   3
  -2  -2  12 15362.1 2151.19   1
  -2   4  12 14399.3 1560.15   3
  -2   4  12 17404.1 1770.09   1
  -2  -2  12 16902.5 1448.63   2
   4  -2  12 15455.5 1770.67   1
  -2  -2  12 16011.7 1642.13   3
   3   1  -4 11833.3 890.111   2
  -3   4  -4 10747.5 1107.53   1
  -4   3  -4 11851.6 1085.50   1
   4  -1  -4 9811.35 610.079   4
  -3   4  -4 10152.5 298.677   4
   3   1  -4 9262.98 588.995   4
  -1  -3  -1 12626.2 550.848   4
  -1  -3  -1 13856.5 664.871   2
   4  -1  -1 12230.7 570.158   4
  -3   4  -1 12343.1 650.525   3
   3   1  -1 12912.8 575.972   4
   1  -4  -1 12648.9 517.247   3
  -3   4  -1 12178.4 691.038   1
   4  -1  -1 12252.4 621.281   2
   3   1  -1 12831.8 558.566   2
  -1  -3  -1 12333.8 584.337   3
  -4   3  -1 12085.2 494.188   4
  -1  -3   2 17867.9 610.685   3
   4  -1   2 18012.8 497.999   4
   4  -1   2 18311.1 681.648   1
  -3   4   2 19125.0 626.801   3
   1  -4   2 18668.4 480.015   2
  -1  -3   2 17783.9 596.314   2
   3   1   2 18285.0 581.900   1
  -1  -3   2 18248.2 628.170   4
   1  -4   2 17672.0 578.469   4
  -4   3   2 16911.9 903.183   2
   4  -1   2 19114.3 494.358   2
   3   1   2 18087.4 669.558   2
  -4   3   2 17770.4 694.944   4
  -4   3   2 17481.3 502.046   3
   1  -4   2 18081.3 724.172   3
   3   1   2 17697.4 537.222   4
   1  -4   5 44056.6 2002.65   1
  -3   4   5 43626.1 1093.04   4
  -1  -3   5 42295.6 1955.63   1
   4  -1   5 42409.5 1505.75   1
  -1  -3   5 44163.2 1280.23   2
  -4   3   5 40435.7 1303.77   3
  -4   3   5 41024.4 1606.49   2
  -4   3   5 40708.7 1127.49   4
   1  -4   5 42000.6 1160.12   2
  -3   4   5 42456.8 1395.83   3
   1  -4   5 42429.5 779.715   4
   3   1   5 43441.9 1423.79   1
  -1  -3   5 43401.9 958.869   4
  -3   4   8 19846.5 1270.90   3
  -1  -3   8 20577.6 1932.11   1
   4  -1   8 20532.9 1290.61   2
   3   1   8 20932.9 1553.99   3
   1  -4   8 21452.0 1142.02   2
  -4   3   8 21175.3 921.704   4
   3   1   8 19871.3 1368.80   1
  -3   4   8 20074.1 876.940   4
  -3   4   8 21268.6 1517.77   2
  -4   3   8 20518.0 1446.40   2
  -1  -3   8 19425.8 1159.35   2
  -4   3   8 19924.4 1234.96   3
   1  -4   8 22463.9 1909.36   1
  -3   4   8 21333.2 1630.44   1
   4  -1   8 20635.1 1520.95   1
  -4   3   8 21710.7 1750.29   1
  -1  -3   8 17679.3 576.018   4
   1  -4  11 855.950 1425.43   1
   4  -1  11 49.4758 1153.81   3
  -1  -3  11 1352.96 1593.85   1
   3   1  11 227.689 1081.28   3
   1  -4  11 173.592 1016.30   3
  -3   4  11 1555.50 1267.11   1
  -4   3  11 1555.35 1036.58   2
  -3   4  11 1623.48 948.912   3
   4  -1  11 1781.59 1132.97   1
   3   1  11 826.095 1026.20   2
   4  -1  11 721.660 928.533   2
  -4   3  11 794.821 919.494   3
  -1  -3  11 1463.92 859.024   2
  -4   3  11-183.844 1387.50   1
  -3   4  11 1027.91 1132.73   2
   1  -4  11 1887.85 847.668   2
  -1  -3  11 1193.20 1041.20   3
   3   1  11 812.716 1056.82   1
   4   0  -5-66.7955 407.472   4
  -4   4  -5-170.000 911.417   1
   0  -4  -2 90501.5 1546.62   3
  -4   4  -2 90868.5 1722.08   1
   4   0  -2 88185.7 1389.77   4
   4   0  -2 91154.0 1579.42   2
   4   0   1-17.4484 328.057   4
  -4   4   1 185.463 290.517   3
   0  -4   1-173.153 393.496   4
   4   0   1-155.654 319.861   1
   4   0   1-2.80494 270.301   2
   0  -4   1 181.663 303.929   2
   0  -4   1 108.124 307.341   3
  -4   4   1-51.3176 277.718   1
   0  -4   4 25449.6 772.196   4
   0  -4   4 23644.6 816.506   2
  -4   4   4 25310.6 942.831   3
   4   0   4 25573.0 1066.35   1
   4   0   4 24950.9 937.872   2
   0  -4   4 22964.6 1512.36   1
   4   0   4 21779.0 482.805   4
  -4   4   4 24023.4 872.149   4
   0  -4   4 25485.9 1084.71   3
   0  -4   7 407.201 553.261   2
   4   0   7 663.080 771.235   1
   0  -4   7-1778.50 1245.86   1
  -4   4   7-535.308 762.641   2
   0  -4   7-67.8933 263.697   4
  -4   4   7 427.302 905.180   1
  -4   4   7 70.7039 465.867   4
  -4   4   7 99.7996 657.181   3
  -4   4  10 41636.6 2341.79   1
  -4   4  10 37727.5 1847.90   3
  -4   4  10 39876.8 2197.77   2
   4   0  10 41013.4 1978.39   2
   0  -4  10 41391.9 2708.21   1
  -4   4  10 38734.1 1117.89   4
   0  -4  10 39901.2 1663.71   2
   4   0  10 41558.8 2046.23   1
   4   0  10 38015.3 2214.78   3
   4   0  13 726.412 1272.60   3
   4   0  13 536.067 1182.48   1
   0  -4  13-537.046 1130.43   3
  -4   4  13-275.266 1363.99   1
  -4   4  13 1913.99 1262.13   2
   0  -4  13-748.227 1647.31   1
  -4   4  13-61.1517 1017.74   3
  -5   0  -5 402.828 751.992   1
   0   5  -5 2.21646 351.486   4
   0   5  -5 768.534 541.015   2
   0   5  -2 253583. 2304.61   4
  -5   0  -2 249882. 2109.19   2
  -5   0  -2 242458. 1996.07   4
   0   5  -2 258711. 2044.88   2
  -5   0  -2 254393. 2232.60   1
   0   5  -2 250104. 2373.07   3
   5  -5  -2 245059. 2001.35   3
   0   5   1 247.483 398.370   4
   0   5   1-84.6742 460.168   2
   5  -5   1 228.998 477.264   3
  -5   0   1 415.217 429.642   2
  -5   0   1 26.3463 446.919   1
   0   5   1 422.327 395.489   3
   5  -5   1-263.470 445.844   1
  -5   0   1-172.363 437.358   4
   0   5   4 82283.8 1917.93   3
  -5   0   4 80319.5 1885.12   2
  -5   0   4 75005.0 1552.94   4
   5  -5   4 82799.0 2139.18   1
   0   5   4 79589.6 1441.85   4
   0   5   4 77480.0 1374.04   1
   0   5   7-412.250 812.612   3
  -5   0   7 30.2901 663.236   2
  -5   0   7-185.264 488.569   4
   0   5   7-76.1248 683.530   1
  -5   0   7 383.687 663.780   3
   5  -5   7 335.765 432.837   2
   5  -5   7 69.4552 963.380   1
   0   5   7 524.251 432.609   4
  -5   0  10 42824.9 1233.84   4
   5  -5  10 49143.8 1515.91   2
  -5   0  10 46709.6 1972.72   3
  -5   0  10 47409.9 2846.74   1
   0   5  10 44901.4 2162.00   3
   5  -5  10 43479.1 2450.07   1
   0   5  10 41922.2 2272.70   2
   0   5  10 47812.6 1987.09   1
  -5   0  10 43836.7 2074.50   2
  -1   5  -6 55831.8 965.016   4
  -5   1  -6 58200.9 2136.89   1
   1   4  -6 58403.6 1178.35   4
  -4  -1  -6 61706.8 2077.58   1
   1   4  -3 118339. 1712.16   2
   4  -5  -3 120434. 1821.34   3
   5  -4  -3 121291. 1658.12   3
  -5   1  -3 116745. 1164.02   4
  -1   5  -3 115659. 1473.43   4
  -1   5  -3 117408. 1459.78   2
  -5   1  -3 118480. 1956.44   1
  -4  -1  -3 122363. 1370.95   4
  -4  -1  -3 123006. 1811.72   1
   1   4  -3 116964. 1585.50   4
  -1   5   0 66140.3 1178.39   4
   4  -5   0 67489.9 953.330   1
  -5   1   0 66111.8 1050.08   2
   1   4   0 65116.9 1068.17   2
   5  -4   0 69168.2 1012.06   3
   1   4   0 65588.5 894.115   3
  -4  -1   0 68429.3 1073.45   2
  -4  -1   0 70076.2 1216.46   4
  -4  -1   0 69673.4 1089.00   1
  -5   1   0 65518.8 1169.12   4
  -1   5   0 71561.6 1162.44   2
  -1   5   0 65952.9 970.726   3
  -5   1   0 68300.5 1051.51   1
   4  -5   0 68059.7 1012.35   3
   1   4   0 63619.0 1175.30   4
   5  -4   0 67060.8 982.943   1
  -4  -1   3 273355. 2836.95   2
   4  -5   3 266615. 3250.47   3
   1   4   3 282076. 1963.26   1
   4  -5   3 271876. 3354.90   1
  -5   1   3 274644. 1938.24   3
   5  -4   3 271833. 3157.34   1
   1   4   3 278335. 3177.48   2
  -4  -1   3 257842. 2565.92   4
  -5   1   3 273832. 3094.28   2
  -1   5   3 264041. 2005.84   1
  -1   5   3 265841. 2802.25   3
   1   4   3 271810. 3037.79   3
  -5   1   3 265685. 2578.62   4
   1   4   3 261960. 2351.89   4
  -5   1   6 30051.9 1234.25   3
  -5   1   6 31405.1 1467.12   2
  -4  -1   6 32262.4 1379.20   2
   4  -5   6 34154.7 943.349   2
  -1   5   6 31338.1 1015.36   4
   1   4   6 31777.3 896.378   4
   5  -4   6 31069.6 1607.06   1
   1   4   6 29932.8 1234.62   1
  -1   5   6 32240.3 1485.49   3
   4  -5   6 32095.0 1775.39   1
  -1   5   6 30620.8 1317.32   1
  -4  -1   6 30141.2 1018.19   4
   5  -4   6 32022.5 1016.21   2
  -5   1   6 28254.6 1043.89   4
   1   4   6 30105.8 1507.89   3
  -4  -1   9 87777.2 2561.84   2
   5  -4   9 75584.7 2830.57   1
  -1   5   9 80439.0 1404.95   4
  -4  -1   9 81070.1 1606.34   4
  -5   1   9 79433.7 2576.70   2
  -4  -1   9 84675.3 3452.68   1
  -4  -1   9 82394.2 2456.39   3
  -1   5   9 79358.5 2586.02   3
  -1   5   9 74257.7 1338.44   4
   4  -5   9 84498.4 3071.13   1
  -5   1   9 82034.8 2380.90   3
  -5   1   9 81529.7 3385.29   1
  -1   5   9 81931.4 2520.80   1
   5  -4   9 82098.7 1960.00   2
   4  -5   9 87031.2 1922.06   2
   1   4   9 79078.1 2651.27   3
   1   4   9 82427.4 2417.76   1
  -5   1   9 82954.7 1744.57   4
   5  -4  12 12758.9 1852.37   1
  -4  -1  12 12979.9 1459.27   2
   1   4  12 11566.2 1550.89   3
   4  -5  12 15837.4 1999.76   1
  -4  -1  12 13328.9 1469.57   3
   1   4  12 12320.4 1426.86   1
  -1   5  12 13653.0 1459.70   1
   1   4  12 10943.5 1612.19   2
  -5   1  12 12487.5 1529.56   2
   5  -4  12 11635.5 1660.92   3
  -4  -1  12 11673.4 2031.33   1
   4  -5  12 13213.8 1821.95   3
  -1   5  12 12105.2 1505.35   3
  -5   1  12 12786.7 2068.45   1
  -5   1  12 12347.2 1369.08   3
  -1   5  12 13680.5 1713.00   2
   2   3  -7 51845.6 1172.87   4
   2   3  -4 12355.7 645.964   4
  -2   5  -4 13268.9 524.875   4
  -2   5  -4 14411.6 674.729   2
  -5   2  -4 13897.0 1086.29   1
  -3  -2  -4 14203.1 907.340   1
   2   3  -4 13325.8 835.980   2
   3  -5  -4 14752.5 951.590   3
  -3  -2  -1 52730.3 743.296   1
   5  -3  -1 53984.8 639.013   3
   2   3  -1 50728.6 1037.46   4
  -5   2  -1 50402.9 919.765   4
   5  -3  -1 53849.5 1148.92   4
  -2   5  -1 49475.9 988.647   4
  -2   5  -1 50651.3 1269.88   1
  -5   2  -1 53364.8 975.006   1
   2   3  -1 54288.2 974.280   2
   3  -5  -1 53147.9 881.698   3
   2   3  -1 53563.7 700.377   3
  -3  -2  -1 51993.6 1001.80   4
  -5   2  -1 51935.8 718.607   2
  -2   5  -1 51967.4 768.443   2
  -3  -2  -1 52786.0 1009.73   2
   5  -3  -1 50375.5 1197.56   2
   3  -5  -1 53631.5 613.240   1
  -2   5  -1 52925.3 1043.45   3
  -3  -2  -1 49461.1 1099.38   3
   5  -3  -1 54124.8 1005.58   1
  -3  -2   2 83622.2 1363.60   4
  -2   5   2 87372.8 1360.46   3
   2   3   2 91399.2 911.339   1
   5  -3   2 86410.2 1477.74   1
  -3  -2   2 93670.7 930.688   3
   2   3   2 86110.2 1529.72   2
  -3  -2   2 86485.4 1393.11   2
  -5   2   2 90905.5 787.720   3
   3  -5   2 87844.4 781.370   2
   3  -5   2 90720.1 1585.21   3
   2   3   2 85922.9 1274.60   4
   2   3   2 74768.4 1491.15   3
  -5   2   2 86907.1 1703.66   2
   3  -5   2 83392.7 1788.48   1
  -5   2   2 82206.9 1423.37   4
   2   3   5 19575.8 1254.47   3
  -3  -2   5 16231.0 953.608   2
   2   3   5 15961.4 613.220   4
   3  -5   5 18703.4 1413.77   1
  -3  -2   5 14852.0 724.178   4
   2   3   5 16927.7 926.577   1
  -2   5   5 17259.3 1051.73   3
   5  -3   5 16496.5 1165.45   1
  -2   5   5 16603.6 1066.68   1
  -5   2   5 15669.4 820.091   4
   3  -5   5 17240.0 678.092   2
  -5   2   5 16201.4 873.354   3
  -5   2   5 16923.4 1160.58   2
  -5   2   8 55872.1 2164.01   2
  -2   5   8 55783.3 2052.84   3
  -3  -2   8 53991.0 1881.30   2
  -5   2   8 57212.3 1501.60   4
   3  -5   8 59086.8 1550.07   2
   3  -5   8 58727.2 2557.15   1
  -2   5   8 52745.1 2036.51   1
   2   3   8 52590.5 2185.67   3
  -3  -2   8 56075.3 1284.26   4
  -3  -2   8 56018.6 2727.27   1
   5  -3   8 54752.2 1689.71   2
  -5   2   8 55163.3 1895.40   3
  -2   5   8 56473.7 1350.62   4
  -5   2   8 57441.1 2637.17   1
   2   3   8 53131.1 1893.20   1
   5  -3   8 55861.8 2214.31   1
  -2   5   8 56138.5 1356.52   4
   2   3  11 1580.32 1112.74   2
  -2   5  11 2565.26 1294.36   2
  -3  -2  11 4048.71 1655.49   1
  -5   2  11 3324.33 1580.26   1
   2   3  11 2221.31 1031.73   1
   5  -3  11 1949.96 1323.58   3
  -3  -2  11 2318.23 1039.68   3
   5  -3  11 1773.04 1177.88   1
   3  -5  11 2265.79 1454.22   1
  -5   2  11 2052.30 931.318   3
  -2   5  11 2810.36 1160.52   1
   3  -5  11 2038.70 738.860   2
  -3  -2  11 1499.61 851.529   2
  -5   2  11 2479.44 1069.19   2
   5  -3  11 2281.52 840.549   2
   2   3  11 706.406 1081.74   3
  -2   5  11 2800.22 1122.96   3
  -3   5  -5 16264.0 434.729   4
   3   2  -5 17288.4 762.901   4
  -5   3  -5 18206.8 1360.74   1
   5  -2  -2 77805.1 1625.78   2
  -2  -3  -2 79865.5 1595.47   3
  -2  -3  -2 83019.6 978.972   1
  -3   5  -2 86792.2 1862.93   1
   2  -5  -2 81353.6 1387.60   3
  -3   5  -2 82112.6 724.240   2
  -3   5  -2 80059.6 1145.34   4
   5  -2  -2 76204.7 1378.26   4
  -2  -3  -2 80429.7 1226.56   4
   3   2  -2 80296.7 1333.86   4
  -5   3  -2 79920.5 1513.55   1
   5  -2  -2 83762.1 887.038   3
  -5   3  -2 80851.4 1034.72   4
  -3   5  -2 77113.8 1581.25   3
   3   2  -2 81101.1 1398.19   2
   2  -5   1 50423.9 953.345   3
   2  -5   1 49719.9 1210.22   1
  -5   3   1 53018.1 685.335   3
  -2  -3   1 52596.7 682.082   3
  -2  -3   1 50775.2 1049.31   4
   3   2   1 51533.5 983.681   2
   5  -2   1 52838.9 775.805   2
   5  -2   1 51384.7 953.058   1
  -3   5   1 51967.4 617.112   1
  -2  -3   1 51722.3 953.061   2
  -5   3   1 50795.0 1101.49   4
   5  -2   1 51012.3 956.652   4
  -5   3   1 52900.6 960.633   1
  -5   3   1 53281.9 1189.40   2
   3   2   1 51809.1 1064.65   3
   3   2   1 54785.6 803.843   1
  -3   5   1 53090.5 884.850   3
   2  -5   1 53150.7 859.236   2
   3   2   1 51548.3 987.471   4
   5  -2   4 15342.0 1012.61   1
  -3   5   4 14028.5 852.529   3
  -5   3   4 12257.5 767.589   4
   2  -5   4 14923.6 586.544   2
  -2  -3   4 14732.3 798.095   2
  -2  -3   4 13497.2 659.181   4
   5  -2   4 14485.3 643.441   2
   3   2   4 14012.6 554.112   4
   3   2   4 14677.6 812.197   1
   2  -5   4 13300.9 1288.50   1
   3   2   4 14717.2 898.133   2
   3   2   4 13504.9 1038.93   3
  -5   3   4 14355.2 1078.32   2
  -5   3   4 14112.7 702.883   3
   2  -5   4 14109.4 968.850   3
  -5   3   7 53220.0 1423.61   4
  -5   3   7 52689.7 1999.10   2
   2  -5   7 53834.6 1418.04   2
  -2  -3   7 51588.2 1626.59   2
   5  -2   7 53777.1 1956.82   1
  -5   3   7 50751.8 1629.93   3
  -3   5   7 53669.8 2034.14   1
  -2  -3   7 53321.2 1194.85   4
  -2  -3   7 55338.9 2543.70   1
  -3   5   7 51859.0 1819.95   3
  -3   5   7 52704.7 1370.02   4
   3   2   7 53405.0 2095.63   3
   2  -5   7 57625.9 2435.73   1
   3   2   7 52478.1 1764.88   1
  -2  -3  10 24198.2 1691.98   3
  -5   3  10 28900.1 1851.29   2
  -5   3  10 25301.3 1003.92   4
  -2  -3  10 25909.9 2265.89   1
   5  -2  10 25615.4 1810.34   1
  -3   5  10 26029.5 1865.01   1
  -5   3  10 27092.7 2275.42   1
   3   2  10 24218.0 1799.24   3
  -5   3  10 24775.5 1504.38   3
   3   2  10 24975.3 1625.58   1
   2  -5  10 30740.0 2315.10   1
   3   2  10 24877.0 1752.67   2
  -3   5  10 25515.6 1798.74   2
   5  -2  10 24937.8 1925.44   3
  -2  -3  10 25153.0 1471.74   2
   5  -2  10 26295.0 1553.26   2
  -3   5  10 25146.2 1607.57   3
   2  -5  10 26646.4 1306.55   2
   4   1  -6 32020.0 1039.91   4
   5  -1  -3 275581. 2774.90   4
   1  -5  -3 293015. 3197.35   3
  -4   5  -3 293976. 1988.93   4
  -5   4  -3 307493. 3537.30   1
  -1  -4  -3 304760. 2446.90   1
   4   1  -3 296999. 3204.25   2
  -4   5  -3 305920. 3788.19   1
   5  -1  -3 290754. 3338.42   2
  -1  -4  -3 293392. 3360.11   3
   4   1  -3 284952. 2670.59   4
  -5   4  -3 281868. 1779.71   4
  -1  -4   0 76864.6 1216.21   2
  -1  -4   0 77966.8 1016.44   3
   1  -5   0 79955.5 1176.78   1
  -4   5   0 77313.5 1080.14   1
   5  -1   0 83648.5 1199.81   1
  -4   5   0 82089.3 1163.52   3
   4   1   0 80531.5 1282.79   4
   4   1   0 77353.3 957.391   3
   5  -1   0 79609.3 1184.08   2
   1  -5   0 79162.9 1328.23   2
   4   1   0 82331.7 1259.42   1
  -5   4   0 81411.3 1089.53   1
   4   1   0 81080.2 1182.06   2
   1  -5   0 79031.5 1060.23   3
  -1  -4   0 77811.6 1296.16   4
   5  -1   0 80774.2 1282.57   4
   1  -5   0 80072.7 1326.62   4
  -5   4   0 77420.9 1156.47   3
  -5   4   0 74338.3 1171.12   2
   1  -5   3 122415. 1364.76   2
  -4   5   3 121554. 1656.23   3
  -1  -4   3 127985. 1646.01   2
  -5   4   3 125721. 1507.23   3
   5  -1   3 123437. 1821.08   1
  -5   4   3 115704. 2246.51   2
  -1  -4   3 122024. 1598.06   4
   1  -5   3 117923. 2551.04   1
   4   1   3 126579. 1395.69   4
   1  -5   3 126389. 2010.46   3
   5  -1   3 120565. 1252.65   4
  -5   4   3 111582. 1799.04   4
   5  -1   3 131724. 1488.73   2
   4   1   3 123983. 1621.20   1
  -1  -4   3 125892. 1780.25   3
   4   1   3 122674. 1756.98   2
   1  -5   3 119877. 1484.14   4
  -4   5   6 57912.5 2009.83   1
   1  -5   6 58979.6 1007.64   4
  -4   5   6 59884.3 1472.22   4
   4   1   6 60746.3 1759.12   1
  -5   4   6 58260.3 1468.27   4
   1  -5   6 64957.9 2496.00   1
  -1  -4   6 58142.3 1538.16   2
   4   1   6 63431.6 1781.87   2
   1  -5   6 59924.5 1417.48   2
  -5   4   6 61247.8 1646.64   3
  -1  -4   6 60560.8 1210.89   4
   5  -1   6 63529.0 1907.44   1
  -4   5   6 60700.1 1690.09   3
  -5   4   6 59106.8 2073.71   2
  -1  -4   6 63362.4 2545.38   1
   5  -1   6 63956.4 1643.85   2
  -5   4   9 41411.4 2365.96   1
   5  -1   9 41279.2 2215.94   3
   4   1   9 42214.7 2209.20   3
  -4   5   9 41113.1 1777.86   3
  -1  -4   9 42063.8 1612.28   2
  -4   5   9 43240.7 2257.71   1
  -1  -4   9 45234.6 2645.68   1
   1  -5   9 46117.1 2608.50   1
   4   1   9 42493.7 1900.57   1
  -5   4   9 47185.4 1415.09   4
  -4   5   9 45036.9 1342.52   4
   5  -1   9 42550.8 1981.67   1
  -4   5   9 41880.9 2088.09   2
   5  -1   9 42579.4 1772.53   2
  -5   4   9 40131.3 1719.47   3
  -5   4   9 42805.9 2117.86   2
   1  -5   9 41533.3 1504.83   2
  -1  -4  12 6864.06 1866.32   1
  -4   5  12 7526.52 1249.38   3
  -1  -4  12 6334.71 1402.15   3
  -5   4  12 8255.24 1655.14   1
   4   1  12 6300.20 1323.01   1
   1  -5  12 7511.11 1383.64   3
   1  -5  12 9308.86 1997.36   1
  -5   4  12 6613.21 1307.00   2
   5  -1  12 4869.48 1325.78   1
   4   1  12 7541.13 1526.68   3
  -4   5  12 6668.06 1371.04   2
   5  -1  12 8089.77 1657.29   3
  -5   4  12 7803.87 1185.79   3
  -4   5  12 7571.23 1562.17   1
  -5   5  -4 94147.0 2493.02   1
  -5   5  -4 82501.7 958.945   4
   5   0  -4 91248.0 2127.81   2
   5   0  -4 81790.0 1657.91   4
  -5   5  -1 9.24829 537.535   3
   5   0  -1 166.245 432.041   4
   0  -5  -1 409.518 591.417   2
  -5   5  -1 26.2359 446.254   1
   5   0  -1 239.173 425.049   2
   0  -5  -1 62.3461 381.966   3
   0  -5  -1 178.152 458.270   4
  -5   5   2 245321. 1883.52   3
   0  -5   2 248177. 1978.78   2
  -5   5   2 247645. 2010.05   1
   0  -5   2 244856. 2302.97   4
   5   0   2 245413. 2066.63   4
   0  -5   2 241530. 2127.99   3
   5   0   2 245232. 2071.94   1
   0  -5   5 150.024 392.982   4
   5   0   5-467.945 656.824   1
   5   0   5 237.926 179.869   4
   0  -5   5 34.5155 412.861   2
   0  -5   5-534.131 1031.82   1
  -5   5   5-169.467 526.431   3
   5   0   5 267.139 483.161   2
  -5   5   5-22.0753 491.661   4
   0  -5   5 487.863 642.481   3
  -5   5   8 4188.20 818.537   3
   5   0   8 5601.41 993.738   1
  -5   5   8 5609.60 1206.58   1
  -5   5   8 5140.89 1094.75   2
  -5   5   8 5014.08 666.859   4
   5   0   8 5297.87 911.201   2
   0  -5   8 4575.81 713.282   2
   0  -5   8 4840.30 1443.01   1
   5   0   8 6002.30 1173.29   3
   0  -5  11-39.6059 789.933   2
   5   0  11 776.371 1225.92   3
   5   0  11 663.721 1013.89   2
   5   0  11 412.377 1038.41   1
  -5   5  11-1227.26 1231.72   2
  -5   5  11-125.361 1190.97   1
   0  -5  11 1747.06 1721.93   1
  -5   5  11 524.809 916.421   3
  -6   0  -6 76159.1 2387.10   1
   0   6  -6 70712.4 1366.57   4
   0   6  -6 75150.5 1859.77   2
  -6   0  -3 97.6457 339.946   4
  -6   0  -3 1537.45 520.184   2
   0   6  -3 101.858 573.923   3
   0   6  -3 104.423 387.285   4
   6  -6  -3 153.915 424.907   3
  -6   0  -3 640.573 477.401   1
   0   6  -3 320.635 375.788   2
   0   6   0 11721.5 553.863   3
   6  -6   0 11129.3 559.792   3
  -6   0   0 10927.2 589.756   1
   6  -6   0 11984.1 562.989   1
   0   6   0 11057.5 680.275   4
  -6   0   0 11218.5 687.580   4
  -6   0   0 12294.9 613.742   2
   0   6   0 11661.8 641.343   2
   0   6   3 95.9214 537.550   3
   0   6   3 455.713 431.966   4
  -6   0   3 255.071 478.862   4
   6  -6   3-373.579 636.075   3
  -6   0   3-183.719 213.914   3
   0   6   3-11.1393 155.115   1
   0   6   3 555.750 605.631   2
   6  -6   3-562.952 703.042   1
  -6   0   3 687.545 585.453   2
  -6   0   6 90140.7 2298.41   2
   0   6   6 83598.8 1670.94   4
  -6   0   6 88862.9 1836.75   3
  -6   0   6 86776.7 1819.83   4
   0   6   6 85356.3 1793.25   1
   6  -6   6 84075.8 2509.38   1
   0   6   6 87976.8 2339.90   3
  -6   0   9 126.672 792.776   3
  -6   0   9 285.905 586.295   4
   0   6   9 1647.98 1002.53   3
  -6   0   9 379.401 865.760   2
  -6   0   9-1212.33 1340.76   1
   0   6   9-281.339 756.103   1
   0   6   9-93.0628 410.023   4
   6  -6   9 712.936 524.596   2
   6  -6   9 293.180 1116.79   1
  -6   0  12 57722.8 2574.09   2
   0   6  12 51769.6 2750.49   2
  -6   0  12 51893.3 3337.24   1
   6  -6  12 62887.2 3158.42   1
  -6   0  12 56628.5 2337.60   3
   0   6  12 52047.2 2533.56   3
   0   6  12 57553.1 2290.11   1
  -1   6  -7 57726.9 1072.51   4
   1   5  -7 65580.6 1333.42   4
  -1   6  -4 1475.28 480.909   2
   5  -6  -4 1542.90 594.115   3
  -5  -1  -4 1914.38 729.771   1
  -5  -1  -4 1579.82 386.925   4
   6  -5  -4 523.346 522.838   3
  -6   1  -4 861.376 295.727   4
  -6   1  -4 1293.59 703.315   1
   1   5  -4 1189.78 447.348   4
   1   5  -4 1907.44 570.432   2
  -1   6  -4 1087.67 392.941   4
  -6   1  -1 240727. 2250.40   4
   1   5  -1 249001. 1875.26   3
  -1   6  -1 243987. 2399.95   4
   5  -6  -1 241366. 1933.05   3
  -6   1  -1 246440. 2100.55   1
  -5  -1  -1 240798. 2263.40   4
  -5  -1  -1 247280. 2110.71   2
   1   5  -1 247973. 2118.39   2
  -6   1  -1 245855. 1920.17   2
   6  -5  -1 254840. 2079.55   1
   5  -6  -1 251046. 1753.16   1
   6  -5  -1 246365. 1753.48   3
   1   5  -1 252507. 2423.62   4
  -5  -1  -1 246890. 1932.71   1
  -1   6  -1 246969. 2121.17   3
  -1   6  -1 243087. 1952.93   2
   6  -5   2 303.229 552.756   3
  -5  -1   2 976.658 454.269   4
  -6   1   2 605.369 500.672   2
   1   5   2 882.470 494.070   3
   5  -6   2 1269.20 569.142   3
   5  -6   2 449.577 562.704   1
   6  -5   2 796.247 507.338   1
  -1   6   2 1174.17 460.012   3
  -5  -1   2 782.993 487.407   2
  -6   1   2 1266.97 484.125   4
   1   5   2 1606.67 445.436   4
  -1   6   2 993.851 441.598   4
   1   5   2 607.604 524.186   2
  -6   1   2 1451.04 545.679   1
  -5  -1   5 28301.9 1061.44   4
   1   5   5 31358.6 1442.68   3
  -1   6   5 33056.6 1110.14   1
  -6   1   5 30983.6 1112.40   4
  -5  -1   5 31038.3 1316.48   2
  -1   6   5 31744.8 1353.76   3
   5  -6   5 31365.9 1645.08   1
   6  -5   5 30977.0 1461.03   1
   6  -5   5 27975.8 676.089   2
   6  -5   5 28791.3 717.128   2
  -1   6   5 30050.2 1056.89   4
   1   5   5 32473.0 1052.64   1
  -6   1   5 29810.6 1362.70   2
   1   5   5 31740.5 995.251   4
   5  -6   5 32857.1 663.816   2
  -6   1   5 34898.4 1063.15   3
  -6   1   8 5649.81 872.472   3
  -6   1   8 4475.44 1347.82   1
   5  -6   8 4492.76 1237.22   1
   1   5   8 4605.00 1097.11   3
  -1   6   8 5003.06 607.711   4
  -6   1   8 5374.35 710.850   4
  -6   1   8 4500.66 940.899   2
  -1   6   8 5069.81 616.452   4
  -5  -1   8 5465.15 862.647   3
  -5  -1   8 5270.98 1514.79   1
   1   5   8 4413.77 476.639   4
   5  -6   8 5060.48 578.784   2
   6  -5   8 4026.14 584.237   2
  -5  -1   8 4922.64 909.067   2
   1   5   8 6235.95 876.550   1
   1   5   8 4887.93 477.683   4
   6  -5   8 6268.33 1210.31   1
  -1   6   8 5153.38 1037.37   3
  -5  -1   8 4726.52 644.914   4
  -1   6   8 5349.51 915.826   1
   5  -6  11 6915.44 1611.15   1
  -6   1  11 5233.66 1152.18   2
  -6   1  11 7474.73 1760.11   1
  -5  -1  11 4880.63 1079.29   3
   6  -5  11 6673.23 1467.47   1
  -5  -1  11 6238.82 1115.99   2
  -6   1  11 6619.01 1141.94   3
   1   5  11 6777.67 1102.77   1
  -1   6  11 6939.33 1301.66   3
   1   5  11 5568.81 1141.75   3
  -1   6  11 5379.40 1122.43   1
  -5  -1  11 7847.08 1820.79   1
  -1   6  11 7434.36 1377.32   2
   1   5  11 7031.43 1408.14   2
   2   4  -8 81.3195 396.277   4
   2   4  -5 56430.8 1274.50   4
   2   4  -5 57778.1 1656.82   2
  -6   2  -5 54858.4 1947.13   1
  -2   6  -5 57072.7 1057.39   4
  -6   2  -2 55024.4 999.755   4
  -4  -2  -2 56993.4 1249.37   2
  -6   2  -2 55644.5 1219.24   1
   6  -4  -2 58244.1 866.595   3
   2   4  -2 58354.0 1179.76   2
  -2   6  -2 55324.6 1617.03   1
  -6   2  -2 56804.3 865.420   2
  -2   6  -2 58890.4 865.897   2
   2   4  -2 52655.0 1198.75   4
  -4  -2  -2 59391.1 971.125   1
   2   4  -2 55997.7 1024.41   3
  -2   6  -2 55483.4 1343.00   3
  -4  -2  -2 53641.7 1086.15   4
  -2   6  -2 53598.2 1135.18   4
   4  -6  -2 54115.0 1111.15   3
   4  -6   1 26033.9 819.974   3
   2   4   1 25758.4 803.971   3
   2   4   1 25537.6 862.103   4
   6  -4   1 24895.2 928.790   3
   2   4   1 26169.8 873.299   2
  -4  -2   1 25956.2 817.484   2
  -4  -2   1 27107.0 475.035   3
  -4  -2   1 25569.4 872.048   4
  -6   2   1 23260.6 872.187   4
  -6   2   1 26773.5 857.555   1
  -6   2   1 24217.0 503.360   3
  -2   6   1 27064.6 760.753   3
   4  -6   1 26016.8 929.631   1
   6  -4   1 24452.9 640.987   2
  -6   2   1 25922.9 905.222   2
   6  -4   1 23284.9 757.751   1
  -6   2   4 37713.5 931.022   3
   4  -6   4 36076.8 1659.10   1
   2   4   4 35694.3 999.588   4
  -2   6   4 37000.7 1279.68   3
   4  -6   4 36575.3 1484.25   3
   2   4   4 37557.8 1400.00   2
   6  -4   4 37776.8 666.368   2
  -2   6   4 34690.3 1072.01   1
   2   4   4 38109.7 1471.06   3
  -4  -2   4 38068.5 1261.17   2
   4  -6   4 38499.4 627.793   2
  -4  -2   4 35092.6 1084.04   4
   6  -4   4 36960.0 1447.86   1
  -6   2   4 36739.4 1494.00   2
   2   4   4 39454.2 1000.61   1
  -6   2   4 34901.1 1122.53   4
  -6   2   7 74618.1 1761.27   4
   6  -4   7 86542.6 1728.76   2
  -6   2   7 75650.3 1889.31   3
  -4  -2   7 78636.7 2134.49   2
   2   4   7 74745.6 1262.91   4
  -4  -2   7 74359.7 1596.66   4
   6  -4   7 76107.8 1635.41   2
  -2   6   7 75008.9 1628.94   4
   2   4   7 76877.0 1950.65   1
   4  -6   7 79378.9 1482.13   2
  -4  -2   7 79351.0 2983.55   1
   4  -6   7 79378.0 2723.34   1
  -2   6   7 78122.9 2225.07   3
   6  -4   7 76456.7 2428.43   1
  -2   6   7 76335.4 2080.87   1
  -2   6   7 74914.9 1683.45   4
  -6   2   7 78737.1 2411.08   2
   2   4   7 76425.9 2401.53   3
  -6   2  10 5654.82 1530.97   1
   4  -6  10 5771.41 1508.94   1
  -6   2  10 5360.96 703.831   4
  -2   6  10 3991.46 1214.25   2
   2   4  10 5305.02 1154.68   3
   6  -4  10 6022.67 819.330   2
  -6   2  10 4639.30 1074.88   2
   4  -6  10 4179.63 721.416   2
  -4  -2  10 3984.93 957.785   2
  -4  -2  10 5989.87 1759.53   1
   2   4  10 4694.69 1012.63   1
  -6   2  10 4624.30 1036.45   3
  -2   6  10 4537.32 1041.65   1
  -4  -2  10 6357.39 1128.64   3
  -2   6  10 3475.41 971.886   3
   6  -4  10 4494.32 1243.99   1
   3   3  -6 94481.9 1712.25   4
  -3   6  -6 85265.4 1020.07   4
  -3  -3  -3 11066.4 565.773   4
  -3   6  -3 12191.8 453.879   2
   6  -3  -3 11210.2 724.413   4
  -6   3  -3 12356.0 860.909   1
   3  -6  -3 11211.5 759.361   3
  -3  -3  -3 11448.3 617.365   1
   3   3  -3 11294.3 647.212   4
   3   3  -3 11458.2 726.041   2
  -3   6  -3 12135.2 564.568   4
  -3   6  -3 9342.62 1009.84   1
  -6   3  -3 10993.9 450.161   4
   6  -3  -3 11665.3 594.973   3
  -3  -3   0 920448. 4412.66   4
   6  -3   0 909874. 4395.48   4
   6  -3   0 902325. 4155.63   2
   3   3   0 911744. 4439.72   4
   3   3   3 11331.3 517.632   1
  -3  -3   3 10638.3 657.557   4
  -3   6   3 12095.7 710.611   3
  -6   3   3 11790.0 935.195   2
   3  -6   3 12608.5 407.399   2
   3   3   3 11033.8 897.974   3
   3   3   3 10982.8 759.200   2
   3   3   3 10816.5 575.218   4
   3  -6   3 12353.8 815.721   3
   3  -6   3 10983.0 1004.14   1
  -3  -3   3 11513.6 690.605   2
   6  -3   3 12812.6 392.132   2
  -6   3   3 9820.43 699.179   4
   6  -3   3 11836.1 793.952   1
  -6   3   3 12022.8 480.329   3
  -3  -3   3 11181.8 530.683   3
   3   3   6 89944.2 2528.99   3
  -3   6   6 91516.2 2264.66   1
  -3  -3   6 88206.9 2007.90   2
   3  -6   6 93295.7 1519.22   2
   3   3   6 87444.9 1275.31   4
  -3  -3   6 89124.4 1631.33   4
  -3   6   6 91491.2 2158.67   3
   3   3   6 93531.7 1996.17   1
  -6   3   6 93802.4 1909.54   3
   6  -3   6 89412.1 2329.92   1
  -6   3   6 84533.5 1816.45   4
   3   3   6 89734.5 2299.27   2
   3  -6   6 83891.8 2717.18   1
  -6   3   6 88537.4 2488.95   2
   6  -3   6 96406.4 1697.22   2
  -3   6   9 807.268 541.968   4
  -6   3   9 402.680 1281.41   1
  -3  -3   9 951.869 696.420   2
   6  -3   9 550.580 764.219   2
  -3   6   9 355.254 930.172   2
   6  -3   9 344.715 724.474   2
   3   3   9 147.198 816.962   1
  -3  -3   9-356.469 1362.59   1
  -6   3   9 950.008 711.744   3
  -6   3   9 540.389 615.721   4
   3  -6   9 1053.30 1271.77   1
  -3  -3   9 584.531 468.360   4
  -3   6   9 506.716 530.257   4
   6  -3   9 381.822 1106.25   1
  -6   3   9 438.371 887.339   2
  -3   6   9 477.790 815.310   3
   3  -6   9 755.031 579.739   2
   3   3   9 200.694 963.235   3
  -3   6   9 950.402 1012.15   1
  -3   6  12 36095.0 2099.98   1
  -3  -3  12 37467.7 2160.18   3
   6  -3  12 34523.5 2300.66   1
  -6   3  12 39347.3 1979.30   3
  -3  -3  12 38646.7 1928.80   2
  -6   3  12 34590.6 2668.55   1
   3   3  12 35058.6 2255.25   2
   3  -6  12 40479.3 2883.10   1
   6  -3  12 35805.7 2577.64   3
   3   3  12 33618.4 2286.88   3
  -6   3  12 36604.2 2276.66   2
  -3   6  12 36046.7 2404.19   2
  -3   6  12 35163.8 2048.77   3
  -3  -3  12 39543.8 2893.26   1
   3   3  12 34719.7 1972.70   1
   4   2  -7 74661.4 1618.66   4
  -2  -4  -4 35347.7 1179.66   1
  -6   4  -4 35632.0 1558.32   1
  -6   4  -4 32128.2 586.181   4
   2  -6  -4 34952.1 1383.86   3
  -4   6  -4 38335.3 834.246   4
   6  -2  -4 33377.0 1129.73   4
   4   2  -4 34445.1 1080.43   4
   4   2  -4 34485.7 1346.48   2
  -4   6  -4 34070.5 1665.32   1
  -6   4  -1 23549.8 781.733   1
  -2  -4  -1 26248.6 530.448   1
   4   2  -1 25542.6 414.059   3
   4   2  -1 24686.5 808.602   2
  -2  -4  -1 26390.4 893.106   4
   6  -2  -1 24613.7 878.326   4
  -2  -4  -1 24448.4 833.439   3
  -6   4  -1 24203.1 561.010   2
  -6   4  -1 24060.1 767.895   4
   6  -2  -1 24589.3 940.591   2
   6  -2  -1 24389.4 887.454   1
   2  -6  -1 25781.9 735.000   3
  -4   6  -1 20995.0 855.921   3
  -4   6  -1 24621.4 643.129   2
   6  -2  -1 25172.5 404.614   3
   4   2  -1 25577.6 866.161   4
  -4   6  -1 25072.2 970.674   1
  -2  -4  -1 23661.5 884.974   2
  -4   6   2 52301.7 1032.08   3
  -4   6   2 58327.1 788.648   1
   6  -2   2 55216.1 1179.17   1
  -6   4   2 55280.1 1478.32   2
   2  -6   2 54081.7 1604.63   1
  -2  -4   2 55295.8 897.300   3
  -2  -4   2 53101.3 1176.36   4
  -2  -4   2 54033.6 1077.98   2
   2  -6   2 54460.6 1190.90   3
   6  -2   2 55335.3 832.016   2
  -6   4   2 52554.6 1122.44   1
   2  -6   2 54195.1 866.512   2
   2  -6   2 52458.2 1108.24   4
   4   2   2 53434.0 1077.14   4
   4   2   2 57256.5 921.134   1
   4   2   2 55104.8 1157.51   2
   4   2   2 52164.2 1410.55   3
  -6   4   2 52403.8 1288.04   4
   6  -2   2 54041.1 1022.26   4
  -6   4   2 56949.6 785.251   3
  -6   4   5 57894.4 1483.16   4
  -6   4   5 56957.4 1932.60   2
   4   2   5 60274.5 1503.99   1
   4   2   5 55829.9 1947.93   3
  -2  -4   5 58305.1 1474.82   2
  -2  -4   5 53177.4 1259.28   4
   6  -2   5 58898.3 1725.60   1
   6  -2   5 57672.0 1271.46   2
   2  -6   5 55873.1 1821.09   3
   4   2   5 59993.9 1669.67   2
  -6   4   5 56310.9 1376.74   3
   2  -6   5 57395.7 2188.27   1
   4   2   5 56932.7 1007.62   4
  -4   6   5 55108.0 1533.69   3
  -2  -4   5 57418.2 1602.62   3
   2  -6   5 60223.7 1183.18   2
  -6   4   8 872.303 671.525   3
  -2  -4   8 800.370 615.781   2
  -4   6   8 547.887 558.720   4
   6  -2   8-395.807 925.230   1
  -6   4   8-15.0104 933.021   2
  -6   4   8 166.219 1061.99   1
  -2  -4   8 230.210 463.821   4
   6  -2   8 787.182 732.709   2
  -4   6   8 598.952 941.769   2
  -4   6   8 206.816 993.581   1
  -2  -4   8-113.972 1391.59   1
  -6   4   8 796.886 575.119   4
   4   2   8 1650.54 815.286   1
   2  -6   8 1518.12 1234.02   1
   2  -6   8 127.016 545.996   2
   6  -2   8-129.348 667.758   2
   4   2   8-578.270 952.567   3
  -4   6   8-222.209 744.698   3
  -4   6  11 12378.4 1546.99   2
   6  -2  11 10880.7 1622.34   3
  -4   6  11 12678.8 1354.43   3
  -6   4  11 12752.6 1824.96   1
   6  -2  11 13854.6 1528.92   1
  -2  -4  11 11662.9 1446.03   3
  -2  -4  11 13125.7 2070.47   1
   6  -2  11 13096.6 1257.11   2
   4   2  11 13430.3 1538.14   3
  -2  -4  11 12870.9 1228.14   2
   2  -6  11 17240.0 2124.59   1
  -6   4  11 14023.9 1563.71   2
   4   2  11 13486.2 1557.33   2
  -6   4  11 12785.0 1316.96   3
  -4   6  11 11447.8 1500.21   1
   2  -6  11 15862.5 1091.40   2
   4   2  11 14481.3 1434.16   1
  -6   5  -5 26074.7 1590.64   1
  -5   6  -5 24236.1 538.864   4
   5   1  -5 24988.9 1021.71   4
   5   1  -5 26876.6 1354.27   2
   6  -1  -5 25580.2 1046.84   4
  -1  -5  -2 1767.53 508.654   3
   5   1  -2 2176.63 506.878   4
   1  -6  -2 2181.66 514.701   3
   5   1  -2 1861.90 513.114   2
   6  -1  -2 1785.51 567.031   2
  -1  -5  -2 2541.94 476.034   4
  -5   6  -2 1553.33 622.239   1
   6  -1  -2 2294.29 488.408   4
  -6   5  -2 1631.81 551.973   1
   5   1   1 251035. 2127.72   2
   5   1   1 249131. 2029.22   1
   1  -6   1 241285. 2716.28   1
   5   1   1 241019. 2415.88   3
  -6   5   1 252127. 1853.13   3
  -5   6   1 247700. 1961.13   3
  -5   6   1 251813. 1766.96   1
   6  -1   1 247771. 2126.66   1
   1  -6   1 247854. 2031.25   3
  -6   5   1 251802. 1998.14   1
   1  -6   1 246536. 2109.95   2
  -6   5   1 244482. 2641.97   2
  -1  -5   1 251262. 2563.28   4
   5   1   1 247554. 2338.40   4
   6  -1   1 246553. 2292.76   4
  -1  -5   1 248584. 2136.66   2
   1  -6   1 234150. 2368.77   4
   6  -1   1 254578. 2006.31   2
  -1  -5   1 248531. 1831.63   3
   6  -1   4 1716.82 429.720   2
   1  -6   4 1765.46 663.157   3
   5   1   4 1379.80 514.945   2
   5   1   4 2318.12 587.120   1
   1  -6   4 1458.04 396.083   2
   5   1   4 1894.87 376.420   4
  -1  -5   4 1924.53 510.681   4
   6  -1   4 1766.36 336.203   4
  -6   5   4 1530.20 473.818   3
   1  -6   4 2095.24 455.096   4
  -1  -5   4 1178.35 1017.86   1
  -6   5   4 1183.22 785.257   2
   6  -1   4 2351.44 687.020   1
   1  -6   4 3134.22 1079.64   1
  -1  -5   4 1877.94 592.587   3
  -6   5   4 1129.14 525.946   4
  -5   6   4 2063.93 552.146   3
  -1  -5   4 1629.08 517.429   2
  -5   6   7 67218.8 1719.39   4
  -5   6   7 70488.7 2403.00   1
   5   1   7 68759.2 1965.90   1
   5   1   7 63039.7 2355.16   3
  -5   6   7 67557.5 1933.05   3
  -1  -5   7 68688.5 1382.56   4
  -6   5   7 68743.1 1851.21   3
   1  -6   7 69634.7 2860.94   1
  -5   6   7 66833.1 2388.60   2
  -1  -5   7 71437.7 2952.63   1
   5   1   7 66280.5 1938.87   2
  -1  -5   7 67433.9 1722.67   2
   6  -1   7 67966.3 2074.14   1
  -6   5   7 66534.1 1756.24   4
  -6   5   7 64470.6 2306.37   2
   6  -1   7 64141.4 1745.78   2
   1  -6   7 66865.1 1588.79   2
   1  -6  10 2241.68 1511.98   1
  -6   5  10 1155.43 632.664   4
   5   1  10 1335.62 977.976   2
   6  -1  10 983.652 978.808   1
  -1  -5  10 1015.09 1533.80   1
  -5   6  10 1404.93 1068.64   2
  -6   5  10 1388.57 1016.75   2
   6  -1  10 954.281 934.207   2
  -5   6  10 1172.59 1152.09   1
  -5   6  10 1228.40 887.578   3
   6  -1  10 2604.00 1230.53   3
  -6   5  10 1793.57 861.125   3
  -5   6  10 1400.53 573.304   4
   5   1  10 123.478 959.953   1
   1  -6  10 1413.00 692.871   2
  -1  -5  10 2139.43 796.879   2
   5   1  10-772.313 1262.81   3
  -6   5  10 1376.95 1284.82   1
   6   0  -6 92060.5 1915.72   4
   0  -6  -3 246.132 566.106   3
  -6   6  -3 246.675 682.343   1
   6   0  -3-478.136 482.871   4
   6   0  -3 348.902 575.373   2
   6   0   0 23781.2 861.619   1
   6   0   0 23926.2 796.039   2
   0  -6   0 24025.8 896.938   2
  -6   6   0 24134.2 751.667   1
   0  -6   0 23074.8 928.718   4
   6   0   0 23977.8 882.543   4
  -6   6   0 23267.0 812.785   3
   0  -6   0 24345.2 712.929   3
   6   0   3-1.76073 366.478   2
   0  -6   3-264.571 477.809   4
  -6   6   3 391.131 381.504   1
   0  -6   3-20.2967 432.118   3
   0  -6   3 217.308 358.942   2
   6   0   3 293.782 487.704   1
  -6   6   3 84.6549 351.440   3
   0  -6   3 278.889 897.815   1
   6   0   3 97.3068 340.948   4
  -6   6   6 75880.6 1830.59   4
  -6   6   6 73421.4 2398.94   2
   0  -6   6 87049.8 2260.85   3
   0  -6   6 83758.4 1689.61   2
  -6   6   6 79184.9 1814.35   3
   6   0   6 82284.5 2001.63   1
   6   0   6 82449.8 1856.63   2
   0  -6   6 79448.0 2885.20   1
   0  -6   6 78933.5 1445.10   4
   0  -6   9-538.687 1492.95   1
   0  -6   9-624.698 615.529   2
  -6   6   9-146.823 628.737   4
   6   0   9 657.859 889.062   1
   6   0   9 192.793 986.793   3
  -6   6   9-62.0185 999.267   2
  -6   6   9 519.478 1111.79   1
  -6   6   9-431.186 699.769   3
  -6   6  12 21368.7 1600.05   3
  -6   6  12 20647.7 2048.26   1
   6   0  12 22091.9 1719.06   1
   0  -6  12 22035.5 1923.13   3
   0  -6  12 26390.9 2643.53   1
  -6   6  12 26692.7 2169.51   2
   6   0  12 24909.1 2124.30   3
   0   7  -7 409.778 424.399   4
  -7   0  -4 19216.0 717.772   4
  -7   0  -4 21079.4 1099.80   1
   0   7  -4 18605.2 866.327   4
   0   7  -4 21445.1 910.044   2
   7  -7  -4 21498.8 991.465   3
   7  -7  -1 114.370 351.619   1
  -7   0  -1 56.5563 355.391   1
   0   7  -1-303.856 383.566   3
   0   7  -1 101.744 340.866   2
   0   7  -1 53.2382 450.274   4
  -7   0  -1 17.3367 359.891   2
   7  -7  -1 244.886 336.192   3
  -7   0  -1-151.731 448.299   4
  -7   0   2 162143. 2317.56   2
   7  -7   2 158966. 2365.94   1
   7  -7   2 162370. 2477.84   3
   0   7   2 162918. 2520.22   2
   0   7   2 160404. 2226.08   4
  -7   0   2 157897. 2323.75   4
  -7   0   2 162997. 2479.00   1
   0   7   5-748.650 522.596   4
   0   7   5-127.345 406.539   1
   7  -7   5 148.563 828.140   1
   0   7   5-620.651 727.069   3
  -7   0   5 57.1953 543.070   4
  -7   0   5-173.114 720.482   2
  -7   0   5 201.137 427.796   3
  -7   0   8 124873. 2465.38   4
   7  -7   8 125002. 1576.34   2
  -7   0   8 119157. 2427.36   3
  -7   0   8 130000. 3122.36   2
   0   7   8 126707. 3123.68   3
   0   7   8 127443. 2190.19   4
   7  -7   8 128780. 3446.49   1
   7  -7   8 120050. 1753.76   2
   0   7   8 133106. 2538.19   1
   0   7  11 1025.41 820.935   1
  -7   0  11 277.439 1487.64   1
  -7   0  11 1320.86 1009.85   2
   0   7  11 443.555 1058.09   3
   0   7  11-549.650 1097.87   2
  -7   0  11 225.829 839.955   3
   7  -7  11-65.3259 1295.66   1
   1   6  -8 10002.9 662.369   4
  -1   7  -8 8250.79 496.850   4
  -7   1  -5 28204.4 675.160   4
   6  -7  -5 29397.3 1313.93   3
   1   6  -5 28178.6 990.877   4
  -6  -1  -5 27132.3 763.104   4
  -1   7  -5 28444.3 1076.79   2
  -1   7  -5 27699.8 907.404   4
   1   6  -5 30841.0 1209.81   2
  -7   1  -5 28342.5 1463.53   1
  -6  -1  -5 30595.3 1386.38   1
   1   6  -2 16439.2 699.769   2
  -6  -1  -2 16778.4 686.235   1
   1   6  -2 15095.9 774.023   4
   7  -6  -2 15916.7 560.430   3
  -6  -1  -2 16324.5 738.546   2
  -6  -1  -2 15213.0 704.824   4
  -7   1  -2 13911.3 676.678   4
  -7   1  -2 15628.2 710.874   1
  -7   1  -2 15046.5 613.280   2
  -1   7  -2 17365.1 643.359   2
  -1   7  -2 15280.7 782.470   3
   6  -7  -2 15354.8 635.012   3
  -1   7  -2 15605.2 775.698   4
   1   6  -2 15871.3 698.610   3
   7  -6  -2 16747.4 774.048   1
   6  -7  -2 15844.9 637.236   1
   6  -7   1 14157.6 727.774   1
  -1   7   1 13912.3 751.897   4
  -1   7   1 14016.0 849.161   2
   1   6   1 14678.9 679.547   3
  -7   1   1 14078.9 763.928   2
  -6  -1   1 12993.6 707.896   2
   1   6   1 13064.9 743.957   2
  -7   1   1 13878.6 744.504   1
  -6  -1   1 15086.4 822.292   4
   1   6   1 15507.3 813.339   4
   6  -7   1 14000.7 739.544   3
   7  -6   1 15490.5 738.864   1
  -6  -1   1 14776.8 799.410   1
   7  -6   1 14891.1 793.104   3
  -7   1   1 13792.0 799.614   4
  -1   7   1 15196.9 682.114   3
  -6  -1   4 59819.3 1500.21   4
  -1   7   4 62651.7 1674.20   3
   1   6   4 55139.8 1655.61   3
   1   6   4 58682.1 1408.35   4
  -7   1   4 66094.8 1023.01   3
   1   6   4 64212.4 1011.85   1
  -7   1   4 58623.0 1528.26   4
   1   6   4 61511.0 1885.17   2
  -6  -1   4 65319.3 1162.55   3
  -1   7   4 58426.3 1462.84   4
  -1   7   4 54146.4 1014.56   1
   6  -7   4 65035.2 1990.71   3
  -6  -1   4 60762.2 1698.23   2
  -7   1   4 60232.7 1796.21   2
   7  -6   4 61124.2 1859.88   1
   6  -7   4 52587.0 1836.32   1
  -7   1   7 23416.6 1101.41   3
   7  -6   7 20774.3 708.474   2
  -7   1   7 21473.1 1128.20   4
  -1   7   7 21839.6 1363.87   3
   1   6   7 25126.3 1493.89   3
   6  -7   7 25324.4 1717.70   1
   1   6   7 23934.6 1133.05   1
  -1   7   7 23074.7 1136.32   1
   1   6   7 22899.8 952.342   4
  -7   1   7 21743.7 1433.66   2
   6  -7   7 22363.2 698.213   2
  -6  -1   7 23147.6 1179.72   3
  -1   7   7 22176.7 1053.04   4
   7  -6   7 26140.0 1627.64   1
  -6  -1   7 24780.9 1405.14   2
  -6  -1   7 22569.2 1100.54   4
   7  -6   7 22434.4 755.299   2
   7  -6  10 3114.20 545.262   2
   7  -6  10 4345.79 1328.39   1
  -7   1  10 3857.91 896.639   3
   6  -7  10 4327.00 1431.55   1
  -1   7  10 3866.74 1102.97   3
  -7   1  10 3320.71 734.258   4
  -6  -1  10 2740.09 995.976   3
  -6  -1  10 3160.69 694.977   4
  -6  -1  10 4099.30 1072.13   2
  -7   1  10 3940.61 1117.04   2
  -7   1  10 2044.23 1395.90   1
   6  -7  10 3459.87 552.953   2
   1   6  10 2281.68 837.893   1
  -6  -1  10 2053.27 1513.73   1
  -1   7  10 3439.29 933.976   1
   1   6  10 1174.60 982.169   3
  -5  -2  -6 47358.8 1838.57   1
   2   5  -6 46422.4 1631.32   2
   2   5  -6 42335.3 1200.77   4
  -2   7  -6 43538.8 994.749   4
  -7   2  -3 240984. 2950.50   1
  -5  -2  -3 241123. 2334.72   4
  -5  -2  -3 244261. 2907.29   2
  -7   2  -3 239106. 2102.29   4
  -2   7  -3 245441. 2088.84   2
   5  -7  -3 239744. 2700.89   3
   2   5  -3 236553. 2629.17   4
  -2   7  -3 245344. 2456.75   4
   2   5  -3 246012. 2677.60   2
   7  -5  -3 249587. 2252.39   3
  -7   2  -3 247817. 2189.72   2
  -2   7  -3 233475. 3068.37   3
  -5  -2  -3 250089. 2505.71   1
   7  -5   0 407078. 2681.73   3
  -2   7   0 402898. 3231.61   4
  -2   7   0 385486. 2891.32   1
  -5  -2   0 391584. 2651.94   3
   5  -7   0 403917. 2746.43   3
  -5  -2   0 403644. 2880.50   1
  -2   7   0 406517. 2728.26   3
  -7   2   0 397213. 3162.38   4
   5  -7   0 401852. 2536.61   1
  -7   2   0 397859. 2828.69   2
   7  -5   0 397893. 3119.13   2
   2   5   0 401518. 2455.14   3
   2   5   0 410273. 2954.78   2
   2   5   0 397746. 3219.33   4
  -2   7   0 409433. 3103.51   2
  -5  -2   0 395631. 3205.91   4
   7  -5   0 396265. 2714.51   1
  -5  -2   0 405129. 2909.84   2
  -7   2   0 410979. 2831.28   1
  -7   2   3 232154. 3105.36   2
   2   5   3 230756. 3014.52   3
  -7   2   3 227910. 1380.81   3
  -5  -2   3 237861. 1626.24   3
   5  -7   3 238840. 3173.47   3
   7  -5   3 228842. 2890.17   1
  -7   2   3 225658. 2729.26   4
  -5  -2   3 231614. 2756.07   2
  -5  -2   3 228460. 2676.27   4
   2   5   3 234157. 3029.94   2
   5  -7   3 205021. 3093.03   1
  -2   7   3 235746. 2686.61   3
   2   5   3 219863. 2525.90   4
   7  -5   6 20814.3 717.290   2
   2   5   6 22635.3 1363.81   3
   2   5   6 24645.2 1017.40   1
  -5  -2   6 21373.5 982.896   4
  -7   2   6 24426.0 984.878   3
  -2   7   6 24118.0 1291.99   3
  -7   2   6 20271.2 1066.24   4
  -2   7   6 22016.2 1005.09   4
   2   5   6 22135.9 1380.49   2
  -5  -2   6 23543.1 1222.06   2
  -7   2   6 20649.6 1319.03   2
   2   5   6 23672.8 874.371   4
   7  -5   6 23807.3 703.724   2
  -2   7   6 22690.1 1061.81   1
   5  -7   6 24342.8 666.512   2
   5  -7   6 22964.2 1579.19   1
   7  -5   6 27074.0 1502.19   1
  -2   7   9 60147.3 2068.81   1
   2   5   9 58723.4 2381.82   3
  -7   2   9 65513.4 1854.64   4
   5  -7   9 63986.3 2819.06   1
  -5  -2   9 62784.1 2173.12   2
  -5  -2   9 65014.0 1655.75   4
  -7   2   9 56371.3 2905.78   1
  -2   7   9 63545.8 1593.74   4
  -7   2   9 58409.9 2353.82   2
  -5  -2   9 60919.7 3088.67   1
   7  -5   9 61303.5 1524.40   2
   5  -7   9 68170.5 1478.05   2
  -2   7   9 60422.7 2253.50   3
   7  -5   9 61485.8 2580.03   1
  -5  -2   9 61585.1 2133.63   3
  -7   2   9 62797.3 1985.10   3
   2   5   9 63152.5 1983.01   1
  -5  -2  12 9604.02 1351.67   3
   2   5  12 8106.81 1429.96   3
  -2   7  12 8762.87 1329.73   3
   7  -5  12 10241.5 1638.38   1
  -7   2  12 10152.0 1264.60   3
   2   5  12 11178.8 1336.28   1
  -7   2  12 11078.6 1994.66   1
   2   5  12 9420.42 1631.95   2
   7  -5  12 8880.51 1750.86   3
  -5  -2  12 11877.2 1351.02   2
  -5  -2  12 6887.78 1914.72   1
  -7   2  12 10537.2 1535.30   2
   5  -7  12 8584.02 1815.63   1
  -2   7  12 7271.36 1479.66   2
  -3   7  -7 1798.08 243.330   4
   3   4  -7 2856.47 533.839   4
  -3   7  -4 64576.9 1203.57   4
   3   4  -4 63675.6 1653.28   2
  -3   7  -4 65636.0 1173.17   2
   3   4  -4 63179.9 1433.39   4
  -7   3  -4 65354.6 1916.35   1
  -4  -3  -4 64630.8 1536.38   1
  -7   3  -4 61564.3 946.778   4
  -4  -3  -4 62387.5 1225.48   4
   4  -7  -4 65461.5 1715.70   3
  -3   7  -1 172872. 2027.12   3
   4  -7  -1 169879. 1260.66   1
  -4  -3  -1 167106. 2035.06   4
   7  -4  -1 174250. 2339.93   2
  -4  -3  -1 170953. 1540.05   1
   3   4  -1 173087. 1934.77   2
   4  -7  -1 168471. 1781.09   3
   7  -4  -1 168618. 2213.01   4
  -3   7  -1 170038. 2386.89   1
   3   4  -1 164258. 2106.75   4
  -3   7  -1 170634. 1679.26   2
  -4  -3  -1 166067. 2008.96   2
  -7   3  -1 162770. 1930.81   4
  -7   3  -1 162418. 1521.04   2
   7  -4  -1 170428. 1333.17   3
   7  -4  -1 173258. 2024.44   1
  -4  -3  -1 171075. 2160.22   3
  -3   7  -1 165036. 2054.20   4
  -7   3  -1 168832. 1891.03   1
   3   4  -1 168236. 1361.31   3
  -7   3   2 33112.9 1046.36   1
   3   4   2 35314.0 684.877   1
   4  -7   2 30518.5 1218.71   1
   4  -7   2 34906.3 744.032   2
   3   4   2 32054.6 975.155   4
   7  -4   2 32226.8 1025.99   1
  -7   3   2 29938.5 1164.05   2
   3   4   2 34967.3 1068.95   2
   3   4   2 34114.4 1143.57   3
  -7   3   2 31824.3 1078.67   4
  -7   3   2 35005.8 535.005   3
   4  -7   2 32781.0 1052.69   3
  -4  -3   2 31413.7 975.115   2
  -4  -3   2 35427.3 584.633   3
  -4  -3   2 32110.5 1022.50   4
   7  -4   2 33225.3 640.643   2
  -3   7   2 32810.3 951.740   3
   3   4   5 12626.6 1140.91   3
  -3   7   5 10952.4 855.523   1
  -4  -3   5 12621.3 886.060   2
  -7   3   5 9645.75 774.136   4
  -4  -3   5 11764.1 773.820   3
  -3   7   5 11059.0 908.364   3
  -4  -3   5 10833.1 745.228   4
   7  -4   5 10778.7 1000.24   1
   4  -7   5 12610.9 1320.40   1
   3   4   5 12794.6 736.692   1
   3   4   5 12503.4 663.745   4
  -7   3   5 13074.3 705.374   3
   3   4   5 12128.5 1016.60   2
   4  -7   5 12020.2 491.235   2
   7  -4   5 12396.4 514.775   2
  -7   3   5 11420.0 1099.25   2
   4  -7   5 10740.9 1043.33   3
   3   4   8 14314.4 1455.09   3
  -3   7   8 13339.0 908.677   4
   3   4   8 9792.99 484.996   4
   7  -4   8 14661.8 928.769   2
   7  -4   8 14398.2 1409.12   1
  -4  -3   8 14211.7 1116.95   2
   3   4   8 13641.4 1096.65   1
   3   4   8 10374.3 483.159   4
  -7   3   8 13211.8 984.184   3
  -7   3   8 15062.9 1383.35   2
  -4  -3   8 14670.2 883.751   4
  -3   7   8 13137.4 1137.93   3
  -3   7   8 13615.3 889.667   4
   4  -7   8 14877.8 774.834   2
   4  -7   8 11391.6 1591.88   1
  -7   3   8 15195.0 1025.44   4
   7  -4   8 13651.3 877.613   2
  -3   7   8 12237.1 1175.05   1
  -4  -3   8 11853.2 1675.57   1
   4  -7  11 5357.03 1534.26   1
  -7   3  11 4946.70 993.873   3
  -4  -3  11 5800.25 1207.89   3
   3   4  11 7118.58 1108.08   1
  -4  -3  11 6118.89 1723.59   1
  -3   7  11 6594.18 1247.97   1
  -7   3  11 5810.69 1300.41   2
   7  -4  11 5488.62 1338.51   1
   3   4  11 5921.73 1348.38   3
  -4  -3  11 6608.42 1094.57   2
  -7   3  11 6182.21 1623.30   1
  -3   7  11 7296.43 1423.68   2
  -3   7  11 5039.76 1159.95   3
   3   4  11 4041.18 1195.27   2
   4   3  -8 10946.5 788.403   4
  -4   7  -5 11642.4 518.625   4
   3  -7  -5 11299.7 1030.36   3
   4   3  -5 11291.6 717.180   4
   4   3  -5 11180.5 932.037   2
  -3  -4  -5 13814.1 961.021   1
  -7   4  -5 12043.4 1197.61   1
  -7   4  -2 45316.2 1233.48   1
   7  -3  -2 43566.3 622.629   3
  -7   4  -2 45357.1 992.941   4
  -3  -4  -2 44611.0 1136.11   4
  -3  -4  -2 48869.8 806.296   1
  -4   7  -2 44366.4 1512.91   1
   4   3  -2 46649.3 1214.28   2
  -4   7  -2 44293.3 1082.92   4
   4   3  -2 44476.5 765.479   3
  -4   7  -2 46852.2 690.592   2
   7  -3  -2 45036.6 1243.18   4
   7  -3  -2 42964.2 1366.36   2
  -3  -4  -2 46459.8 1321.51   2
   3  -7  -2 43435.0 1113.58   3
  -4   7  -2 41931.9 1323.98   3
  -3  -4  -2 45173.3 1345.36   3
   4   3  -2 45676.2 1199.35   4
  -7   4  -2 47865.8 654.687   2
  -3  -4   1 163620. 1376.48   3
  -4   7   1 159966. 1351.87   1
   7  -3   1 158409. 1943.43   4
   4   3   1 156469. 1886.88   3
   4   3   1 161869. 1657.47   1
   3  -7   1 153970. 2180.16   1
  -7   4   1 161491. 1450.80   3
  -7   4   1 159073. 2195.47   4
   7  -3   1 157433. 1824.46   1
  -4   7   1 158033. 1733.83   3
  -7   4   1 156209. 2187.51   2
  -3  -4   1 158928. 2066.32   4
  -3  -4   1 160500. 1877.67   2
   4   3   1 158726. 1996.84   4
  -7   4   1 158862. 1813.87   1
   3  -7   1 156225. 1817.36   3
   7  -3   1 163739. 1651.41   2
   3  -7   1 161686. 1855.96   2
   4   3   1 161256. 1881.95   2
   4   3   4 57368.5 1880.07   3
   4   3   4 58661.6 1241.16   1
   3  -7   4 60762.0 1761.78   3
  -4   7   4 57156.3 1468.00   3
   3  -7   4 58604.4 2121.76   1
   3  -7   4 60710.5 974.489   2
   7  -3   4 62179.9 985.246   2
  -3  -4   4 58324.7 1440.57   2
  -3  -4   4 54946.4 1340.30   4
  -7   4   4 55232.3 1469.03   4
   7  -3   4 58057.2 1607.88   1
  -7   4   4 58447.0 1128.05   3
   4   3   4 57071.5 1204.86   4
  -7   4   4 55069.1 1839.82   2
   4   3   4 56458.0 1560.03   2
  -3  -4   4 62107.4 1331.49   3
  -4   7   7 3849.05 1001.16   1
  -3  -4   7 3853.42 589.115   4
  -7   4   7 3371.12 673.931   3
   3  -7   7 4587.57 1298.92   1
   4   3   7 3355.78 762.478   1
   7  -3   7 3431.93 937.560   1
  -4   7   7 3742.80 623.383   4
   3  -7   7 3530.67 518.426   2
   4   3   7 3504.69 975.131   3
  -3  -4   7 3508.48 1308.31   1
  -7   4   7 2956.41 660.697   4
  -4   7   7 4330.02 840.616   3
   4   3   7 2817.53 364.003   4
   7  -3   7 3564.50 581.798   2
  -7   4   7 2444.60 934.548   2
  -3  -4   7 3103.70 706.827   2
  -3  -4   7 3326.27 783.860   3
   3  -7  10 9910.33 852.118   2
  -3  -4  10 12604.3 1142.57   2
  -3  -4  10 13243.7 1969.24   1
  -4   7  10 13965.1 1450.95   1
   3  -7  10 11514.5 1865.71   1
  -7   4  10 11824.6 981.532   4
   4   3  10 11250.7 1206.85   1
  -7   4  10 11456.0 1742.88   1
   4   3  10 14606.0 1540.79   3
  -4   7  10 9325.60 1153.32   3
   7  -3  10 10795.8 1330.28   1
  -4   7  10 12198.2 851.124   4
   7  -3  10 11408.6 1112.23   2
  -7   4  10 11742.1 1119.25   3
  -4   7  10 10217.6 1466.99   2
  -7   4  10 12768.6 1428.99   2
   5   2  -6 23284.1 1058.20   4
  -5   7  -6 19886.4 487.820   4
   2  -7  -3 249642. 3016.92   3
  -2  -5  -3 242362. 2611.88   4
   5   2  -3 242769. 2975.86   2
  -2  -5  -3 251993. 2047.70   1
  -7   5  -3 247514. 3285.31   1
   5   2  -3 236196. 2803.16   4
  -2  -5  -3 231799. 3210.05   3
  -7   5  -3 243787. 2096.02   4
  -5   7  -3 236088. 2291.46   4
   7  -2  -3 244165. 2899.94   4
  -5   7  -3 242756. 3615.99   1
   7  -2  -3 245567. 3349.67   2
  -7   5   0 424421. 3100.35   2
  -2  -5   0 428850. 3175.56   2
   2  -7   0 422119. 2841.63   1
   2  -7   0 416658. 3450.72   2
   5   2   0 435086. 3360.72   4
  -5   7   0 435944. 2992.11   3
   7  -2   0 432603. 3105.91   2
  -5   7   0 420291. 2847.00   1
   7  -2   0 428355. 3122.32   1
  -7   5   0 442397. 3131.83   3
   5   2   0 428197. 3203.40   1
   7  -2   0 438542. 3413.43   4
  -7   5   0 433174. 2847.00   1
   2  -7   0 422848. 2766.17   3
  -7   5   0 428476. 3356.15   4
   5   2   0 434315. 3025.63   2
  -2  -5   0 440102. 2706.51   3
   5   2   0 430099. 2468.19   3
  -2  -5   3 241659. 2260.64   3
   5   2   3 246525. 3366.26   3
   7  -2   3 249656. 2209.58   4
   5   2   3 250824. 2681.43   2
   5   2   3 253054. 2238.22   1
  -7   5   3 241524. 2704.81   1
  -7   5   3 230143. 2840.58   4
   2  -7   3 243557. 2803.92   3
  -7   5   3 234447. 3376.58   2
   2  -7   3 239780. 2442.99   4
   2  -7   3 248680. 1985.93   2
  -5   7   3 248026. 2045.06   1
  -2  -5   3 246634. 2498.71   2
   7  -2   3 254934. 1975.52   2
  -7   5   3 249113. 1996.51   3
   5   2   3 255146. 2403.63   4
   7  -2   3 243495. 2655.14   1
   2  -7   3 256914. 3797.11   1
  -2  -5   3 240734. 2602.55   4
  -5   7   3 243080. 2455.13   3
   5   2   6 39825.4 872.153   4
   5   2   6 43744.0 1419.56   1
  -2  -5   6 44911.2 1589.15   3
  -5   7   6 43479.9 1453.88   3
  -7   5   6 44134.3 1330.22   3
   5   2   6 38894.1 1849.48   3
   7  -2   6 43923.3 1214.16   2
  -2  -5   6 42657.3 1364.88   2
  -5   7   6 38413.3 1340.17   4
   2  -7   6 44807.9 2168.88   1
  -7   5   6 43906.8 1424.46   4
   2  -7   6 43786.4 1124.03   2
   5   2   6 44216.1 1532.80   2
   7  -2   6 41686.4 1559.55   1
  -7   5   6 40280.2 1816.07   2
  -2  -5   6 44044.6 2306.57   1
  -2  -5   6 40754.0 1205.15   4
  -7   5   9 11053.9 973.402   4
   2  -7   9 11701.4 1817.96   1
   5   2   9 11529.1 1140.28   1
   5   2   9 11535.7 1430.88   3
  -7   5   9 10215.5 1367.85   2
  -5   7   9 10274.6 1118.12   3
  -7   5   9 11421.6 1075.52   3
   7  -2   9 9510.59 1220.21   1
  -5   7   9 10606.5 920.398   4
  -2  -5   9 9633.38 641.130   4
  -5   7   9 9714.95 1369.02   2
  -2  -5   9 13022.0 1940.52   1
  -5   7   9 12147.9 1436.17   1
   2  -7   9 11691.9 869.600   2
  -7   5   9 9401.47 1529.63   1
   7  -2   9 10633.3 972.223   2
  -2  -5   9 12611.6 1066.08   2
   7  -2   9 11066.0 1071.02   2
  -5   7  12 5876.24 1441.11   2
  -7   5  12 9223.34 1222.92   3
  -2  -5  12 6451.35 1365.39   3
   7  -2  12 6549.09 1344.20   1
  -7   5  12 5531.30 1631.87   1
  -5   7  12 6891.45 1406.42   1
   5   2  12 6441.42 1196.38   1
   2  -7  12 7504.94 1962.58   1
   5   2  12 8079.00 1595.08   3
  -7   5  12 6758.17 1403.20   2
  -5   7  12 7399.39 1212.58   3
  -2  -5  12 5637.54 1827.40   1
   7  -2  12 8559.41 1724.18   3
   6   1  -7 20868.6 1052.85   4
   6   1  -4 58972.0 1542.81   4
   7  -1  -4 62527.3 1934.90   2
  -6   7  -4 61174.8 2182.68   1
   7  -1  -4 60170.5 1574.64   4
  -6   7  -4 59834.7 1127.92   4
   1  -7  -4 60511.7 1852.13   3
  -7   6  -4 57974.0 1010.68   4
  -7   6  -4 58879.8 1998.96   1
  -1  -6  -4 56996.4 1864.42   3
   6   1  -4 62344.1 1877.39   2
   7  -1  -1 13242.4 833.706   1
   7  -1  -1 14963.4 813.432   4
  -1  -6  -1 12966.7 850.649   2
  -1  -6  -1 15264.7 467.627   1
   1  -7  -1 12782.2 444.844   1
   6   1  -1 13804.3 334.361   3
   1  -7  -1 13202.7 661.295   3
  -6   7  -1 13489.9 832.863   3
  -7   6  -1 15348.4 742.848   1
   7  -1  -1 13470.3 764.421   2
   6   1  -1 13775.2 745.723   2
   7  -1  -1 11423.9 370.932   3
  -7   6  -1 15032.9 574.099   2
  -1  -6  -1 14227.1 700.197   3
  -6   7  -1 12775.4 770.608   1
   6   1  -1 14731.6 797.631   4
  -1  -6  -1 14661.5 809.597   4
  -7   6  -1 13646.1 860.098   3
  -1  -6   2 16453.1 632.730   3
   1  -7   2 16708.4 711.546   3
  -7   6   2 18917.7 626.078   3
  -7   6   2 16509.1 994.157   2
  -7   6   2 17377.1 694.783   1
  -6   7   2 17011.6 658.516   3
   6   1   2 18231.9 712.447   2
   1  -7   2 18343.2 688.638   2
  -7   6   2 18150.9 899.368   4
   6   1   2 17726.4 761.289   4
   1  -7   2 18947.2 1147.07   1
   6   1   2 17473.3 689.154   1
   7  -1   2 19244.1 659.743   2
   7  -1   2 18049.4 758.536   1
   1  -7   2 17184.1 811.410   4
  -6   7   2 18506.9 594.902   1
   7  -1   2 17982.6 729.536   4
  -1  -6   2 17578.9 846.439   4
  -1  -6   2 18403.6 717.162   2
   1  -7   5 34165.6 1427.92   3
  -6   7   5 31966.7 1141.97   3
  -6   7   5 32217.7 1212.18   4
  -1  -6   5 33436.8 2011.12   1
   7  -1   5 34461.4 1298.83   1
  -7   6   5 32483.4 1619.93   2
  -7   6   5 34086.2 1081.14   3
   1  -7   5 37861.2 1033.74   2
   7  -1   5 33675.6 1069.50   2
   7  -1   5 33131.7 771.903   4
  -1  -6   5 35315.2 1131.16   4
   6   1   5 34826.9 860.783   4
   1  -7   5 33186.5 1007.04   4
   1  -7   5 36455.3 1967.83   1
  -1  -6   5 35582.0 1354.53   3
   6   1   5 31973.2 1194.53   2
  -1  -6   5 34772.6 1113.93   2
   6   1   5 33861.6 1211.82   1
  -7   6   5 32560.0 1250.13   4
  -1  -6   8 12670.2 737.050   4
  -6   7   8 12694.9 1409.97   2
  -7   6   8 13240.3 1389.72   2
   6   1   8 12269.2 1387.20   3
   7  -1   8 12764.6 1165.73   1
   1  -7   8 16232.4 1870.60   1
  -6   7   8 12332.7 972.531   4
  -7   6   8 13785.7 1008.86   4
  -7   6   8 13810.2 1036.64   3
  -6   7   8 12523.0 1379.61   1
  -1  -6   8 13954.8 1822.68   1
   1  -7   8 13173.7 872.043   2
   7  -1   8 12742.6 960.377   2
   6   1   8 12697.9 1090.97   2
   6   1   8 14377.3 1174.66   1
  -7   6   8 12790.4 1492.43   1
  -6   7   8 13635.8 1069.34   3
  -1  -6   8 12933.6 957.056   2
  -6   7  11 18617.2 1441.07   3
  -6   7  11 23608.0 1982.61   2
  -7   6  11 22025.8 1989.23   2
   6   1  11 20475.1 1674.59   2
   6   1  11 19897.2 1575.16   1
   6   1  11 19525.6 1871.50   3
   1  -7  11 18949.4 1167.51   2
  -6   7  11 18713.9 1818.25   1
  -1  -6  11 18492.7 1275.64   2
   7  -1  11 20085.3 2058.41   3
  -7   6  11 19953.8 1421.54   3
   1  -7  11 24952.1 2402.05   1
  -7   6  11 17349.1 1881.06   1
  -1  -6  11 18571.7 2258.92   1
   7  -1  11 18445.1 1575.01   1
  -7   7  -5 89.8079 262.683   4
   7   0  -5 418.910 682.056   2
  -7   7  -5-103.760 252.858   4
   7   0  -5-235.766 504.053   4
  -7   7  -2 158432. 2470.28   1
   7   0  -2 158334. 2405.44   2
   0  -7  -2 155344. 2255.92   3
   7   0  -2 150569. 2340.51   4
  -7   7   1 343.902 334.967   1
   0  -7   1 133.153 419.456   2
   0  -7   1-45.6614 520.217   4
   7   0   1-85.2440 363.531   2
  -7   7   1 168.340 390.617   3
   7   0   1 147.592 423.020   1
   0  -7   1 247.382 344.076   3
   7   0   1 432.901 432.409   4
  -7   7   4 24821.6 911.873   3
  -7   7   4 24819.1 993.956   1
   7   0   4 25863.2 931.531   2
  -7   7   4 23458.6 1081.74   4
   7   0   4 25052.3 815.084   4
   0  -7   4 24793.6 1007.01   4
   0  -7   4 24663.1 888.729   2
   0  -7   4 23968.6 1064.19   3
   7   0   4 25999.7 1054.88   1
  -7   7   7 35.9801 582.306   4
   7   0   7-305.467 556.538   2
   7   0   7-237.919 713.516   1
   0  -7   7 128.866 499.334   2
  -7   7   7 1058.66 597.833   3
  -7   7   7 640.111 883.169   2
   0  -7   7 136.736 471.060   4
   0  -7   7-234.027 1331.96   1
   0  -7  10 85323.5 2165.27   2
   0  -7  10 93050.8 3797.60   1
   7   0  10 85942.1 2682.92   2
  -7   7  10 90483.1 3255.48   2
  -7   7  10 88023.2 2218.32   4
  -7   7  10 83954.9 3214.78   1
   7   0  10 84978.8 2636.83   1
   7   0  10 84117.1 3247.76   3
  -7   7  10 85644.2 2488.51   3
   0   8  -8 33854.7 1105.87   4
  -8   0  -5 98.8223 381.325   4
   8  -8  -5 435.805 587.079   3
  -8   0  -5-333.556 669.884   1
   0   8  -5-397.097 500.295   2
   0   8  -5-191.253 437.151   4
  -8   0  -2 231746. 2607.50   4
  -8   0  -2 240126. 2491.64   1
   8  -8  -2 236056. 2430.66   1
   0   8  -2 243353. 2435.57   2
   0   8  -2 243629. 2874.17   4
   0   8  -2 233327. 2574.10   3
   8  -8  -2 237880. 2263.66   3
  -8   0  -2 229569. 2444.87   2
   0   8   1-70.2072 453.938   3
   0   8   1 318.738 457.507   4
   8  -8   1 763.000 497.128   3
  -8   0   1 181.528 525.309   4
  -8   0   1 312.591 468.433   1
   8  -8   1-288.724 459.331   1
  -8   0   1-499.438 490.156   2
   0   8   1 42.4249 475.057   2
   0   8   4 78595.4 1959.56   3
  -8   0   4 75846.2 1834.85   4
   0   8   4 76225.1 2216.88   2
  -8   0   4 67073.7 928.335   3
   8  -8   4 76749.1 2143.77   1
  -8   0   4 76635.7 1992.67   2
   0   8   4 74744.1 1732.41   4
   0   8   4 69981.7 764.970   1
   8  -8   4 73697.2 2240.80   3
  -8   0   7-351.400 603.629   4
   0   8   7 133.601 546.277   4
   8  -8   7-1187.71 988.418   1
  -8   0   7 249.817 535.387   3
  -8   0   7-674.617 793.038   2
   0   8   7 183.919 562.053   1
   0   8   7-595.388 839.951   3
   0   8  10 38860.7 2126.05   3
  -8   0  10 37377.0 2035.81   2
  -8   0  10 36957.0 2588.25   1
   8  -8  10 38954.8 2362.87   1
  -8   0  10 37387.3 1615.69   3
  -8   0  10 41581.7 1645.58   4
   0   8  10 40415.3 1636.84   1
  -1   8  -6 747.557 421.529   4
  -7  -1  -6 632.294 767.214   1
  -1   8  -6 43.7230 546.852   2
   1   7  -6 947.747 639.677   2
   1   7  -6 127.657 428.041   4
  -8   1  -6 490.593 233.057   4
  -1   8  -3 5762.30 639.103   4
   1   7  -3 5520.07 696.707   3
  -8   1  -3 6566.01 729.671   1
   1   7  -3 6160.23 631.019   4
  -7  -1  -3 5657.95 561.591   4
   8  -7  -3 5519.21 537.210   3
  -8   1  -3 5298.34 543.802   4
  -1   8  -3 6017.89 541.695   2
  -1   8  -3 5343.19 765.224   3
   1   7  -3 6553.27 632.231   2
   7  -8  -3 5362.48 599.216   3
  -7  -1  -3 5714.73 625.404   1
  -7  -1  -3 5228.20 690.298   2
  -8   1  -3 6212.39 595.581   2
   8  -7   0 2240.09 436.004   1
   7  -8   0 2453.16 429.322   1
   1   7   0 2396.07 488.983   2
  -7  -1   0 2678.37 491.113   2
  -1   8   0 2262.81 507.972   4
  -8   1   0 1752.10 444.801   2
  -7  -1   0 2391.47 568.525   4
   1   7   0 2106.76 404.025   3
   1   7   0 1608.12 480.381   4
  -1   8   0 2239.42 514.573   2
   8  -7   0 2089.19 432.904   3
  -7  -1   0 2111.20 453.637   1
  -8   1   0 2833.40 588.160   4
  -1   8   0 2100.01 461.246   3
   7  -8   0 2079.61 444.473   3
  -8   1   0 2179.85 453.449   1
   7  -8   3 108874. 2347.54   3
   8  -7   3 103003. 2327.41   3
  -1   8   3 101075. 1920.24   4
  -7  -1   3 106130. 2082.79   2
  -8   1   3 104537. 2164.52   2
  -1   8   3 101271. 2366.08   2
   1   7   3 99138.7 837.575   1
   1   7   3 103454. 1922.20   4
   7  -8   3 97800.4 2266.24   1
  -8   1   3 102201. 2002.50   4
  -7  -1   3 103706. 2028.13   4
   1   7   3 106710. 2274.43   2
  -1   8   3 105748. 1961.61   3
   1   7   3 102966. 2050.90   3
   8  -7   3 107179. 2195.55   1
   1   7   6 7507.92 952.876   3
  -7  -1   6 6719.46 748.921   4
  -8   1   6 7286.67 770.243   4
  -1   8   6 8289.44 973.795   3
   7  -8   6 10291.0 1211.84   1
  -8   1   6 8313.95 641.173   3
   1   7   6 6056.15 694.050   4
   8  -7   6 6813.39 1053.36   1
   1   7   6 8816.31 642.459   1
  -7  -1   6 7944.13 691.502   3
  -1   8   6 7044.82 725.227   4
  -8   1   6 7643.42 976.206   2
  -7  -1   6 8512.49 943.422   2
  -1   8   6 7595.78 649.904   1
  -1   8   9 79402.1 2657.15   3
   8  -7   9 66050.0 1168.62   2
   1   7   9 68693.5 1482.58   4
  -7  -1   9 78998.1 2175.98   3
  -8   1   9 78210.0 2095.12   4
  -8   1   9 79062.1 2105.78   3
   1   7   9 84107.5 2143.23   1
   8  -7   9 81420.9 2924.67   1
  -7  -1   9 74317.1 1970.07   4
   1   7   9 76998.3 2677.77   3
  -7  -1   9 75925.3 2535.18   2
   7  -8   9 74456.3 1193.93   2
  -8   1   9 79201.6 2698.66   2
  -1   8   9 79076.2 2128.98   1
  -7  -1   9 76942.0 3250.01   1
   7  -8   9 80981.8 3031.44   1
  -1   8   9 74555.8 1710.85   4
  -7  -1  12 9091.03 1992.00   1
   8  -7  12 8094.87 1668.57   1
  -1   8  12 4748.44 1356.39   2
   7  -8  12 6542.94 1748.22   1
   1   7  12 6500.15 1390.64   3
  -7  -1  12 4900.10 1197.43   2
   1   7  12 7561.84 1559.37   2
  -1   8  12 5305.56 1251.04   3
  -8   1  12 8274.53 1946.45   1
  -8   1  12 5629.93 1335.77   2
  -2   8  -7 96034.9 1533.42   4
   2   6  -7 92379.9 1817.70   4
   2   6  -7 98626.7 2505.48   2
  -2   8  -4 41991.1 1180.04   4
  -6  -2  -4 46437.7 1399.62   1
   8  -6  -4 47447.0 1273.49   3
   2   6  -4 45728.6 1376.92   2
   6  -8  -4 44408.0 1420.40   3
  -8   2  -4 43379.6 963.140   4
  -2   8  -4 44276.5 1095.91   2
  -8   2  -4 47275.1 1581.08   1
  -6  -2  -4 43688.4 1122.05   4
   2   6  -4 45487.6 1296.39   4
  -8   2  -1 36258.4 899.826   2
   6  -8  -1 38660.3 799.626   1
  -6  -2  -1 37699.3 899.000   1
  -8   2  -1 38288.2 1096.34   4
   8  -6  -1 38521.2 1019.69   1
   2   6  -1 38583.6 1031.51   2
   2   6  -1 38150.0 1176.43   4
  -2   8  -1 37749.4 1136.91   4
   8  -6  -1 39232.5 823.135   3
  -6  -2  -1 38748.9 1042.77   2
   6  -8  -1 38899.3 940.353   3
  -2   8  -1 39781.9 960.871   2
   2   6  -1 37532.7 839.286   3
  -2   8  -1 39513.3 1053.29   3
  -6  -2  -1 36970.0 1121.43   4
  -8   2  -1 39101.1 1018.15   1
  -2   8   2 73116.4 1438.92   3
   8  -6   2 73674.4 1555.88   1
  -2   8   2 65356.2 1749.32   2
   2   6   2 72969.9 1542.10   3
   2   6   2 74485.7 1568.66   4
  -6  -2   2 72824.2 1536.04   2
   2   6   2 71799.2 925.036   1
  -8   2   2 72781.3 1627.88   1
   6  -8   2 74283.9 1769.35   1
  -8   2   2 68745.7 1607.89   4
  -6  -2   2 72505.7 1629.37   4
   2   6   2 77919.6 1699.01   2
   8  -6   2 75960.4 1810.03   3
  -2   8   2 74666.7 1637.83   4
  -8   2   2 69101.4 1648.72   2
   6  -8   2 72351.7 1643.72   3
  -6  -2   5 21412.4 1154.81   2
   2   6   5 23233.3 1353.02   3
   2   6   5 23947.5 797.715   1
   2   6   5 20113.7 1266.13   2
   6  -8   5 20782.7 1455.22   1
  -2   8   5 21428.0 1145.36   3
  -8   2   5 23271.5 783.060   3
   2   6   5 20790.2 931.975   4
  -6  -2   5 19521.8 985.303   4
   8  -6   5 19154.9 1259.81   1
  -2   8   5 20117.7 1015.54   4
  -8   2   5 21462.0 1274.48   2
  -6  -2   5 23099.9 866.531   3
  -8   2   5 20703.5 1045.13   4
  -2   8   5 22309.6 841.793   1
   8  -6   8 24541.8 1657.43   1
  -2   8   8 24131.8 1283.42   1
   2   6   8 26476.0 1698.37   3
  -2   8   8 24079.7 1484.56   3
   8  -6   8 25234.1 813.316   2
   8  -6   8 22986.2 793.831   2
  -8   2   8 25129.9 1282.25   4
  -2   8   8 24161.6 1193.92   4
  -8   2   8 23290.4 1178.93   3
  -6  -2   8 23709.9 1302.65   3
  -6  -2   8 26718.8 1488.61   3
   2   6   8 27895.0 1274.97   1
   6  -8   8 25992.9 1885.94   1
   2   6   8 24249.0 935.594   4
  -6  -2   8 24957.6 1444.77   2
  -6  -2   8 25732.7 1207.82   4
  -8   2   8 27600.3 1683.09   2
   6  -8   8 23804.7 740.885   2
  -6  -2  11 27253.1 1703.21   3
  -2   8  11 24499.9 1763.09   3
   2   6  11 26375.8 1528.04   1
   6  -8  11 32820.8 2382.14   1
  -6  -2  11 25396.8 1695.73   2
   8  -6  11 26807.0 2055.56   1
  -8   2  11 29416.9 1627.24   3
  -2   8  11 26256.3 2005.94   2
  -8   2  11 24771.9 2259.05   1
  -6  -2  11 26127.1 2456.77   1
  -8   2  11 25705.7 1905.02   2
  -2   8  11 26402.4 1573.85   1
   2   6  11 23869.0 1821.22   3
   3   5  -8 38840.4 1273.92   4
  -3   8  -8 24902.1 578.674   4
  -3   8  -5 42683.4 1113.23   2
  -8   3  -5 44889.5 1787.95   1
   5  -8  -5 44345.9 1624.84   3
  -3   8  -5 41317.5 1053.89   4
  -8   3  -5 39451.6 755.400   4
   3   5  -5 43591.9 1544.55   2
   3   5  -5 40263.2 1251.92   4
  -5  -3  -5 43395.0 1492.54   1
   3   5  -2 36446.1 1075.32   2
  -5  -3  -2 34529.1 1057.80   4
  -3   8  -2 34915.4 1442.80   1
  -8   3  -2 36854.6 1087.96   1
  -3   8  -2 33933.0 1184.24   3
   8  -5  -2 37553.4 712.215   3
  -8   3  -2 36011.4 771.388   2
   3   5  -2 35781.8 1131.10   4
  -8   3  -2 33274.1 946.862   4
   3   5  -2 35202.7 833.401   3
  -5  -3  -2 37127.8 839.288   1
   5  -8  -2 34992.8 723.641   1
   8  -5  -2 36243.0 1164.17   1
  -3   8  -2 37488.8 792.059   2
   5  -8  -2 36283.4 992.063   3
  -5  -3  -2 36368.3 1154.09   2
  -3   8  -2 32465.3 1029.53   4
   3   5   1 165985. 2121.53   2
  -3   8   1 153878. 1495.37   1
  -5  -3   1 159957. 1414.99   3
  -5  -3   1 161125. 2053.58   2
  -3   8   1 157323. 1883.54   3
   5  -8   1 158058. 1994.33   3
   8  -5   1 163668. 2276.85   3
   3   5   1 159495. 2186.34   4
   5  -8   1 157096. 2165.00   1
  -8   3   1 165076. 2219.01   2
  -5  -3   1 156576. 2222.97   4
  -3   8   1 152425. 2370.06   2
   8  -5   1 157858. 1818.46   2
  -8   3   1 152194. 2218.02   4
  -8   3   1 158658. 2033.06   1
   3   5   1 159315. 1942.83   3
  -3   8   4 106428. 1520.04   1
  -8   3   4 99634.0 2385.70   2
  -8   3   4 105133. 2035.23   4
  -5  -3   4 116596. 1517.51   3
  -8   3   4 115837. 1311.83   3
  -3   8   4 110109. 2070.56   3
   3   5   4 110037. 2430.65   3
   5  -8   4 112247. 2468.26   3
  -5  -3   4 108211. 1953.48   4
  -5  -3   4 110730. 2110.75   2
   8  -5   4 110248. 2284.83   1
   3   5   4 108567. 1829.74   4
   3   5   4 122685. 1487.66   1
   5  -8   4 111871. 2736.43   1
   5  -8   4 105979. 1022.81   2
   3   5   4 111188. 2309.56   2
  -5  -3   7 15392.4 1097.34   2
  -8   3   7 14310.1 1310.44   2
  -3   8   7 15164.5 1090.38   1
   8  -5   7 13089.1 680.792   2
  -3   8   7 15033.0 1162.66   3
  -8   3   7 14689.9 928.196   3
  -5  -3   7 17025.9 1088.97   3
  -5  -3   7 14625.3 929.840   4
  -3   8   7 14483.5 1008.30   4
   8  -5   7 13985.6 1253.91   1
   3   5   7 15064.2 949.175   1
   5  -8   7 16741.7 643.575   2
   5  -8   7 14827.1 1500.76   1
   3   5   7 14719.0 1331.78   3
  -8   3   7 14219.7 985.616   4
   8  -5   7 14640.6 637.687   2
   3   5   7 13384.4 724.958   4
   3   5  10 11246.9 1150.91   1
  -3   8  10 7514.96 1123.25   1
  -8   3  10 11196.6 1745.52   1
  -5  -3  10 8977.99 1115.09   2
   3   5  10 9710.07 1389.33   3
  -3   8  10 6733.97 1264.41   2
  -8   3  10 7507.11 1258.08   2
  -5  -3  10 9219.52 1799.53   1
  -3   8  10 10169.8 827.871   4
  -8   3  10 10005.0 1009.32   4
   5  -8  10 13238.3 1835.83   1
   5  -8  10 11091.2 733.281   2
   8  -5  10 8838.55 1416.44   1
  -3   8  10 9942.31 1235.61   3
  -8   3  10 11087.4 1108.31   3
   8  -5  10 9588.84 803.074   2
  -5  -3  10 10250.6 833.275   4
  -5  -3  10 8142.02 1159.99   3
   4   4  -6 4480.49 617.295   4
   4   4  -6 4673.31 847.073   2
  -4   8  -6 4620.48 406.838   4
  -4  -4  -6 3577.68 808.594   1
  -4  -4  -3 130305. 2404.40   2
  -4  -4  -3 127925. 1932.29   4
  -8   4  -3 131825. 1338.04   2
  -4   8  -3 122057. 2434.23   3
  -4   8  -3 125447. 2789.68   1
  -4   8  -3 130757. 1293.08   2
  -8   4  -3 126573. 1603.86   4
  -8   4  -3 129886. 2343.36   1
   8  -4  -3 127361. 1451.95   3
   8  -4  -3 125301. 2239.61   4
  -4   8  -3 124120. 1836.41   4
   4   4  -3 126167. 2095.21   4
   4  -8  -3 128738. 2135.04   3
  -4  -4  -3 136658. 1691.75   1
   4   4  -3 132489. 2194.07   2
   8  -4   0 41487.5 1134.79   2
  -4  -4   0 39400.9 1023.92   1
  -4  -4   0 34924.8 995.069   2
   8  -4   0 41076.0 1192.62   4
  -8   4   0 39378.8 1031.68   2
   8  -4   0 40398.2 987.862   3
  -4   8   0 37401.4 1049.01   1
  -4  -4   0 39901.7 1182.53   4
   4   4   0 40038.1 1174.10   4
  -4  -4   0 38719.5 939.820   3
  -4   8   0 38375.8 1136.46   2
   4  -8   0 39796.6 939.388   1
  -8   4   0 38392.6 988.944   1
   4   4   0 40288.5 1036.07   2
   4   4   0 38610.6 828.173   3
   8  -4   0 39804.8 1031.04   1
   4  -8   0 37223.2 941.235   3
  -8   4   0 42674.7 1201.99   4
  -4   8   0 41381.1 1056.83   3
  -4  -4   3 119961. 1956.30   2
  -8   4   3 123410. 2141.59   1
  -8   4   3 127658. 1209.81   3
   8  -4   3 129443. 1220.26   2
  -4  -4   3 121900. 1359.01   3
   4   4   3 122312. 1901.21   4
  -8   4   3 121120. 2528.81   2
   4   4   3 121850. 2387.76   3
  -4  -4   3 116949. 1994.69   4
   4   4   3 125938. 2141.77   2
  -8   4   3 115906. 2103.68   4
   4  -8   3 124808. 1331.95   2
   8  -4   3 120514. 2031.64   1
   4  -8   3 117131. 2150.59   3
   4  -8   3 117309. 2616.98   1
  -4   8   3 125550. 1132.54   1
  -4   8   3 120481. 1885.48   3
   4   4   3 130491. 1457.55   1
   8  -4   6 3171.86 828.732   1
  -4  -4   6 3050.48 567.312   4
  -4  -4   6 2709.13 617.677   2
   4   4   6 4199.45 786.104   2
   4  -8   6 3395.49 1140.57   1
  -4  -4   6 3002.73 595.542   3
  -8   4   6 2111.88 598.963   4
   8  -4   6 3171.70 398.504   2
   4   4   6 4021.62 633.910   1
  -8   4   6 3387.24 561.707   3
  -8   4   6 3956.93 965.984   2
   4   4   6 3198.81 461.889   4
   4   4   6 3772.30 920.861   3
  -4   8   6 2544.74 732.609   1
  -4   8   6 3839.28 738.096   3
   4  -8   6 3787.73 397.626   2
  -4   8   9 21423.1 1117.36   4
  -8   4   9 19606.5 1875.63   1
  -4  -4   9 20878.0 1305.85   2
  -8   4   9 22209.1 1277.56   4
  -8   4   9 19916.1 1614.31   2
  -4  -4   9 20310.1 1028.10   4
   4   4   9 21611.4 1323.27   1
   8  -4   9 20433.6 1634.27   1
  -4  -4   9 19380.7 2194.73   1
  -8   4   9 21096.5 1250.68   3
   4  -8   9 22017.2 2062.04   1
  -4   8   9 22864.8 1499.13   3
   4   4   9 21415.8 1714.29   3
  -4   8   9 19775.9 1444.40   1
   8  -4   9 21152.6 1112.50   2
   4  -8   9 21208.2 933.783   2
   8  -4  12 9714.89 1775.36   3
  -8   4  12 6575.12 1424.79   2
  -4  -4  12 6855.90 1929.22   1
   4   4  12 7157.19 1202.90   1
   4   4  12 9420.25 1550.82   2
  -4   8  12 7458.38 1331.84   3
   8  -4  12 8763.18 1565.37   1
  -8   4  12 6827.68 1703.02   1
  -4   8  12 8269.45 1643.32   2
   4  -8  12 5764.75 1763.09   1
  -8   4  12 8690.82 1197.23   3
  -4  -4  12 9425.78 1220.08   2
  -4  -4  12 7253.11 1327.20   3
   4   4  12 8898.57 1493.94   3
   5   3  -7 14627.6 918.439   4
  -5   8  -7 8138.51 288.709   4
   5   3  -4 109410. 2029.23   4
   8  -3  -4 106172. 2531.25   2
  -8   5  -4 105074. 1344.38   4
   8  -3  -4 105420. 2123.04   4
   5   3  -4 109168. 2274.54   2
  -5   8  -4 109811. 2881.92   1
  -3  -5  -4 113202. 1812.64   1
  -8   5  -4 112834. 2587.23   1
   3  -8  -4 109491. 2312.05   3
  -5   8  -4 104406. 1594.36   4
  -8   5  -1 162504. 1620.02   2
  -3  -5  -1 173340. 2399.18   4
  -5   8  -1 162978. 1817.09   2
   3  -8  -1 165922. 1239.20   1
   8  -3  -1 166969. 2236.20   1
   5   3  -1 173173. 2175.77   2
  -5   8  -1 154454. 2317.01   1
  -8   5  -1 167005. 2154.99   4
   5   3  -1 169856. 2325.02   4
  -8   5  -1 165861. 2068.40   1
   8  -3  -1 169438. 1294.44   3
  -3  -5  -1 169344. 1551.68   1
   8  -3  -1 173388. 2407.01   4
  -3  -5  -1 159061. 2102.69   3
   5   3  -1 166040. 1244.06   3
  -3  -5  -1 163508. 2255.16   2
   8  -3  -1 165804. 2387.91   2
   3  -8  -1 165884. 1932.13   3
  -8   5   2 35608.4 1208.19   4
  -3  -5   2 37530.4 1166.73   4
   8  -3   2 39028.7 843.874   2
   5   3   2 36733.0 1058.84   2
   5   3   2 36098.9 1260.73   3
   5   3   2 37265.1 871.326   1
  -5   8   2 36579.4 978.675   3
  -8   5   2 36784.4 1067.95   1
   5   3   2 36684.1 1067.89   4
   3  -8   2 34547.6 1388.12   1
  -8   5   2 36605.2 1364.83   2
   8  -3   2 35738.9 1033.93   1
  -3  -5   2 38940.4 777.721   3
  -5   8   2 37413.7 684.951   1
   8  -3   2 36638.6 1042.81   4
  -8   5   2 37926.1 758.546   3
  -3  -5   2 34948.7 1015.31   2
   3  -8   2 36067.9 1078.73   3
   3  -8   2 37447.9 912.608   2
   5   3   5 42020.7 1086.68   4
   3  -8   5 42141.6 2030.68   1
   8  -3   5 40176.1 1492.25   1
   8  -3   5 45448.1 983.136   2
   3  -8   5 44417.0 958.908   2
  -8   5   5 40059.0 1389.43   4
   5   3   5 41169.7 1190.53   1
  -8   5   5 40259.3 1736.10   2
   5   3   5 40062.5 1422.23   2
  -5   8   5 39785.2 1349.78   3
   5   3   5 42710.7 1829.98   3
  -3  -5   5 39363.9 1223.91   4
   3  -8   5 42000.3 1653.89   3
  -3  -5   5 42466.4 1305.41   3
  -8   5   5 44210.6 1127.21   3
  -3  -5   5 42360.7 1343.57   2
   8  -3   8 47779.8 1379.98   2
  -5   8   8 50796.3 2077.49   1
  -3  -5   8 48586.0 1428.30   4
   3  -8   8 49252.6 1305.69   2
   5   3   8 46405.3 2157.04   3
   3  -8   8 51614.0 2652.51   1
   5   3   8 47164.9 1690.97   1
  -5   8   8 47491.4 1793.19   3
  -8   5   8 51135.7 2251.19   2
   8  -3   8 48236.7 1933.26   1
  -3  -5   8 47550.0 2727.08   1
  -8   5   8 47152.6 1636.91   4
  -3  -5   8 46437.4 1687.80   2
  -5   8   8 48435.6 1586.40   4
  -8   5   8 48346.3 1608.39   3
  -8   5  11 11562.4 1190.32   3
  -5   8  11 10789.7 1284.36   3
  -8   5  11 11178.4 1825.44   1
  -3  -5  11 9178.57 1106.28   2
   3  -8  11 13295.5 1983.04   1
  -5   8  11 10792.0 1498.18   1
   5   3  11 9436.42 1397.07   2
  -3  -5  11 11174.6 1437.83   3
  -3  -5  11 9638.18 1839.20   1
   8  -3  11 8928.04 1635.32   3
   5   3  11 10776.9 1235.11   1
  -5   8  11 9501.48 1575.58   2
   8  -3  11 11877.8 1481.69   1
  -8   5  11 11861.3 1542.61   2
   5   3  11 10610.3 1533.99   3
   6   2  -8 24761.1 1195.58   4
   8  -2  -5 16715.6 1002.86   4
   6   2  -5 19453.2 1226.80   2
  -6   8  -5 18716.7 677.389   4
  -8   6  -5 17554.1 535.521   4
   6   2  -5 20412.2 1004.60   4
  -6   8  -2 77848.0 1866.35   3
   6   2  -2 80337.7 1720.59   4
  -8   6  -2 74194.9 1664.24   1
  -2  -6  -2 75785.5 1714.91   3
   2  -8  -2 77157.6 1573.58   3
  -6   8  -2 79608.1 1944.49   1
   8  -2  -2 79142.3 1746.70   4
  -2  -6  -2 78097.4 840.156   1
   8  -2  -2 77085.3 1810.16   2
  -8   6  -2 76355.5 846.149   2
  -6   8  -2 79695.4 938.488   2
  -2  -6  -2 75759.3 1858.54   2
  -8   6  -2 77122.9 1442.51   4
  -2  -6  -2 75762.7 1618.35   4
   6   2  -2 82435.9 1731.94   2
   2  -8   1 51419.2 1223.49   2
  -8   6   1 49365.6 1374.49   4
  -8   6   1 50570.2 1025.84   3
  -6   8   1 50317.6 960.146   1
   6   2   1 50650.5 1148.99   2
  -2  -6   1 49694.0 943.229   3
   2  -8   1 49686.6 1408.17   1
  -8   6   1 50836.9 1401.96   2
   2  -8   1 51395.8 1106.75   3
   8  -2   1 46303.9 1140.26   1
   8  -2   1 51795.7 1120.30   2
   6   2   1 49063.6 1125.49   1
  -8   6   1 50143.8 1082.67   1
   2  -8   1 49195.3 1315.61   4
   6   2   1 49268.6 1263.44   4
  -6   8   1 49192.6 1109.08   3
   6   2   1 47573.0 1228.22   3
  -2  -6   1 51595.8 1405.19   4
   8  -2   1 51173.4 1277.56   4
  -2  -6   1 49480.9 1184.25   2
   6   2   4 44091.9 1759.85   3
   8  -2   4 46469.8 1065.75   4
  -2  -6   4 46395.7 1270.82   2
  -8   6   4 46390.5 1814.44   2
   2  -8   4 47581.8 1488.18   3
  -6   8   4 47977.1 1126.88   1
  -2  -6   4 45171.4 1216.87   3
   6   2   4 44944.1 1348.55   2
   8  -2   4 47621.2 1410.68   1
  -8   6   4 46053.8 1476.38   4
   6   2   4 48683.4 1173.33   4
   2  -8   4 43855.5 1208.50   4
  -2  -6   4 46644.9 1323.80   4
  -8   6   4 48122.8 1074.59   3
  -8   6   4 47219.9 1404.07   1
  -6   8   4 47546.2 1293.86   3
   8  -2   4 49482.1 1046.53   2
   2  -8   4 45790.2 2113.42   1
   6   2   4 50395.2 1244.16   1
   2  -8   4 48270.5 1045.65   2
   6   2   7 90990.6 1248.57   4
   2  -8   7 110294. 3494.13   1
   6   2   7 98630.0 2925.37   3
  -2  -6   7 104759. 3623.16   1
  -2  -6   7 100035. 2142.24   2
  -8   6   7 95281.2 2223.80   4
  -8   6   7 99328.2 2925.83   2
   8  -2   7 103112. 2501.55   1
   8  -2   7 104167. 1942.63   2
  -6   8   7 98590.0 2186.79   4
   6   2   7 108326. 2294.94   1
  -6   8   7 106331. 2772.27   1
  -8   6   7 105678. 2138.46   3
  -2  -6   7 103886. 1986.44   4
   6   2   7 94498.1 2343.39   2
  -6   8   7 103059. 2321.51   3
   2  -8   7 106323. 1840.67   2
   2  -8  10 21572.3 2325.14   1
  -8   6  10 19975.3 1274.86   4
  -8   6  10 21611.7 1356.44   3
   6   2  10 18042.5 1757.78   3
  -6   8  10 20178.8 1199.62   4
   6   2  10 19266.8 1398.03   1
   8  -2  10 22712.1 1406.67   2
   2  -8  10 18096.3 1059.88   2
  -8   6  10 20295.8 1796.71   2
   8  -2  10 18103.3 1860.22   3
   8  -2  10 21579.2 1605.74   1
  -8   6  10 18237.0 1913.85   1
  -2  -6  10 19083.6 1257.32   2
  -6   8  10 20936.8 1457.33   3
  -6   8  10 19030.7 1776.82   2
  -6   8  10 15058.5 1576.53   1
  -2  -6  10 20463.3 2328.02   1
  -7   8  -6 8754.61 385.151   4
   8  -1  -6 9040.44 832.618   4
  -7   8  -6 8420.12 392.351   4
   7   1  -6 9228.79 801.089   4
  -8   7  -6 7468.05 288.309   4
   7   1  -3 117390. 2162.09   4
  -1  -7  -3 112694. 2300.32   3
  -7   8  -3 111715. 2552.48   1
  -8   7  -3 114123. 2440.50   1
   7   1  -3 113938. 2291.09   2
   8  -1  -3 115140. 2194.56   4
  -8   7  -3 109018. 1694.48   4
   8  -1  -3 115703. 2447.09   2
   1  -8  -3 114326. 2207.68   3
  -8   7   0 1365.85 509.661   3
  -1  -7   0 2251.57 589.485   4
   8  -1   0 2269.00 503.878   4
  -7   8   0 1603.51 431.488   1
   7   1   0 2427.99 600.157   1
   8  -1   0 2004.27 525.195   1
   1  -8   0 2491.85 650.695   2
  -7   8   0 1757.10 533.892   3
  -8   7   0 2004.81 517.428   2
   8  -1   0 2014.26 487.568   2
   7   1   0 2452.28 534.023   4
   1  -8   0 2148.20 417.626   3
   1  -8   0 2080.43 601.958   4
   7   1   0 1789.78 416.926   3
  -1  -7   0 1837.95 377.112   3
  -8   7   0 1541.25 433.537   1
   7   1   0 1982.37 465.508   2
   1  -8   0 1682.85 533.345   1
  -1  -7   0 1807.33 556.261   2
  -8   7   3 9919.56 849.720   4
   1  -8   3 8041.04 689.064   3
   1  -8   3 10253.7 1232.75   1
   8  -1   3 10317.9 737.124   1
  -1  -7   3 10064.5 782.981   4
   8  -1   3 9132.08 586.224   2
   7   1   3 9800.25 700.522   1
   7   1   3 9943.29 674.725   4
   1  -8   3 9594.05 594.668   2
   7   1   3 9503.03 660.143   2
   1  -8   3 8647.79 728.525   4
  -7   8   3 9992.55 640.158   3
  -8   7   3 8643.35 973.022   2
  -1  -7   3 11222.0 706.322   2
  -8   7   3 9770.88 693.835   1
   8  -1   3 10249.5 649.713   4
  -8   7   3 10189.5 583.117   3
  -1  -7   3 9183.51 644.200   3
  -7   8   3 9381.24 586.316   1
  -1  -7   6 1145.10 505.170   4
   8  -1   6 1138.51 283.768   4
   8  -1   6 1506.21 680.836   1
  -1  -7   6 1189.35 671.285   3
   7   1   6 1948.69 606.663   2
   1  -8   6 1427.08 507.902   4
  -8   7   6 1738.71 883.414   2
   1  -8   6 836.508 1155.46   1
  -7   8   6 510.186 589.893   4
   8  -1   6 631.738 466.486   2
   7   1   6 813.037 595.350   1
   1  -8   6 1045.97 441.129   2
  -7   8   6 1012.79 554.500   3
  -8   7   6 960.911 598.445   4
   7   1   6 2517.69 949.048   3
   7   1   6 2016.18 369.686   4
  -1  -7   6 1593.96 559.417   2
  -1  -7   6 657.364 1170.89   1
  -8   7   6 2375.11 543.657   3
  -7   8   9 14619.1 1096.54   4
  -7   8   9 15224.8 1171.83   3
  -8   7   9 14801.9 1681.94   1
   8  -1   9 15965.0 1674.22   3
   1  -8   9 15455.2 977.444   2
   1  -8   9 17180.5 2087.86   1
   7   1   9 15023.0 1299.39   1
  -7   8   9 15508.2 1632.13   2
  -1  -7   9 14904.1 1075.11   2
  -1  -7   9 15837.3 1987.31   1
  -8   7   9 14471.5 1112.38   3
   7   1   9 13371.8 1633.09   3
  -7   8   9 16236.3 1595.35   1
   8  -1   9 15550.9 1356.60   1
  -8   7   9 16894.0 1626.32   2
  -8   7   9 14080.3 1139.33   4
  -1  -7   9 13701.4 764.443   4
   8  -1  12 5540.97 1260.33   1
  -1  -7  12 7318.12 1917.20   1
  -8   7  12 4433.08 1441.99   1
  -1  -7  12 3960.06 1280.01   3
   1  -8  12 4763.09 1894.91   1
  -7   8  12 4096.18 1457.31   2
   7   1  12 4618.50 1109.97   1
  -8   7  12 3894.88 1018.56   3
  -7   8  12 7407.42 1566.76   1
   7   1  12 3582.59 1428.44   3
  -7   8  12 4618.75 1039.62   3
   8  -1  12 5619.26 1666.57   3
  -8   7  12 5737.23 1448.51   2
   8   0  -7 308.611 583.297   4
   0  -8  -4 69273.8 2106.05   3
   8   0  -4 71998.5 1833.28   4
   8   0  -4 71939.3 2132.98   2
  -8   8  -4 68900.4 2252.32   1
   8   0  -1-66.9178 474.647   2
  -8   8  -1-99.7582 598.376   3
  -8   8  -1-297.441 517.071   1
   8   0  -1 119.796 232.533   3
   0  -8  -1-220.313 420.260   3
   0  -8  -1-466.060 586.188   4
   0  -8  -1 3.10163 654.671   2
   8   0  -1 295.643 481.112   4
  -8   8   2 241809. 2283.11   3
  -8   8   2 251094. 2329.68   1
   0  -8   2 248015. 3609.16   1
   8   0   2 254297. 2511.28   2
   0  -8   2 245687. 2411.26   3
   0  -8   2 244445. 2930.55   4
   0  -8   2 249319. 2546.23   2
   8   0   2 248027. 2758.49   4
   8   0   2 243310. 2522.32   1
  -8   8   5-493.716 437.641   3
   0  -8   5 476.460 501.342   4
   0  -8   5 231.079 1101.83   1
   0  -8   5 496.152 560.839   3
   0  -8   5 258.085 447.685   2
  -8   8   5 336.178 508.108   1
   8   0   5 534.091 603.287   1
  -8   8   5 207.701 552.583   4
   8   0   5 159.047 363.820   4
   8   0   5-297.600 446.288   2
   8   0   8 35026.4 1607.67   1
  -8   8   8 34818.8 2029.76   2
   0  -8   8 35183.5 2469.79   1
   0  -8   8 35001.7 1177.65   4
   8   0   8 33750.4 2025.66   3
  -8   8   8 36794.3 1541.15   4
  -8   8   8 36774.1 1494.00   3
   0  -8   8 36184.7 1321.80   2
   8   0   8 31942.2 1399.43   2
   8   0  11 35.5155 1343.95   3
  -8   8  11 3431.16 1383.69   2
  -8   8  11 1406.83 1338.18   1
  -8   8  11-951.773 916.132   3
   8   0  11 108.507 953.742   1
   0  -8  11 627.656 680.907   2
   0  -8  11 743.242 1672.09   1
  -9   0  -6 14585.8 663.168   4
   0   9  -6 14052.3 871.673   4
   9  -9  -6 15766.1 1157.08   3
   0   9  -6 13829.6 991.944   2
   0   9  -3 997.954 558.432   4
  -9   0  -3-55.3149 542.521   1
  -9   0  -3 8.53090 475.992   4
   0   9  -3 482.880 638.590   3
   0   9  -3 165.473 447.398   2
   9  -9  -3-240.710 449.326   3
  -9   0  -3 223.044 540.803   2
   9  -9   0 91874.6 1630.66   3
  -9   0   0 93199.6 1686.38   1
   0   9   0 98553.1 1997.12   4
   0   9   0 100338. 1844.78   2
  -9   0   0 99153.6 1753.26   2
   9  -9   0 97226.9 1596.74   1
  -9   0   0 98061.4 1999.83   4
   0   9   0 95741.5 1587.04   3
   0   9   3-601.060 561.327   4
  -9   0   3 230.514 673.996   2
   0   9   3 462.303 645.193   3
   9  -9   3 376.190 789.738   1
   0   9   3 1050.25 709.491   2
  -9   0   3 476.119 703.328   1
  -9   0   3 403.334 629.826   4
   9  -9   3 13.3848 674.977   3
   0   9   6 15174.5 1153.76   3
  -9   0   6 16641.7 796.542   3
  -9   0   6 14656.4 1018.67   4
   0   9   6 12766.8 965.641   4
  -9   0   6 16104.9 693.351   3
   9  -9   6 15677.9 1362.55   1
   0   9   6 16061.9 651.759   1
  -9   0   6 15757.4 1216.06   2
   9  -9   9-148.807 1103.38   1
  -9   0   9 1396.82 778.813   4
   0   9   9-785.911 936.282   3
  -9   0   9 1000.74 914.589   2
   0   9   9-301.438 638.304   1
  -9   0   9-324.453 653.046   3
   0   9  12 10713.2 1680.50   2
  -9   0  12 13183.3 1602.69   2
   9  -9  12 14580.3 1869.94   1
  -9   0  12 9731.01 2066.75   1
   0   9  12 11603.7 1555.80   3
   1   8  -7 85856.1 2330.57   2
  -1   9  -7 86705.5 2153.23   2
  -1   9  -7 84020.1 1728.42   4
   1   8  -7 84799.6 1860.51   4
   1   8  -4 41798.2 1336.22   4
  -9   1  -4 42819.6 1119.26   4
  -9   1  -4 43563.3 1358.38   2
   1   8  -4 41699.7 1293.06   2
   9  -8  -4 42354.5 1250.46   3
  -9   1  -4 46204.8 1558.90   1
  -8  -1  -4 46352.9 1471.71   1
  -8  -1  -4 42135.4 1171.36   4
  -1   9  -4 45673.4 1222.12   2
   8  -9  -4 45788.0 1378.93   3
  -1   9  -4 44146.2 1320.92   4
  -8  -1  -4 42655.7 1481.11   2
   9  -8  -1 88118.9 1374.24   3
  -1   9  -1 87404.2 1553.64   3
   1   8  -1 89027.1 1581.70   2
  -8  -1  -1 92771.5 1815.54   4
  -8  -1  -1 91092.5 1526.21   1
  -9   1  -1 89794.2 1771.09   4
  -1   9  -1 91101.8 1582.30   2
   8  -9  -1 85640.5 1383.26   1
  -9   1  -1 87356.5 1555.74   1
   9  -8  -1 89006.1 1541.04   1
   1   8  -1 91862.0 1858.20   4
   1   8  -1 89839.4 1466.96   3
  -9   1  -1 89300.9 1535.43   2
  -1   9  -1 91351.1 1865.33   4
  -8  -1  -1 89212.8 1587.25   2
   8  -9  -1 87947.9 1443.88   3
   1   8   2 34082.5 1306.56   2
   8  -9   2 36620.3 1304.31   3
  -8  -1   2 35741.5 1359.70   1
  -9   1   2 34922.3 1297.57   1
   9  -8   2 38131.2 1262.43   1
  -1   9   2 36968.4 1278.39   4
  -8  -1   2 36247.9 1325.02   4
   1   8   2 36543.3 1296.90   4
  -8  -1   2 35574.7 1236.06   2
  -9   1   2 34277.2 1266.31   2
   1   8   2 35463.9 1155.61   3
  -1   9   2 36265.5 1402.45   2
   9  -8   2 35369.4 1349.96   3
  -9   1   2 36842.8 1305.48   4
  -1   9   2 32539.8 1093.42   3
   8  -9   2 39235.5 1341.83   1
   1   8   5 61531.1 1662.16   4
   9  -8   5 59780.6 2025.04   1
  -9   1   5 54471.9 1663.71   4
  -1   9   5 56798.9 927.538   1
   8  -9   5 59596.5 2116.17   1
  -9   1   5 61665.8 1984.18   2
   1   8   5 68277.3 1004.29   1
  -1   9   5 57462.7 1647.12   4
  -8  -1   5 60104.9 1126.23   3
  -8  -1   5 59042.3 1848.17   2
  -8  -1   5 64960.5 1145.51   3
   1   8   5 60884.4 1932.97   3
  -1   9   5 60262.9 1833.94   3
  -9   1   5 56878.4 984.580   3
  -8  -1   5 61442.4 1719.93   4
  -9   1   8 38340.0 1345.65   3
  -9   1   8 36104.7 1560.69   4
  -8  -1   8 39483.2 1588.08   3
  -1   9   8 39597.4 1377.49   1
  -9   1   8 38371.4 1938.51   2
   1   8   8 31422.4 1260.43   4
   9  -8   8 35063.8 2003.28   1
  -8  -1   8 35584.6 1350.33   3
  -8  -1   8 37778.0 1544.82   4
  -1   9   8 36619.8 1804.93   3
  -8  -1   8 36248.5 1774.40   2
  -1   9   8 34968.5 1426.43   4
   8  -9   8 39300.0 2158.36   1
   1   8   8 36793.5 1890.51   3
   1   8   8 41359.6 1369.27   1
  -9   1  11 33638.7 1612.19   3
   9  -8  11 32879.2 2247.80   1
  -8  -1  11 30435.8 2541.96   1
   8  -9  11 33673.1 2439.76   1
  -8  -1  11 32133.4 1929.23   2
   1   8  11 27576.5 1929.54   3
  -9   1  11 26983.5 2402.06   1
  -8  -1  11 30255.9 1607.51   3
  -1   9  11 26899.9 1855.73   3
  -9   1  11 29097.9 1953.55   2
   2   7  -8 7786.62 754.897   4
  -2   9  -8 6472.99 535.155   4
   7  -9  -5 107833. 2402.69   3
  -2   9  -5 109977. 1857.48   2
  -7  -2  -5 108500. 1699.54   4
  -9   2  -5 105847. 2637.05   1
   2   7  -5 109143. 2068.92   4
  -7  -2  -5 116819. 2440.18   1
  -9   2  -5 108072. 1473.72   4
   9  -7  -5 119750. 2281.46   3
   2   7  -5 107448. 2209.48   2
  -2   9  -5 106009. 1847.88   4
  -2   9  -2 73670.0 1636.48   4
  -9   2  -2 73114.5 1277.78   2
   2   7  -2 74715.3 1706.05   4
  -7  -2  -2 75188.5 1347.89   1
  -9   2  -2 72826.3 1539.39   1
   9  -7  -2 73830.7 1570.68   1
   7  -9  -2 73611.0 1389.63   3
   7  -9  -2 75307.7 1253.52   1
  -9   2  -2 72352.9 1513.06   4
  -7  -2  -2 74860.2 1570.60   2
  -2   9  -2 73349.5 1291.20   2
   9  -7  -2 72663.7 1180.45   3
  -2   9  -2 73241.2 1616.23   3
   2   7  -2 72847.3 1336.09   3
  -7  -2  -2 73123.5 1556.30   4
   2   7  -2 77991.2 1540.97   2
   2   7   1 43083.1 1111.71   3
   2   7   1 43188.9 1294.10   4
   9  -7   1 45214.4 1309.35   3
  -7  -2   1 40178.2 1161.40   2
  -7  -2   1 41678.6 1337.28   4
   7  -9   1 44304.2 1184.78   3
  -9   2   1 43737.6 1338.19   4
   9  -7   1 43292.3 1186.99   1
  -9   2   1 42648.8 1241.30   2
  -7  -2   1 40918.2 1287.69   1
  -9   2   1 42157.2 1221.65   1
   2   7   1 43579.8 1263.26   2
  -2   9   1 43922.8 1391.51   2
   7  -9   1 39881.9 1192.26   1
  -2   9   1 42272.1 1285.76   4
  -2   9   1 42629.1 1122.08   3
   2   7   4 4593.69 814.882   2
   2   7   4 4407.88 822.189   3
  -7  -2   4 5032.79 332.039   3
  -9   2   4 5581.77 290.550   3
  -9   2   4 6176.97 905.755   2
   7  -9   4 7165.23 1106.69   1
  -7  -2   4 6219.16 792.501   2
  -7  -2   4 5082.69 727.820   4
  -9   2   4 4938.06 733.025   4
   2   7   4 6606.24 383.354   1
   7  -9   4 5785.33 902.164   3
  -2   9   4 5969.88 705.160   4
  -2   9   4 6142.89 776.823   3
   9  -7   4 6993.67 954.140   1
   2   7   4 5641.04 657.104   4
   2   7   7 8711.87 1148.71   3
  -7  -2   7 10140.7 1047.95   2
  -9   2   7 10471.3 764.139   3
   7  -9   7 7303.26 263.206   2
  -9   2   7 11437.1 947.718   4
   2   7   7 10513.6 767.458   1
   2   7   7 7962.84 744.821   4
  -2   9   7 10731.8 822.501   1
  -7  -2   7 7623.60 790.439   4
  -2   9   7 11751.5 1131.95   3
  -7  -2   7 9558.80 864.462   3
   7  -9   7 13640.5 1464.58   1
  -2   9   7 8356.02 846.069   4
  -9   2   7 10271.2 1207.30   2
   9  -7   7 12783.2 1325.60   1
  -7  -2   7 11584.4 928.436   3
   2   7  10 14149.1 1127.12   1
  -2   9  10 12595.5 1120.83   1
   7  -9  10 11896.7 1729.16   1
  -9   2  10 12643.8 1143.73   4
   2   7  10 11936.7 1504.83   3
  -2   9  10 12732.6 1379.76   3
  -7  -2  10 12953.8 1333.75   2
  -7  -2  10 11421.2 1002.19   4
  -9   2  10 14834.9 1552.14   2
  -9   2  10 7770.05 1630.16   1
  -7  -2  10 11775.4 1831.08   1
  -7  -2  10 13267.5 1174.97   3
  -9   2  10 12681.9 1072.83   3
   9  -7  10 13140.5 1512.73   1
  -6  -3  -6 74958.8 2191.27   1
   3   6  -6 67574.4 1689.40   4
  -3   9  -6 71003.2 1415.70   4
  -3   9  -6 70236.1 1575.19   2
  -9   3  -6 63457.8 887.566   4
   3   6  -6 70719.3 2054.15   2
   3   6  -3 22115.3 923.219   3
   9  -6  -3 22667.8 748.193   3
  -9   3  -3 23751.4 1142.56   1
  -3   9  -3 24267.3 1259.77   3
  -6  -3  -3 22440.6 1122.34   2
  -9   3  -3 22307.2 855.427   4
   3   6  -3 25297.7 1056.24   2
  -3   9  -3 23872.2 979.665   4
   6  -9  -3 23347.0 997.034   3
  -3   9  -3 23658.3 740.164   2
  -6  -3  -3 23426.3 970.335   4
  -9   3  -3 23752.7 783.668   2
   3   6  -3 23103.5 1039.45   4
  -6  -3  -3 24274.0 891.520   1
  -3   9   0 55816.3 1451.51   4
  -6  -3   0 56447.9 1263.84   1
   3   6   0 58611.8 1108.59   3
  -9   3   0 56710.1 1425.13   4
  -9   3   0 54689.2 1250.26   2
  -3   9   0 57071.5 1347.17   1
   3   6   0 58400.3 1315.91   2
   3   6   0 58533.8 1457.58   4
  -3   9   0 57532.1 1264.85   3
  -6  -3   0 57282.7 1460.39   4
   9  -6   0 60914.5 1292.64   1
  -3   9   0 58208.7 1384.60   2
  -6  -3   0 60738.8 1321.91   2
  -6  -3   0 59510.1 1241.37   3
   6  -9   0 57254.2 1206.22   3
   6  -9   0 56110.1 1122.27   1
   9  -6   0 57811.1 1425.26   2
   9  -6   0 58136.7 1212.88   3
  -9   3   0 55303.8 1242.71   1
  -6  -3   3-35.1130 574.293   2
  -9   3   3 892.958 717.484   2
  -9   3   3 1048.82 618.697   4
   9  -6   3 841.897 658.810   1
   3   6   3 454.990 612.102   2
   6  -9   3 963.862 641.250   3
  -9   3   3 604.400 642.394   1
  -6  -3   3 844.728 239.784   3
   6  -9   3 1316.51 919.061   1
   3   6   3 362.540 497.224   4
  -6  -3   3 957.025 578.547   4
  -9   3   3 775.865 188.532   3
  -3   9   3 983.373 599.666   3
   3   6   3 1083.22 341.786   1
   9  -6   3 452.521 233.385   2
   3   6   3 429.184 643.549   3
  -6  -3   6 31805.5 1397.02   2
   6  -9   6 31935.6 1787.77   1
   3   6   6 37100.3 1097.74   1
   6  -9   6 29140.4 576.415   2
   3   6   6 29730.6 1108.40   4
  -3   9   6 31011.5 1301.32   4
  -6  -3   6 36780.2 1238.96   3
   3   6   6 31689.0 1618.97   3
  -3   9   6 32956.9 1111.83   1
  -9   3   6 29890.3 1604.86   2
  -6  -3   6 29474.9 1202.10   4
  -9   3   6 33458.4 1018.54   3
  -9   3   6 27538.6 1273.13   4
   9  -6   6 26566.6 504.890   2
   9  -6   6 31081.6 1534.62   1
  -3   9   6 34975.5 1502.04   3
  -6  -3   9 243.002 846.292   3
   3   6   9 325.141 705.151   1
   9  -6   9 942.393 398.275   2
  -6  -3   9-78.1277 637.055   4
  -9   3   9 245.211 960.685   2
  -6  -3   9-434.248 779.986   2
  -3   9   9 646.061 556.299   4
  -9   3   9-771.761 711.714   3
   3   6   9 668.971 960.274   3
  -3   9   9 106.938 757.724   1
   6  -9   9-165.733 1269.01   1
  -6  -3   9 80.6112 1313.94   1
   6  -9   9 188.409 316.091   2
  -9   3   9 820.654 762.196   4
  -3   9   9 567.856 879.682   3
   9  -6   9 1351.97 1100.04   1
   9  -6  12 16311.5 1796.90   1
  -6  -3  12 19968.1 1651.75   2
  -9   3  12 16209.2 1750.48   2
   3   6  12 14791.8 1796.17   2
  -3   9  12 18089.1 1924.74   2
  -6  -3  12 18669.7 2298.22   1
   3   6  12 19898.8 1840.38   3
  -3   9  12 17306.3 1580.50   3
  -9   3  12 15700.5 2170.64   1
   6  -9  12 22451.5 2301.65   1
   4   5  -7 86908.6 1960.51   4
  -4   9  -7 85584.1 1350.58   4
  -4   9  -4 1248.68 373.287   2
   4   5  -4 1281.66 617.356   2
  -9   4  -4 1950.39 784.606   1
   4   5  -4 816.247 542.029   4
  -9   4  -4 1179.03 408.639   4
  -5  -4  -4 1276.88 560.561   1
  -5  -4  -4 459.682 497.435   4
   5  -9  -4 1275.98 611.620   3
   9  -5  -4 1618.99 473.375   3
  -4   9  -4 752.403 901.009   1
  -4   9  -4 401.947 479.089   4
  -9   4  -1 186220. 2372.96   4
   9  -5  -1 191256. 2693.69   4
   4   5  -1 189848. 1630.81   3
  -5  -4  -1 185504. 1884.86   1
  -4   9  -1 186314. 2734.38   1
   5  -9  -1 192277. 2124.88   3
   5  -9  -1 189526. 1562.56   1
   9  -5  -1 194631. 2394.05   1
   9  -5  -1 189871. 2726.60   2
  -9   4  -1 185732. 1908.05   2
  -5  -4  -1 189281. 2464.07   4
  -4   9  -1 188428. 2360.30   3
   4   5  -1 190752. 2303.26   2
  -9   4  -1 186737. 2220.86   1
  -5  -4  -1 190085. 2511.50   3
   4   5  -1 186967. 2558.18   4
   9  -5  -1 190825. 1641.52   3
  -4   9  -1 187186. 2069.99   2
  -4   9  -1 189527. 2500.84   4
  -5  -4  -1 191939. 2402.89   2
  -9   4   2 25870.1 1161.18   2
   5  -9   2 25182.0 1236.48   1
  -5  -4   2 23028.5 946.698   2
   5  -9   2 23604.2 972.443   3
   4   5   2 25102.6 1045.22   3
   9  -5   2 23097.8 972.933   1
   4   5   2 25271.1 741.438   1
   4   5   2 25168.7 986.297   4
   9  -5   2 23679.0 710.224   2
  -5  -4   2 26818.9 1080.78   4
  -4   9   2 20601.3 500.006   1
  -9   4   2 23627.5 1069.36   4
  -9   4   2 25342.6 593.996   3
  -5  -4   2 25681.5 577.203   3
  -9   4   2 25648.9 1000.34   1
  -4   9   2 22660.7 881.738   3
   4   5   2 25143.7 1014.46   2
  -5  -4   5 68571.7 1426.86   3
  -4   9   5 68425.5 1479.78   1
  -9   4   5 65158.7 1766.89   4
   4   5   5 73758.0 1430.92   1
   4   5   5 65362.4 1497.16   4
  -5  -4   5 69043.4 1790.00   2
   5  -9   5 65055.1 940.222   2
  -5  -4   5 66519.6 1662.06   4
  -4   9   5 66103.1 1750.82   3
  -9   4   5 68683.0 1220.58   3
   9  -5   5 67080.0 1933.13   1
   4   5   5 67623.0 2150.93   3
   5  -9   5 66293.3 2379.33   1
  -9   4   5 68542.4 2250.66   2
   4   5   5 65510.8 1953.83   2
   9  -5   5 64437.5 874.761   2
  -5  -4   8 15102.2 1158.96   2
  -4   9   8 12431.1 967.659   4
  -9   4   8 16218.1 1431.64   2
  -4   9   8 13766.9 1129.62   1
  -4   9   8 12666.4 1041.92   4
   4   5   8 15410.5 1072.18   1
  -5  -4   8 15239.5 991.484   4
   4   5   8 12579.8 699.906   4
   5  -9   8 13133.9 639.899   2
  -4   9   8 14920.0 1222.22   3
   5  -9   8 15208.1 1782.03   1
  -9   4   8 14555.6 938.984   3
   9  -5   8 15006.9 806.679   2
   9  -5   8 13452.0 660.838   2
   4   5   8 12891.0 1384.12   3
  -9   4   8 13659.3 1080.36   4
   9  -5   8 14651.5 1349.09   1
  -5  -4   8 13308.7 1858.71   1
  -5  -4   8 14019.1 1164.63   3
  -4   9  11 37297.4 1866.02   1
  -4   9  11 39348.6 2404.77   2
  -4   9  11 37599.8 1955.28   3
  -5  -4  11 39304.3 2062.49   3
  -5  -4  11 35652.6 1849.54   2
   4   5  11 38278.5 2253.11   3
   4   5  11 37671.8 1772.00   1
   5  -9  11 41160.5 2727.48   1
  -9   4  11 41294.9 1774.40   3
  -5  -4  11 41704.8 2896.76   1
  -9   4  11 34813.0 2500.15   1
  -9   4  11 37851.9 2265.85   2
   9  -5  11 37137.6 2187.93   1
   5   4  -8 14307.1 986.433   4
  -9   5  -5 63049.4 1032.95   4
  -5   9  -5 67004.2 1314.96   4
   5   4  -5 64178.2 1994.14   2
   5   4  -5 66618.8 1691.97   4
  -9   5  -2 28306.7 1075.25   1
   9  -4  -2 27671.4 1226.17   2
  -5   9  -2 30056.1 1375.83   1
  -9   5  -2 29342.1 978.013   4
   9  -4  -2 29644.6 1165.81   4
   5   4  -2 30402.0 1133.11   4
  -4  -5  -2 29512.2 1098.35   4
  -4  -5  -2 27601.9 1165.07   2
  -5   9  -2 31322.2 733.311   2
   4  -9  -2 29073.1 1000.47   3
  -9   5  -2 29517.9 661.685   2
   9  -4  -2 30029.1 1215.68   1
  -5   9  -2 29945.7 1053.23   4
   5   4  -2 29326.2 1084.18   2
   4  -9  -2 29958.8 524.915   1
  -4  -5  -2 27627.5 1181.75   3
   5   4  -2 30768.9 649.941   3
  -5   9  -2 29300.1 1239.25   3
   9  -4  -2 30539.1 556.476   3
  -4  -5  -2 30300.7 713.488   1
   4  -9   1 204079. 2281.24   3
   4  -9   1 203670. 2621.33   1
  -9   5   1 199399. 2275.36   1
   9  -4   1 203269. 2210.76   2
   5   4   1 203378. 2239.56   1
  -4  -5   1 205888. 2652.50   4
  -9   5   1 201012. 2628.68   2
  -9   5   1 203411. 2738.25   4
  -5   9   1 203992. 2217.36   3
  -5   9   1 204923. 1911.06   1
  -4  -5   1 205509. 1793.43   3
  -9   5   1 202236. 1971.27   3
   9  -4   1 207720. 2545.54   4
   9  -4   1 202289. 2305.88   1
   5   4   1 203590. 2381.43   2
   5   4   1 200151. 2306.52   3
  -4  -5   1 201649. 2345.98   2
   5   4   1 207066. 2612.50   4
   4  -9   4 1758.15 381.059   2
  -5   9   4 2946.17 642.927   3
   4  -9   4 1501.87 1033.02   1
   4  -9   4 1282.02 659.114   3
   5   4   4 2622.22 502.188   1
  -5   9   4 1381.04 333.090   1
   5   4   4 2097.71 656.026   2
  -4  -5   4 1746.24 591.084   4
  -9   5   4 855.963 824.971   2
   5   4   4 1375.03 809.116   3
  -4  -5   4 1722.36 445.271   3
  -4  -5   4 1820.32 591.403   2
   9  -4   4 2276.44 340.496   2
   5   4   4 1708.99 492.474   4
  -9   5   4 1656.81 594.340   4
  -9   5   4 1802.11 373.491   3
  -9   5   4 1558.79 658.866   1
   9  -4   4 1709.38 722.364   1
   9  -4   7 102650. 1595.96   2
  -5   9   7 103722. 2432.27   1
   9  -4   7 99715.9 2604.87   1
  -4  -5   7 97926.4 3468.79   1
   5   4   7 103874. 2113.93   1
   5   4   7 96556.7 1634.95   4
  -9   5   7 103243. 1976.44   3
  -9   5   7 99787.9 2317.71   4
  -5   9   7 98634.1 2364.45   3
  -4  -5   7 105207. 2396.17   3
   4  -9   7 100901. 1535.53   2
  -4  -5   7 100115. 2079.48   4
  -4  -5   7 99869.4 2305.48   2
   4  -9   7 100470. 3305.65   1
   5   4   7 96634.9 2874.65   3
  -9   5   7 103756. 2999.93   2
   5   4  10 9215.39 1418.62   3
  -9   5  10 9127.96 1440.58   2
   9  -4  10 7994.67 871.783   2
   5   4  10 10187.4 1090.56   1
  -9   5  10 8256.82 1541.36   1
  -5   9  10 8927.57 901.680   4
  -4  -5  10 10190.5 1990.18   1
  -5   9  10 8918.22 1195.39   3
  -5   9  10 9212.07 1272.50   1
  -9   5  10 9653.66 1049.02   3
   9  -4  10 7167.97 1228.01   1
   4  -9  10 9736.13 734.262   2
   4  -9  10 7713.91 1752.22   1
  -5   9  10 9425.57 1503.85   2
  -9   5  10 10388.0 1034.07   4
  -4  -5  10 9574.60 1065.17   2
   6   3  -6 34806.1 1341.54   4
  -6   9  -6 33738.3 845.444   4
  -9   6  -3 899.890 200.387   2
   6   3  -3 893.329 616.814   2
   3  -9  -3 1549.33 607.632   3
   6   3  -3 760.902 545.246   4
  -9   6  -3 684.618 698.882   1
  -3  -6  -3 1274.96 393.749   1
  -6   9  -3 726.250 825.953   1
  -6   9  -3 967.200 506.095   4
  -3  -6  -3 666.184 566.874   4
  -6   9  -3 1017.05 207.973   2
  -3  -6  -3 895.288 678.885   3
  -9   6  -3 1281.43 455.076   4
   9  -3  -3 1017.13 727.950   2
   9  -3  -3 1030.07 610.822   4
   6   3   0 79482.8 1690.39   4
  -9   6   0 77177.4 1561.66   3
   9  -3   0 75401.3 1384.43   3
   9  -3   0 75414.9 1550.68   2
  -3  -6   0 84816.4 1797.42   4
  -9   6   0 79449.9 1430.51   1
  -9   6   0 81304.1 1686.74   4
   9  -3   0 80112.5 1700.31   4
  -9   6   0 74957.2 1503.28   2
  -3  -6   0 76047.2 1579.74   2
  -3  -6   0 76195.1 1350.76   3
   6   3   0 79049.8 1521.03   2
   3  -9   0 76368.0 1422.08   1
  -6   9   0 79527.6 1530.11   3
   3  -9   0 78022.5 1378.36   3
  -6   9   0 78206.0 1502.10   1
   6   3   0 77056.1 1223.61   3
   9  -3   0 75707.6 1541.31   1
   6   3   3 23102.5 812.663   1
   9  -3   3 22383.6 1000.48   1
  -9   6   3 21930.3 1119.41   4
  -6   9   3 22971.7 941.531   3
  -3  -6   3 23147.8 775.216   3
   6   3   3 21811.3 1260.29   3
  -9   6   3 23124.9 690.502   3
  -9   6   3 22485.0 1374.57   2
   6   3   3 23297.3 973.632   4
   9  -3   3 24279.8 736.878   2
   9  -3   3 22608.4 904.271   4
  -6   9   3 24925.7 682.155   1
   3  -9   3 22143.7 1001.61   3
  -9   6   3 22893.0 988.613   1
  -3  -6   3 23829.5 968.562   2
  -3  -6   3 22447.5 1044.69   4
   3  -9   3 22364.1 1488.53   1
   6   3   3 24022.3 1011.38   2
   3  -9   3 24408.3 807.161   2
   3  -9   6 74145.3 1362.94   2
   9  -3   6 73936.7 2054.18   1
   6   3   6 70100.9 1970.61   2
   9  -3   6 78881.7 1422.16   2
  -3  -6   6 74177.9 1820.47   2
  -3  -6   6 72458.2 1897.31   3
  -3  -6   6 74057.5 2933.60   1
  -9   6   6 68858.1 1921.33   4
   3  -9   6 74861.6 2790.61   1
   6   3   6 81331.2 1780.35   1
   6   3   6 75062.7 1464.22   4
  -6   9   6 76921.2 1924.06   3
   6   3   6 75278.9 2472.84   3
  -9   6   6 72920.1 2472.40   2
  -9   6   6 77485.1 1593.20   3
  -3  -6   6 70936.9 1744.87   4
   9  -3   9-19.4731 761.768   2
   6   3   9 536.216 809.835   1
  -6   9   9 1157.33 698.040   4
  -3  -6   9 733.267 602.549   4
  -6   9   9 282.556 967.429   1
  -9   6   9 18.2777 1095.31   2
   9  -3   9-30.0341 925.388   1
  -3  -6   9 644.031 719.012   2
  -9   6   9 209.130 704.534   3
  -6   9   9 373.886 777.673   3
   3  -9   9 1894.11 1430.25   1
  -6   9   9 832.972 1106.65   2
   3  -9   9 302.931 518.859   2
   6   3   9 567.140 1088.17   3
  -9   6   9 730.122 705.969   4
  -3  -6   9 989.017 1488.88   1
  -3  -6  12 13154.2 2189.94   1
  -6   9  12 13943.2 1829.00   2
   3  -9  12 15505.5 2255.34   1
   6   3  12 12289.7 1328.77   1
  -3  -6  12 13821.7 1574.13   3
  -9   6  12 14764.2 1318.36   3
  -9   6  12 13698.4 1899.83   1
  -9   6  12 15082.7 1741.97   2
  -6   9  12 14507.6 1467.03   3
   6   3  12 14395.4 1793.84   3
   9  -3  12 12176.4 1448.74   1
   9  -3  12 14086.6 2031.62   3
  -7   9  -7 7300.13 309.396   4
   7   2  -7 9846.97 916.205   4
  -9   7  -4 7025.65 555.699   4
  -2  -7  -4 6392.14 550.670   1
   7   2  -4 7367.12 757.578   4
   9  -2  -4 5749.79 930.803   2
   2  -9  -4 5858.73 836.512   3
   9  -2  -4 6057.60 726.535   4
  -9   7  -4 7481.82 1054.16   1
  -7   9  -4 6116.38 582.742   4
   7   2  -4 7198.01 886.837   2
   7   2  -1 45173.4 1362.46   4
   2  -9  -1 43918.8 1149.96   3
  -7   9  -1 41929.6 1322.71   1
   9  -2  -1 45534.9 803.414   3
   9  -2  -1 40678.5 1339.35   2
  -9   7  -1 40506.0 961.303   2
   9  -2  -1 44424.6 1373.73   4
  -9   7  -1 42609.0 1215.60   1
  -7   9  -1 43879.3 1376.50   3
  -2  -7  -1 37573.4 1286.38   2
  -2  -7  -1 43625.8 1355.14   4
  -9   7  -1 40906.9 1387.49   3
   9  -2  -1 35272.9 1276.85   1
  -9   7  -1 41107.1 1246.41   4
   2  -9  -1 41623.6 797.066   1
  -2  -7  -1 45905.6 891.207   1
  -2  -7  -1 41111.0 1207.21   3
   7   2  -1 40524.0 1225.78   2
   7   2  -1 42559.5 667.766   3
   2  -9   2 72905.9 1419.72   2
  -2  -7   2 73826.0 1242.88   3
  -7   9   2 70896.0 1368.51   3
   2  -9   2 70738.1 2053.80   1
   9  -2   2 70548.9 1466.58   1
  -9   7   2 69562.5 1722.90   4
  -9   7   2 67039.6 1375.23   1
  -7   9   2 73774.6 1162.84   1
   7   2   2 72058.6 1387.88   1
   7   2   2 70015.0 1794.08   3
  -2  -7   2 76119.9 1761.96   4
   9  -2   2 71039.4 1550.64   4
  -9   7   2 71213.2 1223.15   3
   2  -9   2 69848.3 1447.89   3
   7   2   2 73885.0 1598.30   4
   7   2   2 74295.5 1460.06   2
  -9   7   2 70927.7 1936.28   2
   9  -2   2 71957.9 1324.97   2
  -2  -7   2 71285.1 1470.23   2
   2  -9   2 68554.1 1638.98   4
  -7   9   5 104986. 1973.84   3
   7   2   5 112133. 1961.74   1
   7   2   5 114597. 1822.10   4
  -9   7   5 114492. 2314.18   1
  -2  -7   5 112337. 2035.07   2
  -2  -7   5 120375. 3422.40   1
  -2  -7   5 110232. 2121.06   4
  -9   7   5 109489. 2818.92   2
   2  -9   5 112160. 1675.26   2
   2  -9   5 110156. 1950.39   4
  -9   7   5 111895. 2355.09   4
   9  -2   5 121536. 1696.33   4
   7   2   5 112810. 2177.83   2
   2  -9   5 112463. 3233.85   1
   9  -2   5 110940. 2242.00   1
  -7   9   5 108665. 1875.22   1
   9  -2   5 113850. 1734.92   2
  -2  -7   5 110926. 2051.42   3
  -9   7   5 109065. 1756.44   3
   2  -9   5 105772. 2352.40   3
   2  -9   8 7104.25 692.245   2
  -7   9   8 8835.34 952.836   4
   2  -9   8 9665.51 1648.47   1
   7   2   8 7746.15 933.849   1
  -7   9   8 6888.18 1203.01   1
  -7   9   8 5751.60 849.850   3
   9  -2   8 7121.80 1023.02   1
  -9   7   8 9171.92 865.214   3
  -9   7   8 7834.37 1347.23   2
  -2  -7   8 10817.8 1803.42   1
  -2  -7   8 7065.65 773.788   4
  -2  -7   8 7830.35 847.413   2
  -7   9   8 8444.33 1384.74   2
   7   2   8 8255.88 1381.47   3
   9  -2   8 8826.76 771.048   2
  -9   7   8 7436.93 931.552   4
  -9   7  11 29890.4 2157.10   2
   2  -9  11 33547.2 2821.00   1
   7   2  11 26253.6 1629.65   1
  -2  -7  11 28532.4 1522.37   2
   7   2  11 27479.2 2120.36   3
  -9   7  11 31555.8 1605.61   3
  -7   9  11 29680.3 2230.17   2
  -9   7  11 27850.9 2240.15   1
   9  -2  11 32724.6 2461.17   3
   9  -2  11 29046.4 1853.57   1
  -7   9  11 30885.1 1714.01   3
  -7   9  11 26794.2 1913.09   1
  -2  -7  11 28356.7 2644.01   1
   9  -1  -5 58307.6 1775.39   4
  -9   8  -5 62467.7 1178.59   4
  -8   9  -5 58843.6 1218.41   4
   8   1  -5 58855.6 1750.83   4
   8   1  -2 33968.4 1296.57   2
  -1  -8  -2 33687.6 1499.52   2
   8   1  -2 34277.0 1284.06   4
  -1  -8  -2 33704.2 1295.86   4
  -9   8  -2 31087.2 670.996   2
  -1  -8  -2 32965.4 1227.63   3
  -8   9  -2 35026.6 1465.53   3
  -8   9  -2 30322.6 1318.37   1
   9  -1  -2 32893.2 1296.09   4
  -1  -8  -2 31885.3 496.557   1
   9  -1  -2 31736.5 1286.75   2
   1  -9  -2 31071.9 1139.25   3
  -9   8  -2 29035.7 1257.24   1
   9  -1   1 94656.9 1841.91   4
   8   1   1 97703.0 1734.16   1
  -9   8   1 94312.9 1581.82   3
   9  -1   1 96625.4 1676.57   2
  -1  -8   1 93579.7 1961.32   4
   1  -9   1 91853.1 1759.88   2
  -8   9   1 92374.0 1586.75   3
  -8   9   1 94079.5 1495.27   1
  -1  -8   1 93153.6 1761.32   2
   1  -9   1 92113.0 1920.05   4
  -9   8   1 88265.9 1961.37   2
   8   1   1 98236.6 1840.79   3
   8   1   1 96210.9 1682.16   2
   9  -1   1 90782.6 1684.36   1
   1  -9   1 91732.5 2029.58   1
  -9   8   1 92741.2 1537.31   1
   1  -9   1 90333.8 1525.98   3
   8   1   1 97253.8 1902.02   4
  -1  -8   1 94944.1 1488.40   3
  -1  -8   4 41295.5 1355.66   4
   9  -1   4 44088.9 1183.80   4
  -1  -8   4 42369.5 1222.14   3
  -8   9   4 40097.2 1116.58   1
  -9   8   4 39578.7 1786.90   2
   8   1   4 41364.4 1189.94   4
   1  -9   4 40286.3 1303.06   4
   9  -1   4 42744.8 1127.40   2
  -1  -8   4 43808.3 2114.60   1
  -1  -8   4 39806.2 1188.46   2
  -9   8   4 39247.0 1447.62   4
   1  -9   4 43646.8 2108.74   1
   8   1   4 42543.0 1230.32   1
   8   1   4 40634.8 1228.11   2
   9  -1   4 41205.8 1302.23   1
  -9   8   4 42781.0 1093.63   3
  -9   8   4 41972.1 1262.71   1
  -8   9   4 44011.6 1224.47   3
   1  -9   4 41127.0 1105.28   2
   1  -9   4 41859.4 1338.80   3
   8   1   7 83342.1 2082.00   2
  -1  -8   7 92395.3 2007.95   2
  -1  -8   7 88663.6 3468.38   1
  -9   8   7 86884.1 2864.93   2
  -8   9   7 83445.0 2180.05   4
   1  -9   7 84885.8 1778.24   2
   9  -1   7 88954.9 2251.01   1
  -9   8   7 89202.2 2282.23   4
   8   1   7 91868.9 2168.45   1
  -9   8   7 89749.2 1951.82   3
  -8   9   7 89345.6 2088.21   3
   9  -1   7 85255.7 1861.92   2
   8   1   7 85181.1 2847.61   3
  -8   9   7 86178.7 2912.55   2
   8   1   7 84130.1 1330.11   4
  -1  -8   7 88847.0 1903.26   4
  -8   9   7 86892.3 2209.52   1
   9  -1  10 22147.4 1560.23   1
   9  -1  10 20474.2 1951.18   3
  -9   8  10 19387.2 1305.95   3
   1  -9  10 18444.3 1099.84   2
  -8   9  10 21280.1 1871.31   1
  -9   8  10 19428.3 1879.46   1
   8   1  10 20748.6 1909.48   3
  -9   8  10 20924.6 1867.81   2
  -1  -8  10 22020.8 2417.36   1
  -8   9  10 20510.8 1277.57   4
  -9   8  10 20734.7 1383.83   4
  -8   9  10 21413.2 1952.70   2
   1  -9  10 23124.3 2390.22   1
  -1  -8  10 17282.6 1160.50   2
  -8   9  10 20279.9 1381.94   3
   8   1  10 19781.4 1441.85   1
  -9   9  -6 17947.0 632.892   4
  -9   9  -6 17913.1 638.005   4
   9   0  -6 18892.3 1160.45   4
   0  -9  -3 270.267 640.334   3
   9   0  -3 503.431 678.821   2
   9   0  -3 601.496 581.468   4
  -9   9  -3-219.809 765.222   1
   9   0   0 109908. 1954.60   2
  -9   9   0 110986. 1786.95   1
  -9   9   0 104616. 1915.57   3
   9   0   0 105500. 1989.78   1
   0  -9   0 107739. 2101.10   2
   9   0   0 110567. 2096.43   4
   0  -9   0 109840. 2164.60   4
   0  -9   0 104874. 1666.77   3
   9   0   3 203.371 469.379   4
  -9   9   3-169.126 463.774   3
   9   0   3 163.966 562.705   1
   0  -9   3-448.492 1080.85   1
   0  -9   3-191.952 613.156   4
  -9   9   3-30.8257 442.828   1
   0  -9   3 174.460 487.012   3
   0  -9   3 526.732 518.201   2
   9   0   3 634.131 465.593   2
   0  -9   6 13972.9 877.373   4
  -9   9   6 14037.0 864.136   3
   0  -9   6 14452.2 1701.50   1
  -9   9   6 11959.8 1013.45   4
   9   0   6 14281.2 712.995   4
  -9   9   6 12596.2 931.451   1
   0  -9   6 13301.2 834.845   2
  -9   9   6 11804.2 1316.65   2
   9   0   6 14395.0 985.666   1
   9   0   6 13010.8 858.192   2
  -9   9   9-274.945 1153.88   1
  -9   9   9-365.340 770.640   4
   9   0   9 49.3059 1124.39   3
  -9   9   9-985.510 1066.84   2
  -9   9   9 459.072 705.316   3
   0  -9   9 507.997 1423.68   1
   9   0   9-172.694 866.580   1
   0  -9   9 77.8400 591.957   2
   0  -9  12 11087.5 2159.47   1
  -9   9  12 9070.66 1576.66   1
   9   0  12 8725.47 1271.69   1
  -9   9  12 9333.31 1179.10   3
  -9   9  12 10471.5 1768.45   2
   9   0  12 9453.26 1725.71   3
   0  10  -7 361.917 575.813   4
 -10   0  -7-274.952 352.886   4
   0  10  -7 282.873 707.499   2
   0  10  -4 309584. 3634.40   4
   0  10  -4 316300. 3375.66   2
   0  10  -4 309498. 3900.09   3
  10 -10  -4 314859. 3395.39   3
 -10   0  -4 315104. 3764.23   1
 -10   0  -4 310756. 3590.66   2
  10 -10  -1-142.534 486.652   1
 -10   0  -1 347.284 618.694   4
   0  10  -1 28.5337 555.272   4
 -10   0  -1-116.324 502.242   2
 -10   0  -1 199.860 482.213   1
   0  10  -1-107.171 549.771   3
   0  10  -1 341.267 482.517   2
  10 -10  -1 178.007 462.997   3
  10 -10   2 255911. 3170.32   1
 -10   0   2 241537. 3313.48   1
  10 -10   2 251475. 3320.92   3
   0  10   2 254298. 2946.97   3
 -10   0   2 254767. 3445.66   4
   0  10   2 250359. 3314.94   4
  10 -10   5-455.248 832.079   1
 -10   0   5-56.5700 687.188   2
 -10   0   5-230.017 596.243   4
   0  10   5 1195.43 716.796   3
   0  10   5-443.351 551.875   4
 -10   0   5 135.117 129.930   3
 -10   0   5 134.591 126.530   3
  10 -10   8 68160.4 2683.63   1
 -10   0   8 71718.9 1856.34   3
   0  10   8 78871.0 1573.11   1
 -10   0   8 66299.5 2405.73   2
 -10   0   8 67079.1 2100.74   4
 -10   0   8 69396.2 1581.05   3
   0  10   8 64270.0 2379.14   3
   0  10   8 57083.7 1876.76   4
  10 -10  11 1491.60 1424.29   1
 -10   0  11 245.488 1071.33   2
   0  10  11 433.109 1066.36   3
 -10   0  11-482.804 1467.02   1
   1   9  -8 687.521 558.283   4
  -1  10  -8 1475.74 550.195   4
  -1  10  -5 17024.8 921.231   4
  10  -9  -5 17537.3 1024.40   3
  -9  -1  -5 15598.2 1112.60   1
   1   9  -5 15209.5 921.975   4
  -9  -1  -5 17142.4 832.340   4
  -1  10  -5 16894.0 913.415   2
   1   9  -5 16132.8 960.924   2
 -10   1  -5 15888.9 1161.21   1
   9 -10  -5 17159.2 1066.95   3
 -10   1  -5 15387.2 737.692   4
   9 -10  -2 19555.3 849.895   1
  -1  10  -2 20758.4 869.188   2
   1   9  -2 19634.6 902.600   3
 -10   1  -2 19600.9 983.336   4
   1   9  -2 18169.0 1002.50   4
  -9  -1  -2 20902.2 890.750   1
  10  -9  -2 20642.9 958.895   1
  -9  -1  -2 19863.2 989.932   4
  -1  10  -2 21726.2 1075.21   4
 -10   1  -2 18910.9 848.680   2
  -9  -1  -2 19883.9 941.829   2
   1   9  -2 19498.2 892.805   2
 -10   1  -2 21777.4 944.628   1
  10  -9  -2 19822.6 755.719   3
   9 -10  -2 20940.6 866.767   3
  -1  10  -2 20620.9 1041.95   3
 -10   1   1 4854.21 752.952   4
  -9  -1   1 4278.50 668.978   1
  -1  10   1 4244.19 618.817   3
  -9  -1   1 3121.97 635.052   2
  -1  10   1 4390.17 689.456   4
  -1  10   1 3582.11 679.458   2
   9 -10   1 5785.18 714.164   1
   1   9   1 4942.69 712.600   2
 -10   1   1 4016.71 642.943   1
   1   9   1 3739.78 581.974   3
   1   9   1 5550.72 709.404   4
 -10   1   1 4673.13 672.665   2
  -9  -1   1 5459.49 770.440   4
  10  -9   1 4379.03 637.160   3
  10  -9   1 4811.13 654.450   1
   9 -10   1 4885.18 655.934   3
   1   9   4 29163.7 1262.57   4
  -1  10   4 27888.7 1232.46   4
  -1  10   4 32688.0 1355.11   3
  -9  -1   4 29363.2 1295.64   4
   1   9   4 30656.5 1339.59   3
 -10   1   4 29715.4 1436.36   2
 -10   1   4 30202.9 1316.65   4
  -9  -1   4 29142.0 1364.91   2
   9 -10   4 28934.1 1499.62   1
  10  -9   4 29735.3 1456.34   1
 -10   1   7 25706.8 1575.80   2
   1   9   7 27443.2 1620.61   3
  -1  10   7 26213.9 1554.58   3
  -9  -1   7 25449.8 1066.16   3
  -9  -1   7 23390.8 1281.59   4
   1   9   7 28565.0 939.598   1
 -10   1   7 22269.7 1286.65   4
  -9  -1   7 24694.9 994.175   3
  -1  10   7 26280.2 902.940   1
 -10   1   7 25618.7 929.322   3
  10  -9   7 26276.3 1676.95   1
  -1  10   7 20385.1 1214.28   4
   1   9   7 20497.8 1151.27   4
   9 -10   7 21561.2 1653.50   1
  -9  -1   7 24162.4 1473.79   2
   1   9  10 10487.1 948.413   1
  -9  -1  10 10239.0 1759.83   1
 -10   1  10 10634.4 1332.54   2
 -10   1  10 6333.34 1575.49   1
  -9  -1  10 10511.3 1134.83   4
   9 -10  10 9506.92 1623.65   1
 -10   1  10 9724.64 1115.12   4
  -9  -1  10 10518.3 1001.56   3
  10  -9  10 10517.5 1572.72   1
 -10   1  10 10444.6 959.285   3
  -1  10  10 10277.4 983.175   1
   1   9  10 8945.36 1351.56   3
  -9  -1  10 9156.14 1297.96   2
  -1  10  10 8506.89 1307.49   3
 -10   2  -6 27230.5 795.915   4
  -8  -2  -6 28131.8 943.002   4
  -2  10  -6 26768.7 1154.33   2
   2   8  -6 25806.3 1147.45   4
  -8  -2  -6 27289.2 1484.55   1
  -2  10  -6 25221.0 1033.44   4
   2   8  -6 29885.0 1414.83   2
   2   8  -3 34378.4 1198.76   2
   2   8  -3 33209.2 1245.65   4
  -8  -2  -3 33931.0 1127.34   1
   2   8  -3 33503.2 1184.14   3
  -2  10  -3 34914.3 1233.20   4
  -8  -2  -3 30160.4 1130.15   4
  10  -8  -3 32862.8 954.790   3
 -10   2  -3 32488.7 1098.51   4
  -2  10  -3 33885.8 994.275   2
   8 -10  -3 30462.5 1113.86   3
 -10   2  -3 31468.6 1031.75   2
  -2  10  -3 31938.0 1368.58   3
  -8  -2  -3 34221.0 1295.65   2
 -10   2  -3 32232.8 1265.99   1
  -8  -2   0 30981.9 1066.38   1
 -10   2   0 32238.1 1223.39   4
   2   8   0 32658.4 964.920   3
   8 -10   0 31189.2 1020.68   3
 -10   2   0 32756.6 1054.96   1
   8 -10   0 31756.7 969.946   1
  -8  -2   0 32734.8 1258.38   4
  10  -8   0 31896.2 1006.48   3
  -2  10   0 32342.9 1222.44   4
   2   8   0 31516.2 1095.35   2
  -8  -2   0 32586.3 1108.95   2
  10  -8   0 31737.6 1035.76   1
  -2  10   0 27516.3 1090.37   2
 -10   2   0 32826.0 1069.34   2
  -2  10   0 31672.3 1019.45   3
   2   8   0 32828.3 1217.75   4
  -2  10   3 58098.5 1984.52   2
  10  -8   3 58767.7 1918.28   3
   2   8   3 62244.4 1692.46   3
 -10   2   3 60238.3 1716.53   4
 -10   2   3 60813.2 1813.51   2
   8 -10   3 55879.5 1751.10   3
  -2  10   3 57763.1 1651.03   4
  -2  10   3 61833.7 1601.64   3
   2   8   3 59609.4 1613.87   4
  -8  -2   3 54186.4 1624.97   2
  -8  -2   3 60217.3 1709.69   4
 -10   2   3 58607.7 1800.24   1
  10  -8   3 61445.6 1755.63   1
   2   8   3 57580.2 1805.24   2
   8 -10   3 58767.7 1865.34   1
 -10   2   6 3465.64 744.740   4
  -8  -2   6 4666.53 837.760   2
  -2  10   6 3343.24 691.006   4
  -8  -2   6 4354.46 524.530   3
   2   8   6 5070.24 491.749   1
   8 -10   6 6412.74 1159.11   1
  -8  -2   6 3884.11 707.709   4
   2   8   6 3947.08 657.232   4
  -2  10   6 3687.30 442.751   1
   2   8   6 3505.26 866.393   3
 -10   2   6 2383.86 877.640   2
  10  -8   6 3599.40 970.206   1
 -10   2   6 4020.06 444.417   3
  -2  10   6 4236.65 801.979   3
   2   8   9 25535.2 1227.06   1
  10  -8   9 20990.1 1744.74   1
  -8  -2   9 22305.5 1320.05   4
  -8  -2   9 21411.6 1238.35   3
  -2  10   9 20085.2 1540.70   3
 -10   2   9 24492.1 1435.71   4
  -2  10   9 26555.7 1266.54   1
 -10   2   9 23052.9 1135.53   3
 -10   2   9 21527.3 1682.59   2
   8 -10   9 26017.0 2012.97   1
   2   8   9 24153.5 1699.99   3
  -8  -2   9 22953.7 1533.09   2
 -10   2  12 5835.55 1704.78   1
  -2  10  12 6692.57 1299.10   3
  -8  -2  12 5993.97 1297.55   2
 -10   2  12 4906.58 1334.12   2
  -2  10  12 5031.79 1445.56   2
  -8  -2  12 3647.36 1735.20   1
   8 -10  12 4725.51 1666.43   1
  10  -8  12 3923.33 1499.55   1
   2   8  12 6404.94 1417.91   3
   3   7  -7-261.405 525.878   4
  -3  10  -7 740.472 462.289   4
  10  -7  -4 240956. 2606.10   3
   3   7  -4 237996. 3147.68   2
   3   7  -4 232382. 3128.22   4
  -7  -3  -4 236900. 2847.21   4
  -3  10  -4 225823. 2823.30   4
  -7  -3  -4 235240. 2927.65   1
 -10   3  -4 235101. 2565.30   2
  -7  -3  -4 233820. 3443.70   2
  -3  10  -4 231552. 2364.06   2
 -10   3  -4 233634. 3469.60   1
 -10   3  -4 222235. 2443.94   4
   7 -10  -4 237675. 3144.85   3
   3   7  -1 16744.5 680.837   3
  -3  10  -1 17913.6 882.003   3
  10  -7  -1 17707.9 676.848   3
   7 -10  -1 17146.2 656.548   1
  -3  10  -1 17216.8 921.535   4
   3   7  -1 17726.0 844.893   2
 -10   3  -1 17826.3 915.976   4
  10  -7  -1 16314.0 852.019   1
  -3  10  -1 17893.7 818.010   2
  -7  -3  -1 17608.1 743.468   1
 -10   3  -1 16447.4 736.217   2
   7 -10  -1 16803.9 753.241   3
   3   7  -1 17593.9 984.699   4
  -7  -3  -1 17406.1 865.837   2
  -7  -3  -1 17207.2 944.581   4
 -10   3  -1 18132.0 823.582   1
  -7  -3   2 86556.8 1923.69   4
 -10   3   2 82658.4 1819.82   1
   3   7   2 87898.1 1787.70   3
  -3  10   2 85484.1 2169.01   2
  10  -7   2 89278.3 2078.92   3
  -7  -3   2 86883.1 1813.59   2
 -10   3   2 86498.0 1954.83   4
   7 -10   2 86932.4 1845.24   3
  -3  10   2 86410.8 1946.14   4
 -10   3   2 87614.0 2006.01   2
   3   7   2 86699.1 1854.19   4
   3   7   2 85096.6 1897.33   2
  -7  -3   2 81920.0 968.329   3
   7 -10   2 86420.0 2021.25   1
  10  -7   2 82564.3 1773.46   1
  10  -7   2 85495.3 1350.65   2
  -3  10   2 87161.6 1684.56   3
  -7  -3   5 9804.58 534.802   3
   3   7   5 8938.28 766.316   4
  -3  10   5 7430.39 401.711   1
 -10   3   5 7872.71 797.564   4
  -3  10   5 7961.04 818.184   4
  -7  -3   5 9111.83 877.815   2
   7 -10   5 9781.65 1178.95   1
  -3  10   5 6761.09 436.441   1
 -10   3   5 9351.85 1059.92   2
  -3  10   5 9785.16 898.237   3
   3   7   5 10234.7 535.417   1
  10  -7   5 9405.43 1006.80   1
  -7  -3   5 9312.46 813.760   4
   3   7   5 10178.4 1019.74   3
 -10   3   5 9775.43 469.566   3
 -10   3   8 89020.6 2845.58   2
 -10   3   8 90118.7 1890.13   3
  -7  -3   8 85689.0 2148.68   3
  -3  10   8 87486.9 1973.26   1
  -3  10   8 80486.9 2214.81   4
  -3  10   8 84549.9 2512.34   3
  -7  -3   8 93716.2 2296.66   3
  -7  -3   8 92247.3 2274.77   4
  -7  -3   8 91536.3 2537.19   2
   3   7   8 100874. 2049.38   1
   3   7   8 83158.7 1815.48   4
  10  -7   8 94894.1 2852.68   1
 -10   3   8 94363.8 2420.07   4
   3   7   8 85998.9 2777.21   3
   7 -10   8 92664.2 3231.86   1
 -10   3  11 1494.00 1179.26   2
   3   7  11 2268.03 841.045   1
  -7  -3  11 1642.95 1517.11   1
   3   7  11 2427.10 1222.33   3
  10  -7  11 1484.51 1279.22   1
  -3  10  11 2206.47 1195.99   2
 -10   3  11 550.077 1415.88   1
  -7  -3  11 2892.75 1072.42   2
  -7  -3  11 4355.30 1015.77   3
 -10   3  11 2645.56 807.403   3
   7 -10  11 3497.51 1600.08   1
  -3  10  11 3695.40 1137.95   3
   4   6  -8 25194.1 1204.51   4
  -4  10  -8 20259.0 711.029   4
  -4  10  -5 63776.7 1447.07   4
   4   6  -5 66930.4 1952.06   2
  -6  -4  -5 68998.4 1810.87   1
  -6  -4  -5 66222.0 1493.53   4
 -10   4  -5 66705.1 1200.62   4
   4   6  -5 66765.1 1744.44   4
  -4  10  -5 65114.6 1294.07   2
   6 -10  -2 78657.6 1546.09   3
   4   6  -2 80945.2 1823.89   4
   4   6  -2 80044.2 1686.59   2
   4   6  -2 76571.2 1235.28   3
 -10   4  -2 76296.9 1573.69   4
 -10   4  -2 78187.5 1681.53   1
  -4  10  -2 76304.5 2161.80   1
  -6  -4  -2 79752.1 1295.19   1
  -4  10  -2 82375.9 1317.65   2
  -4  10  -2 77797.9 1695.86   4
  10  -6  -2 78546.0 1108.21   3
  -6  -4  -2 76623.0 1705.26   4
  10  -6  -2 81586.5 1849.72   1
   6 -10  -2 82794.1 1125.92   1
 -10   4  -2 78523.6 1238.39   2
  -4  10  -2 80625.1 1859.79   3
  -6  -4  -2 76987.1 1758.71   2
  -4  10   1 20612.9 878.799   3
 -10   4   1 19358.9 864.047   1
   4   6   1 21858.0 941.517   2
  -6  -4   1 21181.2 962.228   2
   4   6   1 20944.3 998.483   4
 -10   4   1 19864.6 998.851   2
  -6  -4   1 22530.1 705.758   3
  -4  10   1 19196.3 1125.99   2
   6 -10   1 20977.9 888.795   3
  10  -6   1 20076.7 860.701   2
  10  -6   1 21493.4 1022.40   3
  -4  10   1 20321.6 756.376   1
  10  -6   1 20689.3 889.550   1
   4   6   1 23066.1 882.106   3
  -6  -4   1 21875.2 1066.26   4
   6 -10   1 21676.6 984.927   1
 -10   4   1 21443.3 1047.85   4
  -6  -4   4 37119.0 803.486   3
   6 -10   4 32335.8 1464.64   3
  -4  10   4 35306.3 567.721   1
 -10   4   4 36560.7 1409.41   4
   4   6   4 36194.8 1244.76   4
   6 -10   4 33612.3 725.442   2
 -10   4   4 37685.9 1522.93   1
 -10   4   4 38369.3 1639.01   2
  -4  10   4 28062.2 689.650   1
  -6  -4   4 36153.9 1312.04   4
  -4  10   4 38987.9 1336.22   3
   6 -10   4 34729.8 1715.52   1
   4   6   4 36868.4 1548.66   3
  -6  -4   4 36871.3 1324.08   2
   4   6   4 35268.8 1453.56   2
 -10   4   4 40323.4 726.101   3
   4   6   4 40940.9 903.275   1
  10  -6   4 39125.6 1488.62   1
  10  -6   7 8253.09 1159.69   1
  -6  -4   7 8177.41 965.079   2
  -6  -4   7 8999.31 858.236   4
 -10   4   7 9252.68 717.772   3
 -10   4   7 8031.79 923.437   4
   4   6   7 9149.91 1233.85   3
   4   6   7 10336.8 836.916   1
  -6  -4   7 8982.42 829.182   3
 -10   4   7 8135.78 1146.17   2
   6 -10   7 7352.93 396.486   2
  10  -6   7 6626.86 343.179   2
  10  -6   7 5637.51 379.959   2
   6 -10   7 9005.34 1426.40   1
  -4  10   7 8853.69 1018.44   3
  -4  10   7 8136.89 917.297   4
   4   6   7 7904.21 710.504   4
  -4  10   7 8190.82 834.646   1
   4   6  10 36885.2 1576.87   1
  -6  -4  10 32778.9 1398.71   4
 -10   4  10 36413.9 1683.55   4
  -4  10  10 34134.3 1863.09   3
 -10   4  10 34222.9 2085.69   2
  -6  -4  10 34662.7 1792.83   2
  -4  10  10 32764.3 1362.56   4
  10  -6  10 30956.4 1942.83   1
  -6  -4  10 34266.0 1739.75   3
  -6  -4  10 31222.8 2590.82   1
   4   6  10 36492.6 2175.49   3
 -10   4  10 30417.5 2247.65   1
  -4  10  10 34808.3 1659.81   1
 -10   4  10 36609.2 1522.14   3
   6 -10  10 36475.9 2545.42   1
 -10   5  -6 27175.7 641.288   4
   5   5  -6 27196.4 1221.12   4
  -5  10  -6 28729.8 924.392   4
  -5  10  -3 62311.9 1948.97   3
  -5  -5  -3 68892.4 1244.75   1
   5   5  -3 63827.1 1672.74   2
  -5  10  -3 62086.6 2199.41   1
   5   5  -3 63715.9 1692.87   4
   5 -10  -3 61880.2 1592.05   3
  -5  -5  -3 58121.7 1822.62   2
   5   5  -3 61633.2 1221.07   3
 -10   5  -3 64236.3 1015.50   2
  10  -5  -3 60173.5 1001.38   3
 -10   5  -3 57463.1 1299.21   4
  -5  -5  -3 64129.8 1584.02   4
  10  -5  -3 58623.1 1962.45   2
  -5  10  -3 60992.5 1481.29   4
 -10   5  -3 62853.2 1768.42   1
  -5  10  -3 62808.3 1011.13   2
  10  -5  -3 59805.6 1741.35   4
  -5  10   0 97061.4 1830.09   1
  -5  10   0 99296.8 1916.98   2
  10  -5   0 98542.6 1901.64   2
 -10   5   0 97090.2 1721.21   2
 -10   5   0 102215. 1966.85   4
   5 -10   0 97822.9 1612.97   3
  -5  -5   0 95403.8 1694.24   1
   5   5   0 102126. 1990.94   4
  -5  -5   0 103820. 2016.12   4
  10  -5   0 95329.1 1730.23   1
   5 -10   0 95827.9 1547.28   1
   5   5   0 97788.5 1420.11   3
  -5  -5   0 90911.4 1751.56   2
   5   5   0 95368.5 1737.51   2
  -5  -5   0 96682.8 1631.88   3
  10  -5   0 101508. 1639.74   3
  10  -5   0 97952.2 1933.30   4
 -10   5   0 101050. 1700.99   1
  -5  10   0 97887.0 1735.85   3
  10  -5   3 63784.7 1648.74   1
   5   5   3 59180.6 1790.07   3
 -10   5   3 62419.1 940.804   3
 -10   5   3 59875.6 1610.19   1
  -5  -5   3 62269.7 1541.08   2
   5   5   3 59214.9 1609.87   2
   5   5   3 65194.3 1177.52   1
  -5  -5   3 60484.2 1655.65   4
 -10   5   3 52829.0 1838.16   2
   5 -10   3 62548.9 1209.10   2
   5 -10   3 58091.1 2039.80   1
  -5  10   3 58283.4 796.630   1
  10  -5   3 62915.7 1064.43   2
  -5  -5   3 63127.3 1001.90   3
   5   5   3 62653.3 1556.85   4
   5 -10   3 58056.2 1622.64   3
  -5  10   3 61054.2 1496.38   3
 -10   5   3 58726.7 1714.64   4
  -5  -5   6 29752.2 1322.78   2
  -5  10   6 30474.2 1008.80   1
  -5  10   6 29944.3 1245.42   1
  -5  10   6 32534.5 1411.72   3
   5 -10   6 32278.4 1965.48   1
   5   5   6 33089.9 1119.55   1
 -10   5   6 30501.1 1702.03   2
  -5  -5   6 29909.0 1251.45   4
   5   5   6 31276.2 1113.62   4
   5   5   6 31781.5 1694.43   3
   5 -10   6 29779.7 753.275   2
  10  -5   6 30102.2 711.291   2
 -10   5   6 28735.6 1333.21   4
 -10   5   6 33835.1 1006.39   3
  -5  -5   6 32877.8 1173.40   3
  10  -5   6 28757.2 1443.67   1
   5 -10   9 30892.3 2308.54   1
  -5  10   9 27426.9 1556.35   3
   5   5   9 26195.3 1828.57   3
   5   5   9 27569.7 1382.34   1
  10  -5   9 25402.5 1685.61   1
  10  -5   9 25022.1 1005.62   2
  -5  10   9 26853.5 1338.38   4
   5 -10   9 26907.4 888.415   2
 -10   5   9 27207.2 1488.85   4
 -10   5   9 29789.4 1294.54   3
  -5  -5   9 28232.4 1321.89   4
  -5  10   9 26666.9 1508.36   1
  -5  -5   9 25775.5 1435.98   2
  -5  -5   9 23898.2 2281.77   1
 -10   5   9 28545.3 1922.43   2
 -10   5  12 1776.77 1425.85   1
  -5  10  12 1862.68 1308.13   2
   5 -10  12 5258.51 1875.23   1
  -5  -5  12 1935.29 988.396   2
 -10   5  12 2421.67 1326.29   2
  10  -5  12 2834.89 1636.26   3
  10  -5  12 2914.52 1250.61   1
  -5  10  12 2489.28 1096.21   3
   5   5  12 3613.30 1239.16   2
   5   5  12 2620.20 1349.45   3
  -5  -5  12 2779.61 1844.53   1
   6   4  -7 7111.39 831.976   4
  -6  10  -7 7026.45 468.824   4
  -4  -6  -4 33175.5 1012.64   1
   4 -10  -4 31255.7 1375.34   3
  -4  -6  -4 30637.0 1179.87   4
 -10   6  -4 30599.4 1508.65   1
   6   4  -4 31111.4 1271.88   4
  -6  10  -4 32521.2 1088.13   4
  10  -4  -4 32712.1 1353.37   4
   6   4  -4 34250.5 1430.56   2
 -10   6  -4 30789.9 924.490   4
   6   4  -1 21260.2 947.468   2
  -4  -6  -1 21577.5 1035.24   2
  10  -4  -1 21245.3 617.053   3
  -6  10  -1 19998.9 838.252   2
  10  -4  -1 20745.8 1020.75   1
  10  -4  -1 19724.4 1049.27   2
  10  -4  -1 16885.6 955.941   4
  -4  -6  -1 22022.9 1078.66   4
 -10   6  -1 20686.0 982.592   4
  -6  10  -1 20070.8 1069.72   1
   6   4  -1 22709.7 1059.62   4
   6   4  -1 21607.2 584.373   3
 -10   6  -1 19608.9 913.166   1
   4 -10  -1 20987.3 595.736   1
  -4  -6  -1 20613.2 712.291   1
   4 -10  -1 20361.7 863.964   3
 -10   6  -1 19696.4 753.334   2
  -4  -6  -1 20591.2 948.397   3
  -6  10  -1 18275.5 977.195   3
 -10   6   2 73230.4 1841.30   4
  -6  10   2 71323.1 1460.83   3
  -4  -6   2 71355.4 1129.34   3
  10  -4   2 75630.8 1345.91   2
   6   4   2 74050.6 1671.10   4
  -6  10   2 74589.1 1085.17   1
 -10   6   2 70335.9 1534.54   1
 -10   6   2 73260.1 1173.95   3
  10  -4   2 72857.3 1612.93   4
   6   4   2 76692.6 1415.68   1
  -4  -6   2 68685.1 1720.77   4
  10  -4   2 69939.8 1545.43   1
   4 -10   2 73235.7 1488.05   2
   6   4   2 72372.7 1601.51   2
   4 -10   2 69532.8 1525.03   3
   4 -10   2 73060.9 2016.88   1
   6   4   2 72529.5 1743.71   3
 -10   6   2 73841.3 1985.81   2
  -4  -6   2 70873.8 1568.10   2
 -10   6   5 62752.2 1840.26   4
   6   4   5 65484.5 1857.99   2
   4 -10   5 53990.5 2259.97   1
  10  -4   5 67336.7 1130.84   2
  -4  -6   5 64488.3 1448.06   3
  10  -4   5 65708.5 1836.96   1
 -10   6   5 65198.1 2251.09   2
   4 -10   5 64488.9 1160.06   2
   6   4   5 66109.0 1553.60   4
 -10   6   5 67475.2 1968.72   1
 -10   6   5 69671.3 1285.20   3
  -4  -6   5 63766.5 1676.12   2
   6   4   5 70010.7 1459.47   1
  -4  -6   5 64573.1 1686.08   4
   6   4   5 51781.4 1991.63   3
  -6  10   5 65794.8 1270.56   1
  -6  10   5 64441.1 1679.13   3
  -4  -6   8 26827.1 2363.13   1
  10  -4   8 24498.1 1554.59   1
   6   4   8 24849.2 1255.19   1
  -4  -6   8 25762.9 1355.37   2
  -4  -6   8 26395.7 1265.50   4
   6   4   8 21170.3 822.334   4
   4 -10   8 27480.0 2123.80   1
 -10   6   8 25575.9 1820.75   2
  -6  10   8 24094.2 1516.07   1
  -6  10   8 25251.7 1395.52   3
 -10   6   8 27211.1 1178.30   3
   4 -10   8 24987.1 908.078   2
  -6  10   8 23949.6 1287.92   4
   6   4   8 23582.6 1754.29   3
 -10   6   8 28246.5 1478.63   4
  10  -4   8 24860.8 926.885   2
  10  -4  11 4213.81 1588.25   3
 -10   6  11 4956.99 927.782   3
   6   4  11 1766.12 1196.51   3
  -4  -6  11 3621.20 1082.83   3
   6   4  11 2456.38 897.853   1
  10  -4  11 4989.80 1228.77   1
  -4  -6  11 3891.03 1677.67   1
  -6  10  11 2932.86 1397.05   2
   4 -10  11 4788.00 1804.54   1
  -6  10  11 4853.75 1215.43   1
  -6  10  11 3651.35 1019.87   3
  -4  -6  11 2444.85 909.761   2
 -10   6  11 3271.07 1439.17   1
 -10   6  11 3826.38 1300.36   2
   7   3  -8 67446.6 1982.24   4
  -3  -7  -5 10373.8 743.088   1
   7   3  -5 7431.89 785.401   4
 -10   7  -5 8523.57 532.316   4
  -7  10  -5 9657.66 640.351   4
  10  -3  -5 9080.82 875.046   4
  10  -3  -2 81618.5 1961.52   4
   7   3  -2 77534.0 861.542   3
  -7  10  -2 77642.5 2088.54   1
   7   3  -2 78524.2 1870.73   4
  10  -3  -2 78262.7 2015.86   2
  -3  -7  -2 79533.3 2024.18   2
 -10   7  -2 75275.4 1627.03   4
  -7  10  -2 81080.5 1209.60   2
 -10   7  -2 78928.9 1079.39   2
  -3  -7  -2 82049.2 1026.65   1
  -3  -7  -2 77028.2 1820.38   4
   7   3  -2 80192.9 1840.65   2
  -7  10  -2 84918.3 2099.75   3
  -3  -7  -2 77388.0 1867.97   3
  10  -3  -2 73289.9 678.025   3
   3 -10  -2 76266.1 1669.87   3
 -10   7  -2 67827.9 1714.37   1
   3 -10   1 18634.5 815.839   3
 -10   7   1 16867.2 1041.20   2
   7   3   1 20068.0 895.925   2
  10  -3   1 20886.8 995.593   4
  10  -3   1 20079.2 869.928   2
   3 -10   1 19162.3 978.814   2
 -10   7   1 20424.2 1039.42   4
  -3  -7   1 18352.1 916.542   2
   7   3   1 19552.4 918.852   1
 -10   7   1 19807.5 828.506   1
  10  -3   1 18568.6 896.600   1
   3 -10   1 19708.3 1070.91   1
  -7  10   1 18856.6 753.873   1
   7   3   1 18976.9 880.872   3
 -10   7   1 19402.7 829.674   3
  -3  -7   1 19926.7 722.641   3
  -3  -7   1 22405.3 1117.26   4
  -7  10   1 18824.3 843.087   3
   7   3   1 19959.8 990.375   4
  -3  -7   4 240119. 2913.31   2
  10  -3   4 242755. 2295.45   2
 -10   7   4 237134. 3935.46   2
  -3  -7   4 234623. 2462.92   3
  10  -3   4 239335. 3095.85   1
  -7  10   4 243927. 2231.01   1
   7   3   4 243181. 2567.51   1
 -10   7   4 226347. 3335.26   4
   7   3   4 242159. 2900.83   4
  -7  10   4 241740. 2873.52   3
   3 -10   4 234934. 3193.87   3
   3 -10   4 241797. 4221.72   1
  10  -3   4 250187. 2722.56   4
   3 -10   4 239735. 2351.05   2
 -10   7   4 244450. 2230.85   3
  -3  -7   4 237580. 3132.80   4
 -10   7   4 232598. 3066.24   1
   7   3   4 246842. 3129.42   2
   7   3   4 241448. 3851.15   3
   7   3   7 49.2438 425.876   4
 -10   7   7 1126.50 995.165   2
   7   3   7 648.512 942.811   3
  -3  -7   7 1041.29 623.957   2
   3 -10   7 360.769 1229.53   1
  -3  -7   7 393.171 689.883   3
  10  -3   7-160.905 804.073   1
   3 -10   7 163.593 428.265   2
  -3  -7   7 1760.25 1406.04   1
 -10   7   7-99.0704 518.183   3
 -10   7   7-432.791 710.059   4
  -7  10   7 237.012 691.257   4
  -7  10   7 392.210 585.899   1
  -7  10   7 842.783 652.101   3
   7   3   7 50.3235 639.193   1
  10  -3   7 811.060 470.548   2
  -3  -7   7 516.993 609.338   4
  -7  10  10 32490.1 1887.42   1
  10  -3  10 31621.6 1481.47   2
  -7  10  10 30243.1 2246.06   2
   7   3  10 32884.8 1638.20   1
 -10   7  10 35366.0 2283.46   2
  -3  -7  10 36677.1 2858.97   1
 -10   7  10 33948.9 1519.96   3
   7   3  10 31370.5 2109.24   3
 -10   7  10 35152.7 1722.50   4
  10  -3  10 30654.2 1809.87   1
  -7  10  10 34001.2 1719.67   3
 -10   7  10 27733.8 2124.17   1
   3 -10  10 38011.2 2716.66   1
  -7  10  10 33164.1 1523.63   4
  -3  -7  10 28308.3 1499.07   2
   3 -10  10 30413.9 1169.55   2
  -8  10  -6 4058.19 471.561   4
 -10   8  -6 3571.94 360.701   4
   8   2  -6 4030.93 716.421   4
   8   2  -3 64389.2 1875.31   2
  -2  -8  -3 64969.7 1754.24   4
  10  -2  -3 63397.3 2024.94   2
 -10   8  -3 59758.6 1447.53   4
  10  -2  -3 64158.9 1832.77   4
  -2  -8  -3 64197.9 1918.09   3
   2 -10  -3 62389.2 1748.11   3
  -8  10  -3 61919.9 2100.42   1
  -8  10  -3 60456.2 686.137   2
 -10   8  -3 61974.3 1948.49   1
   8   2  -3 67254.7 1816.26   4
   2 -10   0 34240.4 1378.06   2
 -10   8   0 33280.7 1209.07   3
  -8  10   0 32469.5 1162.05   3
 -10   8   0 35243.0 1108.58   1
   2 -10   0 34831.9 1131.48   1
   8   2   0 34382.0 933.924   3
  10  -2   0 35696.2 1255.32   1
   8   2   0 36763.9 1184.03   2
  -2  -8   0 34150.7 1011.21   3
   2 -10   0 36055.2 1049.93   3
   8   2   0 38434.8 1314.66   4
 -10   8   0 34699.1 1299.07   4
  -2  -8   0 32127.9 1273.00   4
  -2  -8   0 36439.9 1303.59   2
   8   2   0 34926.8 1270.84   1
 -10   8   0 34852.2 1188.53   2
  10  -2   0 34548.5 1166.27   2
  -8  10   0 36432.6 1140.51   1
  10  -2   0 34995.4 1280.98   4
   8   2   3 37390.5 1594.22   3
  10  -2   3 42280.3 1305.81   1
  -2  -8   3 39952.2 1066.43   3
   2 -10   3 39899.3 1238.88   3
  -2  -8   3 37375.1 1179.65   2
  -8  10   3 39909.6 977.745   1
   8   2   3 41845.4 1266.49   2
   2 -10   3 40714.0 1914.10   1
 -10   8   3 41309.1 1024.47   3
   2 -10   3 40792.7 1154.22   2
 -10   8   3 39531.5 1201.14   1
  10  -2   3 40883.2 1244.75   4
   8   2   3 42084.6 1309.02   4
   8   2   3 42925.1 1182.32   1
  -8  10   3 42047.8 1207.50   3
 -10   8   3 38597.0 1474.29   4
  -2  -8   3 43191.9 1485.80   4
  10  -2   3 42411.5 1094.49   2
   2 -10   3 39795.7 1368.27   4
 -10   8   3 38816.1 1720.72   2
   8   2   6 29400.1 1713.17   3
   2 -10   6 31991.4 2066.38   1
  -2  -8   6 26847.1 1240.72   3
  -8  10   6 30062.0 1235.38   3
   8   2   6 31049.6 1240.50   1
   2 -10   6 28192.5 991.418   2
  10  -2   6 31087.9 1393.70   1
  -8  10   6 27998.7 1123.79   1
  -2  -8   6 30301.0 2156.00   1
  -8  10   6 26095.7 1321.45   4
  10  -2   6 32446.8 948.866   4
 -10   8   6 27523.3 1370.26   1
 -10   8   6 30531.0 1757.42   2
  10  -2   6 29304.9 1016.30   2
  -2  -8   6 27995.7 1233.49   4
 -10   8   6 30764.6 1090.93   3
 -10   8   6 28662.7 1387.27   4
   8   2   6 30271.6 1034.50   4
  -2  -8   6 28551.8 1169.83   2
   8   2   6 28628.3 1287.77   2
  -8  10   9 13245.6 1132.20   4
 -10   8   9 13827.2 1060.39   3
   8   2   9 13061.3 1184.30   1
   2 -10   9 12453.7 875.707   2
  -8  10   9 14618.0 1535.63   1
  -8  10   9 15234.5 1719.16   2
 -10   8   9 14555.0 1641.41   2
  10  -2   9 13893.6 1275.52   1
  -2  -8   9 12611.3 887.159   4
   8   2   9 14307.9 1597.19   3
  -8  10   9 12825.5 1129.75   3
 -10   8   9 12879.3 1168.08   4
  -2  -8   9 13443.5 1074.74   2
   2 -10   9 16309.9 2098.70   1
  -2  -8   9 14149.5 2122.84   1
  10  -2  12 5994.67 1754.46   3
 -10   8  12 3863.01 1539.07   1
  -2  -8  12 2276.09 1868.70   1
  -8  10  12 4009.02 1583.71   2
 -10   8  12 3118.63 1450.40   2
   8   2  12 2005.31 1380.05   3
  10  -2  12 1851.26 1082.92   1
  -8  10  12 1968.32 1011.30   3
   8   2  12 4516.28 1107.60   1
   2 -10  12 1688.86 1751.41   1
 -10   8  12 3540.03 930.511   3
  -9  10  -7 22410.1 604.759   4
  -9  10  -7 21783.6 597.352   4
   9   1  -4 33388.4 1402.61   4
 -10   9  -4 34051.0 1090.25   4
  10  -1  -4 31125.8 1373.88   4
  10  -1  -1 8920.40 825.650   2
  -1  -9  -1 7735.74 706.128   3
  -1  -9  -1 8772.64 949.189   2
   1 -10  -1 8928.04 1009.23   2
 -10   9  -1 8515.96 920.372   3
   1 -10  -1 8093.89 601.522   1
   9   1  -1 7569.83 763.227   4
  -9  10  -1 7760.40 797.566   1
  10  -1  -1 7589.54 797.513   4
 -10   9  -1 8095.89 653.142   2
  -1  -9  -1 7649.12 839.571   4
   1 -10  -1 7469.04 651.012   3
  10  -1  -1 6493.01 894.891   1
  -9  10  -1 8708.38 948.500   3
   9   1  -1 7211.58 751.343   2
 -10   9  -1 7823.79 769.412   1
   9   1  -1 7744.90 416.948   3
  10  -1   2 20267.1 973.483   1
   1 -10   2 20120.9 961.624   2
  10  -1   2 20743.3 998.275   4
 -10   9   2 18877.9 855.019   3
  10  -1   2 21264.5 906.073   2
   9   1   2 18349.4 908.544   1
   1 -10   2 18859.0 858.588   3
  -1  -9   2 18597.5 944.892   2
   1 -10   2 18987.6 1399.06   1
  -9  10   2 19198.2 788.757   1
 -10   9   2 18197.1 1102.69   4
 -10   9   2 18504.8 831.355   1
   1 -10   2 21382.0 1124.25   4
   9   1   2 18127.4 1116.61   3
  -9  10   2 17882.8 850.689   3
   9   1   2 19198.1 986.318   4
  -1  -9   2 19764.9 1096.26   4
   9   1   2 19434.0 877.989   2
  -1  -9   2 17731.0 784.092   3
 -10   9   2 18543.3 1228.72   2
  -1  -9   5 14881.8 977.683   4
  -9  10   5 11779.4 974.441   4
   9   1   5 15086.6 937.312   1
  10  -1   5 14915.9 803.881   4
  10  -1   5 13517.3 793.434   2
   9   1   5 13471.0 1228.19   3
   1 -10   5 14187.6 1601.11   1
   9   1   5 13861.2 802.192   4
 -10   9   5 12668.8 1229.15   2
  -1  -9   5 12956.5 856.105   3
   9   1   5 14621.7 900.626   2
   1 -10   5 13254.9 885.889   4
  -1  -9   5 13854.5 1644.93   1
  10  -1   5 13415.2 944.716   1
 -10   9   5 12740.0 988.137   4
   1 -10   5 12687.0 754.497   2
  -1  -9   5 14268.0 859.193   2
  -9  10   5 13253.7 811.227   1
 -10   9   5 12725.3 877.504   1
 -10   9   5 12999.7 764.132   3
   1 -10   5 13493.6 956.111   3
  -9  10   5 12876.4 826.420   3
  10  -1   8 1669.70 788.163   1
   9   1   8 543.419 756.648   1
 -10   9   8 1306.92 754.636   4
  10  -1   8 1002.88 615.978   2
  -9  10   8 1072.81 777.295   4
   9   1   8 1451.31 1090.93   3
 -10   9   8 1303.29 1107.76   2
  -1  -9   8 41.1243 1456.31   1
   1 -10   8 2219.09 1547.40   1
  -1  -9   8 1612.34 627.859   4
  -9  10   8 676.208 1093.54   2
 -10   9   8 1380.74 636.868   3
   1 -10   8 1096.50 583.617   2
   9   1   8 880.621 232.864   4
  -9  10   8 1390.39 678.068   3
  -1  -9   8 1187.08 656.235   2
  10  -1  11 17195.6 1515.99   1
  10  -1  11 16564.8 1958.69   3
   9   1  11 14890.0 1398.58   1
   9   1  11 17212.0 1909.41   3
  -1  -9  11 12194.1 1082.31   2
   1 -10  11 15380.2 2236.99   1
 -10   9  11 14024.4 1209.29   3
  -9  10  11 16596.3 1722.43   1
 -10   9  11 17393.2 1936.13   2
 -10   9  11 15073.3 1838.49   1
  -1  -9  11 16762.7 2230.22   1
  -9  10  11 16141.6 1323.83   3
  -9  10  11 17877.3 1887.39   2
 -10  10  -5-71.6431 423.268   4
   0 -10  -2 244434. 3179.67   3
   0 -10  -2 234557. 1290.92   1
 -10  10  -2 246078. 3718.87   3
  10   0  -2 241556. 3443.03   2
 -10  10  -2 248711. 2174.78   2
 -10  10  -2 244514. 3479.68   1
   0 -10   1 214.267 444.877   3
   0 -10   1 129.148 685.503   4
   0 -10   1 305.858 641.887   2
 -10  10   1 423.979 569.600   3
   0 -10   1 187.409 818.351   1
  10   0   1-300.171 552.459   4
  10   0   1-584.299 649.264   1
 -10  10   1-474.769 468.583   1
  10   0   1 260.870 509.031   2
   0 -10   4 297473. 3241.51   3
 -10  10   4 300557. 3048.32   1
 -10  10   4 301175. 2964.06   3
   0 -10   4 316453. 5185.18   1
  10   0   4 316085. 3382.65   4
  10   0   4 311485. 3202.48   2
 -10  10   4 304179. 3977.56   4
   0 -10   4 306968. 3658.55   4
   0 -10   4 304321. 3178.66   2
  10   0   4 308145. 3342.35   1
   0 -10   7 544.408 1413.70   1
   0 -10   7 444.980 595.442   2
 -10  10   7-373.314 731.650   4
  10   0   7-95.9451 985.055   3
 -10  10   7-1334.18 1101.86   2
  10   0   7 434.291 435.597   4
 -10  10   7 259.813 606.439   3
  10   0   7 170.247 785.499   1
  10   0   7-362.969 576.308   2
   0 -10   7 745.950 630.530   4
  10   0  10 70093.5 2396.27   1
   0 -10  10 70461.5 3644.15   1
  10   0  10 67716.3 3084.14   3
 -10  10  10 71016.6 2200.30   3
   0 -10  10 68377.3 1934.12   2
 -10  10  10 71825.9 3153.02   2
 -10  10  10 65503.4 2817.36   1
 -10  10  10 69276.4 2270.66   4
   0  11  -8 13357.7 983.581   4
 -11   0  -5-294.246 691.014   2
 -11   0  -5 753.020 507.675   4
   0  11  -5-246.125 524.906   4
  11 -11  -5 194.222 571.170   3
   0  11  -5-563.881 536.279   2
 -11   0  -2 31075.6 1143.03   2
   0  11  -2 31162.0 1184.89   3
 -11   0  -2 31258.0 1256.88   4
   0  11  -2 30498.9 1315.62   4
   0  11  -2 33279.1 1156.82   2
 -11   0  -2 31059.5 1130.30   1
  11 -11  -2 28178.3 1105.01   1
  11 -11  -2 29250.7 999.177   3
  11 -11   1 349.297 604.742   1
   0  11   1-160.840 584.342   2
   0  11   1 112.449 569.431   3
 -11   0   1 123.908 609.086   2
 -11   0   1-455.948 741.939   4
   0  11   1 484.550 594.504   4
 -11   0   1 638.025 624.669   1
  11 -11   1 166.190 587.480   3
 -11   0   4 52564.6 1816.03   2
 -11   0   4 52606.0 1768.66   4
   0  11   4 53767.9 1693.04   3
   0  11   4 52081.2 1745.66   4
   0  11   7 223.738 253.017   1
  11 -11   7 929.342 1023.84   1
   0  11   7-1008.52 901.383   3
 -11   0   7-576.185 854.082   2
 -11   0   7 139.036 355.851   3
 -11   0   7 27.6040 738.607   4
 -11   0   7 205.701 322.024   3
  11 -11  10 16990.1 1767.99   1
 -11   0  10 18992.9 1673.59   2
 -11   0  10 19194.8 1433.88   4
   0  11  10 20756.4 1744.81   3
 -11   1  -6 4895.59 540.324   4
  -1  11  -6 3904.17 638.161   4
   1  10  -6 4479.98 712.034   4
  11 -10  -6 4780.24 830.654   3
 -10  -1  -6 4255.83 565.611   4
  -1  11  -6 3732.05 680.394   2
   1  10  -6 2803.11 741.569   2
 -11   1  -3 14150.6 835.525   2
  10 -11  -3 13203.1 840.256   1
 -11   1  -3 13108.9 858.809   4
 -11   1  -3 13838.0 908.424   1
  -1  11  -3 13047.5 1007.83   3
 -10  -1  -3 14869.7 877.464   1
  10 -11  -3 13419.6 784.734   3
   1  10  -3 15060.0 877.583   2
  11 -10  -3 13790.1 771.863   3
 -10  -1  -3 13207.2 866.673   4
  -1  11  -3 13596.4 932.753   4
   1  10  -3 13489.8 956.638   4
  -1  11  -3 13206.4 775.010   2
 -10  -1  -3 14327.6 895.322   2
  11 -10  -3 13491.1 943.346   1
   1  10  -3 12566.2 874.486   3
   1  10   0 4250.94 643.431   2
   1  10   0 4692.45 629.509   3
 -10  -1   0 5251.13 691.777   2
  11 -10   0 4472.53 664.777   1
  -1  11   0 4384.17 689.623   2
 -10  -1   0 4182.70 776.357   4
 -11   1   0 3745.08 618.232   1
 -11   1   0 2878.53 583.535   2
   1  10   0 4725.08 748.056   4
 -10  -1   0 4205.84 658.334   1
  -1  11   0 3342.46 614.409   3
  10 -11   0 4478.04 635.944   1
  10 -11   0 4482.74 644.305   3
  11 -10   0 4328.90 609.173   3
  -1  11   0 3775.19 703.567   4
 -11   1   0 4124.05 752.031   4
 -11   1   3 19701.6 1196.98   2
  10 -11   3 20847.9 1269.23   1
 -10  -1   3 19456.6 1122.82   2
   1  10   3 19780.1 1117.50   4
 -10  -1   3 21631.5 1203.77   4
  -1  11   3 19063.7 1098.80   4
  11 -10   3 19860.2 1207.24   1
   1  10   3 20785.3 1124.05   3
 -11   1   3 21661.5 1226.49   4
  -1  11   3 19772.8 1066.79   3
 -10  -1   6 7020.96 882.440   4
 -10  -1   6 6443.08 403.762   3
 -11   1   6 6291.91 870.611   4
 -11   1   6 6110.93 431.216   3
 -10  -1   6 8276.89 1024.55   2
 -11   1   6 6044.04 357.436   3
  11 -10   6 7455.82 1132.35   1
  -1  11   6 7205.24 871.672   4
   1  10   6 6380.74 369.921   1
   1  10   6 4963.30 904.571   3
  -1  11   6 3574.34 261.919   1
 -11   1   6 6517.27 1060.64   2
 -10  -1   6 5627.99 405.032   3
   1  10   6 7254.26 866.958   4
  10 -11   6 7658.65 1189.68   1
  -1  11   6 4483.30 236.373   1
  -1  11   6 7306.60 978.722   3
   1  10   9 12422.2 846.004   1
 -10  -1   9 11160.5 890.884   3
  -1  11   9 13061.4 1367.04   3
   1  10   9 9404.40 1358.01   3
 -10  -1   9 9734.57 1222.21   2
 -11   1   9 11582.1 846.605   3
 -11   1   9 10725.9 1314.66   2
 -11   1   9 10249.4 1181.72   4
  -1  11   9 14485.3 851.417   1
  11 -10   9 9737.22 1542.24   1
  10 -11   9 13228.1 1643.79   1
 -10  -1   9 10249.0 1094.09   4
 -11   1  12 1218.03 1556.21   1
  11 -10  12 1770.95 1378.77   1
  -1  11  12 1528.11 1183.51   3
 -10  -1  12-172.502 1120.01   2
   1  10  12-71.1672 1153.95   3
 -10  -1  12 467.776 1544.98   1
 -11   1  12 670.759 1121.63   2
  10 -11  12 445.984 1483.36   1
 -11   2  -7 60767.2 1082.66   4
  -2  11  -7 63096.4 1642.90   4
   2   9  -7 63499.3 1821.94   4
  -2  11  -7 61994.7 1828.08   2
 -11   2  -4 55363.5 1469.87   2
  -9  -2  -4 58231.4 1773.66   2
   2   9  -4 56524.9 1668.82   3
  -2  11  -4 51053.6 1521.66   4
  -9  -2  -4 57769.4 1591.61   1
  -2  11  -4 53625.5 1336.08   2
   2   9  -4 61775.0 1657.08   2
 -11   2  -4 51833.0 1342.28   4
  11  -9  -4 56841.8 1396.19   3
   2   9  -4 56852.5 1665.18   4
   9 -11  -4 51182.9 1512.82   3
  -9  -2  -4 53377.7 1461.64   4
  -2  11  -4 53804.8 1852.34   3
 -11   2  -4 51991.4 1725.77   1
   9 -11  -1 135747. 1985.29   3
   2   9  -1 133932. 1872.04   3
   9 -11  -1 137066. 1856.10   1
  -2  11  -1 140139. 2184.03   3
  -9  -2  -1 137972. 2419.20   4
  11  -9  -1 135897. 2104.48   1
   2   9  -1 136314. 2171.77   2
   2   9  -1 136138. 2466.74   4
  -9  -2  -1 134090. 1988.65   1
  -2  11  -1 139139. 2480.55   4
  -2  11  -1 138851. 2112.88   2
 -11   2  -1 133246. 1996.83   2
  11  -9  -1 137943. 1839.40   3
 -11   2  -1 132566. 2345.44   4
  -9  -2  -1 133445. 2178.14   2
 -11   2  -1 132000. 2104.90   1
   2   9   2 51146.7 1652.87   2
  -9  -2   2 52401.1 1703.52   1
  -2  11   2 50136.9 1581.67   4
  -9  -2   2 54490.2 1706.32   4
   9 -11   2 48947.9 1530.76   3
 -11   2   2 47823.8 1554.94   1
  -2  11   2 50981.7 1762.41   2
  11  -9   2 49623.1 1553.65   1
 -11   2   2 52737.8 1657.26   4
  -9  -2   2 47772.2 1492.50   2
  11  -9   2 52185.0 1692.15   3
   9 -11   2 51732.7 1588.99   1
   2   9   2 52040.8 1602.26   4
  -2  11   2 42684.9 1327.69   3
   2   9   2 51921.9 1464.84   3
 -11   2   2 45852.0 1547.40   2
   2   9   5 41974.0 1481.67   4
   2   9   5 41317.4 744.299   1
  -2  11   5 37879.9 1505.31   4
  11  -9   5 43947.5 1772.33   1
  -9  -2   5 44113.2 1585.92   4
   2   9   5 43686.1 1725.15   3
 -11   2   5 45386.5 1820.52   2
  -9  -2   5 44008.7 1661.61   2
 -11   2   5 41538.0 1594.93   4
  -9  -2   5 41922.9 684.145   3
  -2  11   5 46569.5 1640.88   3
 -11   2   5 39801.9 561.554   3
   9 -11   5 45357.4 1975.23   1
  -9  -2   8 46063.2 1826.02   4
 -11   2   8 43155.5 2084.16   2
   9 -11   8 46315.9 2399.68   1
 -11   2   8 47898.6 1268.00   3
  -9  -2   8 45408.2 1466.39   3
  -2  11   8 51166.7 1319.69   1
   2   9   8 49446.2 1378.45   1
  -2  11   8 42029.8 1913.87   3
   2   9   8 40511.8 2016.03   3
   2   9   8 34490.2 1438.22   4
  -9  -2   8 38232.9 1865.24   2
  -9  -2   8 42543.3 1387.83   3
 -11   2   8 41974.2 1785.20   4
  11  -9   8 46308.6 2233.22   1
 -11   2  11 32585.2 2167.75   2
  -9  -2  11 30884.2 1935.74   2
  -9  -2  11 24874.8 2355.51   1
  11  -9  11 30897.1 2193.95   1
   9 -11  11 30893.9 2414.36   1
   2   9  11 31339.5 2101.49   3
  -2  11  11 32761.9 2036.11   3
 -11   2  11 24645.2 2303.96   1
   3   8  -8 9489.48 880.677   4
  -3  11  -8 8066.29 665.062   4
  -3  11  -5 52691.5 1464.60   4
   3   8  -5 48728.0 1580.90   4
   3   8  -5 50401.3 1685.69   2
  -8  -3  -5 49293.6 1631.60   1
  11  -8  -5 53931.4 1528.59   3
  -3  11  -5 49942.2 1304.90   2
  -8  -3  -5 50031.2 1379.39   4
 -11   3  -5 52634.5 1218.66   4
  -3  11  -2 113931. 2174.09   3
   3   8  -2 112086. 1715.91   3
   3   8  -2 122215. 2091.11   2
  11  -8  -2 115425. 2119.53   1
 -11   3  -2 117187. 2090.88   1
   8 -11  -2 116304. 1902.38   3
   8 -11  -2 117277. 1623.31   1
 -11   3  -2 116843. 1706.87   2
   3   8  -2 116454. 2281.80   4
  11  -8  -2 121958. 1581.07   3
  -8  -3  -2 115125. 2152.60   4
  -3  11  -2 120185. 1790.80   2
 -11   3  -2 112445. 2045.15   4
  -3  11  -2 119010. 2251.20   4
  -8  -3  -2 120361. 1794.40   1
  -8  -3  -2 117269. 2154.32   2
  -8  -3   1 25242.9 1203.11   4
  -8  -3   1 25776.1 1162.39   1
  -3  11   1 25436.6 1223.58   2
  -3  11   1 25120.7 1170.53   4
  11  -8   1 24386.5 1113.44   3
  11  -8   1 25180.2 1052.07   1
 -11   3   1 24476.4 1103.21   2
   3   8   1 25995.1 987.202   3
 -11   3   1 22633.0 1045.93   1
  -3  11   1 24790.6 1022.03   3
   3   8   1 23357.0 1111.01   4
 -11   3   1 25760.8 1216.69   4
   3   8   1 25324.4 1085.87   2
  -8  -3   1 24411.1 814.209   3
  -8  -3   1 22438.3 1070.21   2
   8 -11   1 22962.9 985.340   3
   8 -11   1 23861.4 1063.13   1
   8 -11   4 39442.6 1789.23   1
  11  -8   4 42179.2 1572.65   1
 -11   3   4 41408.1 1677.34   2
   3   8   4 40784.8 1594.04   3
   3   8   4 40511.7 1394.77   4
   3   8   4 41339.6 800.017   1
  -8  -3   4 42539.8 1526.43   2
  -8  -3   4 40618.4 1490.64   4
  -8  -3   4 39389.9 616.451   3
  -3  11   4 42532.2 1439.77   3
  -3  11   4 41485.1 1529.71   4
 -11   3   4 40505.5 1524.37   4
 -11   3   7 11955.2 1073.83   4
  -8  -3   7 11822.7 1004.21   4
  -8  -3   7 12761.7 808.521   3
   3   8   7 14278.2 777.155   1
   8 -11   7 14929.8 1582.98   1
   3   8   7 14011.3 1338.43   3
  -3  11   7 13100.5 739.997   1
  -8  -3   7 13504.6 1166.83   2
  -3  11   7 12766.8 1147.52   3
  -3  11   7 9842.36 969.782   4
 -11   3   7 13566.0 705.223   3
 -11   3   7 13379.2 1340.52   2
  11  -8   7 13907.7 1369.05   1
   3   8   7 10452.2 881.884   4
   3   8  10 21512.0 1240.56   1
 -11   3  10 17138.5 1373.34   4
  -8  -3  10 13393.5 1926.65   1
  -8  -3  10 17249.9 1485.93   2
  -8  -3  10 17356.2 1254.68   4
  11  -8  10 17825.9 1673.98   1
   3   8  10 19358.4 1693.79   3
  -3  11  10 15811.7 1051.22   4
  -8  -3  10 16778.2 1256.93   3
   8 -11  10 17757.1 1976.69   1
  -3  11  10 18061.9 1135.55   1
 -11   3  10 19864.8 1122.89   3
  -3  11  10 18384.0 1551.19   3
 -11   3  10 17968.2 1644.71   2
 -11   4  -6 501.345 317.528   4
  -7  -4  -6 368.340 486.637   4
  -7  -4  -6-289.332 773.850   1
   4   7  -6-212.202 552.879   4
  -4  11  -6 1273.17 505.930   2
  -4  11  -6 478.425 439.218   4
 -11   4  -3 58035.4 1685.24   1
  11  -7  -3 57328.9 1102.77   3
  -7  -4  -3 59686.0 1763.35   2
   4   7  -3 60495.9 1654.40   2
  -7  -4  -3 62707.9 1340.72   1
   4   7  -3 57875.0 1328.26   3
  -4  11  -3 60378.3 1881.45   3
   4   7  -3 60818.1 1711.96   4
 -11   4  -3 53260.6 1372.88   4
  -4  11  -3 56230.0 1546.08   4
  -4  11  -3 59092.0 1190.02   2
  -7  -4  -3 57710.4 1548.00   4
   7 -11  -3 57594.2 1520.01   3
 -11   4  -3 56953.7 1173.15   2
  -7  -4   0 2429.94 535.773   3
  -4  11   0 2827.12 586.449   3
   7 -11   0 2247.07 522.078   1
  -7  -4   0 1689.15 630.266   4
  11  -7   0 3698.35 665.512   2
  -4  11   0 2648.31 611.042   2
  -7  -4   0 3236.16 624.956   2
  11  -7   0 2750.05 538.187   3
   4   7   0 2791.33 549.732   2
  -7  -4   0 3398.23 600.405   1
 -11   4   0 2143.96 550.463   2
  11  -7   0 3496.92 612.016   1
 -11   4   0 2576.83 632.588   4
  -4  11   0 2571.83 642.983   1
   4   7   0 2985.69 499.434   3
   7 -11   0 3357.16 543.363   3
 -11   4   0 2434.92 495.619   1
  -4  11   0 3151.03 658.852   4
   4   7   0 3606.36 661.332   4
   7 -11   3 24390.0 1193.06   3
 -11   4   3 22737.8 1164.05   1
 -11   4   3 21807.4 1167.56   4
 -11   4   3 21684.2 507.318   3
   4   7   3 27098.6 786.959   1
  11  -7   3 27139.8 1257.39   1
  11  -7   3 25723.3 1434.65   3
  -7  -4   3 26468.5 580.076   3
   4   7   3 23825.5 1224.88   2
   4   7   3 25902.7 1246.91   3
  -4  11   3 28248.7 1156.37   3
  -7  -4   3 23974.8 1122.56   2
   4   7   3 25290.1 1113.19   4
  11  -7   3 25096.1 722.996   2
   7 -11   3 24382.2 1442.52   1
 -11   4   3 24533.1 1345.31   2
  -7  -4   3 25646.0 1199.91   4
  -4  11   6 3716.48 398.633   1
  -7  -4   6 3985.44 521.421   3
   4   7   6 3447.36 517.417   1
  -4  11   6 4344.89 768.717   4
  -7  -4   6 3547.00 743.563   2
 -11   4   6 4757.55 839.825   4
   4   7   6 3544.23 946.563   3
 -11   4   6 3788.06 977.808   2
  -7  -4   6 2920.32 670.059   4
  -4  11   6 4023.88 519.085   1
   7 -11   6 5099.06 1166.70   1
  11  -7   6 5219.30 975.128   1
 -11   4   6 4802.46 469.074   3
  -4  11   6 2971.09 736.743   3
   4   7   6 4041.99 660.204   4
   4   7   9 37948.0 1464.37   1
 -11   4   9 32824.0 2007.70   2
  -7  -4   9 31781.3 1494.88   4
  -4  11   9 30157.1 1680.60   3
  -7  -4   9 28656.9 2311.50   1
  -4  11   9 27909.4 1370.28   4
   4   7   9 32120.1 1941.73   3
   7 -11   9 34060.8 2293.07   1
  -7  -4   9 30064.7 1666.08   2
  -7  -4   9 30932.5 1519.16   3
 -11   4   9 32878.8 1651.65   4
  11  -7   9 32706.1 1901.26   1
 -11   4   9 34693.3 1288.54   3
  -4  11   9 30392.4 1368.67   1
  -7  -4  12 1910.96 1659.91   1
  -7  -4  12 945.547 968.864   2
  11  -7  12 1467.85 1245.79   1
 -11   4  12 1240.68 1285.47   2
 -11   4  12 1086.22 1499.62   1
   7 -11  12 2249.90 1617.46   1
  -4  11  12 1703.59 1456.92   2
   4   7  12 712.787 1225.42   3
  -4  11  12 872.407 1063.38   3
  -6  -5  -7 50723.4 1981.86   1
  -5  11  -7 48489.8 1217.79   4
  -6  -5  -4 25458.8 1004.04   1
  -6  -5  -4 24300.7 1082.08   4
  -5  11  -4 23718.1 740.437   2
 -11   5  -4 25015.7 918.585   4
   5   6  -4 27289.1 1273.24   2
   6 -11  -4 22608.3 1165.45   3
  11  -6  -4 25826.5 865.685   3
  -5  11  -4 23328.6 1027.15   4
 -11   5  -4 25379.9 800.410   2
   5   6  -4 24265.8 1183.21   4
   5   6  -1 142935. 1597.39   3
  -5  11  -1 151698. 2108.92   2
 -11   5  -1 148589. 2199.18   1
   5   6  -1 145217. 2236.91   2
 -11   5  -1 142535. 1903.63   2
  -5  11  -1 151467. 2737.44   1
   6 -11  -1 151752. 1616.78   1
  -6  -5  -1 147014. 2440.74   4
  -5  11  -1 146835. 2343.20   3
  11  -6  -1 152992. 2616.14   4
  11  -6  -1 148825. 1655.43   3
  11  -6  -1 147782. 2353.44   1
 -11   5  -1 146256. 2342.93   4
   6 -11  -1 148193. 2083.58   3
  -6  -5  -1 145765. 2346.89   2
  -5  11  -1 146590. 2469.95   4
  -6  -5  -1 141656. 2373.37   3
   5   6  -1 150999. 2525.24   4
  -6  -5  -1 143636. 1858.55   1
  11  -6  -1 145267. 2606.20   2
  -5  11   2 45906.9 1294.40   3
   5   6   2 50288.9 1494.16   4
  11  -6   2 47852.3 1416.62   1
  -5  11   2 42969.4 898.292   1
  -6  -5   2 48686.1 1549.44   4
 -11   5   2 47859.3 1578.23   4
 -11   5   2 48641.7 986.957   3
   5   6   2 47711.8 1168.68   1
 -11   5   2 47409.1 1603.07   2
  11  -6   2 47522.5 1653.87   3
  11  -6   2 49095.4 1175.14   2
   5   6   2 47330.2 1450.16   2
  -6  -5   2 50900.1 1436.43   2
   6 -11   2 49567.8 1697.51   1
   5   6   2 48371.1 1462.52   3
   6 -11   2 44818.9 1371.44   3
  -6  -5   2 49342.7 913.045   3
 -11   5   2 45972.4 1388.43   1
  -5  11   5 56529.3 1679.05   3
   5   6   5 56817.0 1554.79   4
  11  -6   5 55432.8 1807.34   1
  -5  11   5 58920.6 941.980   1
  -5  11   5 50998.8 1155.78   1
 -11   5   5 54350.8 1764.01   4
 -11   5   5 62935.9 1056.04   3
   5   6   5 48799.5 1870.34   3
 -11   5   5 56631.4 2101.97   2
   5   6   5 59175.6 1224.62   1
   6 -11   5 53570.1 951.263   2
  -6  -5   5 55941.2 1700.84   2
   6 -11   5 54013.1 2242.38   1
  -6  -5   5 50342.3 1581.69   4
  -6  -5   5 58413.5 1167.42   3
  -6  -5   8 53799.1 1777.14   3
   6 -11   8 53807.3 2664.80   1
   5   6   8 61010.0 1722.43   1
   6 -11   8 45239.6 914.379   2
  -6  -5   8 46853.4 2694.00   1
   5   6   8 52698.1 1469.73   4
 -11   5   8 50116.3 2326.38   2
 -11   5   8 55804.4 1997.95   4
  -6  -5   8 54512.9 1955.52   2
  -6  -5   8 53389.0 1769.17   4
 -11   5   8 55433.4 1463.02   3
   5   6   8 54069.5 2312.31   3
  -5  11   8 51740.1 1659.34   1
  11  -6   8 53105.4 2142.26   1
  -5  11   8 52431.4 2006.67   3
 -11   5  11 33384.5 2457.98   1
   5   6  11 37501.1 2309.86   3
  -6  -5  11 35011.2 1868.50   2
  -5  11  11 38931.9 2549.87   2
  -6  -5  11 32967.5 2758.03   1
   5   6  11 40917.1 1795.07   1
   6 -11  11 41170.1 2827.30   1
  11  -6  11 35993.5 2154.32   1
  -6  -5  11 36334.1 1935.83   3
 -11   5  11 40916.5 2397.73   2
  -5  11  11 38761.6 2045.92   3
 -11   5  11 40380.3 1598.43   3
  -6  11  -8 39264.6 878.347   4
   6   5  -5 56091.8 1722.13   4
  -5  -6  -5 59906.0 1564.70   1
  -6  11  -5 60053.2 1477.85   4
  -5  -6  -5 54975.4 1542.14   4
 -11   6  -5 57649.9 1216.66   4
  -6  11  -5 52843.9 984.638   2
   6   5  -2 47906.6 897.816   3
 -11   6  -2 46714.1 1463.31   1
  11  -5  -2 49696.9 782.577   3
  -6  11  -2 48256.2 1638.91   3
  -6  11  -2 47187.1 1812.13   1
   6   5  -2 50238.1 1561.84   4
  -5  -6  -2 50866.9 1586.18   4
   6   5  -2 47803.8 1474.29   2
  11  -5  -2 45340.3 1554.78   4
  -5  -6  -2 48923.6 982.753   1
  -6  11  -2 45392.1 1411.20   4
  -5  -6  -2 47864.0 1613.22   2
  -5  -6  -2 49361.3 1647.44   3
   5 -11  -2 44524.6 1294.47   3
   5 -11  -2 49501.3 749.605   1
 -11   6  -2 45860.9 953.578   2
 -11   6  -2 46815.5 1362.88   4
  -6  11  -2 48702.3 1068.18   2
  11  -5  -2 44505.8 1689.36   2
  11  -5  -2 48550.9 1617.78   1
  11  -5   1 159261. 2324.35   1
  -5  -6   1 159840. 1862.15   3
 -11   6   1 155811. 2028.53   3
   6   5   1 159566. 2176.81   3
  11  -5   1 158639. 2239.22   2
  -6  11   1 162860. 2221.74   3
  -5  -6   1 157612. 2363.17   2
  -5  -6   1 161805. 2614.72   4
 -11   6   1 158969. 2496.81   2
  11  -5   1 164610. 2541.69   4
 -11   6   1 162206. 2270.23   1
   5 -11   1 159066. 2210.17   3
   6   5   1 159400. 2328.85   2
  11  -5   1 154749. 2490.43   3
  -6  11   1 159000. 2004.06   1
   6   5   1 157649. 2525.65   4
   5 -11   1 160241. 2491.51   1
   5 -11   4 27854.5 1714.30   1
 -11   6   4 30628.1 1644.90   2
   6   5   4 29602.8 1292.44   2
   5 -11   4 28304.3 852.366   2
   6   5   4 30504.0 1162.73   4
  -5  -6   4 29488.5 1254.54   4
  11  -5   4 29268.6 1277.42   1
 -11   6   4 27596.8 1327.36   4
 -11   6   4 29874.6 749.700   3
  -5  -6   4 31197.5 852.027   3
  -6  11   4 28902.1 1173.06   3
  -5  -6   4 30179.8 1196.55   2
  -6  11   4 28271.1 667.138   1
   6   5   4 29425.0 1496.91   3
   6   5   4 30776.8 943.022   1
  11  -5   4 30341.7 793.438   2
 -11   6   4 28035.5 1268.52   1
 -11   6   7 49536.9 2253.37   2
  11  -5   7 47120.5 1860.01   1
   5 -11   7 50715.3 2547.71   1
  -6  11   7 49820.0 1656.71   1
   6   5   7 51747.0 1492.97   1
  -5  -6   7 45417.5 1602.24   4
  11  -5   7 45251.6 963.049   2
  -5  -6   7 46337.5 1677.50   2
   6   5   7 47181.7 1393.85   4
  -5  -6   7 45532.3 1511.87   3
   6   5   7 48488.0 2170.54   3
   5 -11   7 44655.2 1008.92   2
 -11   6   7 49722.9 1832.73   4
  -6  11   7 48896.7 1394.44   1
  -6  11   7 49973.4 1767.13   3
 -11   6   7 53598.6 1372.07   3
  -6  11  10 18019.4 1237.67   4
   6   5  10 17216.6 1274.08   1
   6   5  10 18987.0 1758.67   3
  -6  11  10 19129.5 1467.50   3
 -11   6  10 17370.8 1697.14   2
  -6  11  10 19492.7 1977.03   2
  -5  -6  10 17242.6 2216.20   1
  -5  -6  10 15209.3 1074.47   4
  -5  -6  10 16788.7 1324.08   2
   5 -11  10 19680.7 2214.45   1
  11  -5  10 18150.1 1581.68   1
  -6  11  10 13966.9 1304.02   1
 -11   6  10 18514.1 1132.05   3
 -11   6  10 18586.5 1413.55   4
  -4  -7  -6 4962.21 766.735   1
   7   4  -6 3110.79 709.250   4
 -11   7  -6 4581.91 396.374   4
  -7  11  -6 3661.91 500.813   4
  -4  -7  -3 25524.4 1447.33   2
   7   4  -3 25818.4 730.498   3
  -7  11  -3 30049.7 1518.20   3
  -4  -7  -3 31044.9 1257.78   4
  -7  11  -3 30067.8 674.421   2
  11  -4  -3 27974.8 1314.94   4
  11  -4  -3 25166.7 1407.97   2
  -7  11  -3 28352.4 1121.05   4
 -11   7  -3 27894.7 1055.83   4
  -7  11  -3 26211.5 1605.04   1
   7   4  -3 29361.3 1289.54   4
  -4  -7  -3 28492.0 1433.27   3
 -11   7  -3 28209.0 1392.66   1
  -4  -7  -3 30222.4 784.885   1
 -11   7  -3 29761.4 639.945   2
   7   4  -3 28951.6 1307.40   2
   4 -11  -3 26220.9 1192.89   3
  11  -4   0 3028.73 547.775   3
  11  -4   0 2351.10 652.635   1
  -7  11   0 2051.65 634.202   3
  -4  -7   0 2822.00 645.322   2
 -11   7   0 2395.26 575.158   2
  11  -4   0 2392.46 621.136   4
 -11   7   0 2621.72 689.957   3
 -11   7   0 2740.59 666.017   4
  -7  11   0 1831.41 583.958   1
   7   4   0 2815.28 624.925   4
  -4  -7   0 2551.72 495.207   3
  -4  -7   0 2595.76 711.113   4
 -11   7   0 2669.69 530.634   1
  11  -4   0 2689.88 594.007   2
   4 -11   0 2316.10 499.284   3
   7   4   0 2173.81 530.430   2
   7   4   0 2613.51 460.423   3
   4 -11   0 1485.58 555.963   1
   7   4   3 64249.3 1629.70   2
 -11   7   3 67502.9 1179.72   3
  11  -4   3 66482.4 1290.06   2
  -4  -7   3 65478.8 1204.19   3
   7   4   3 67029.4 1377.32   1
  11  -4   3 56398.6 1543.26   1
   7   4   3 61056.4 1899.72   3
 -11   7   3 60864.0 1566.21   1
   7   4   3 66573.0 1674.02   4
   4 -11   3 65322.7 1401.12   2
  -4  -7   3 64176.3 1606.93   2
  -4  -7   3 62564.0 1743.36   4
   4 -11   3 60196.7 2160.57   1
  11  -4   3 64585.0 1565.56   4
 -11   7   3 55479.1 1764.01   4
   4 -11   3 59611.9 1597.15   3
  -7  11   3 65660.7 1073.91   1
 -11   7   3 64203.4 2108.78   2
  -7  11   3 63745.1 1505.77   3
   4 -11   6 670.618 395.101   2
 -11   7   6 1332.90 459.220   3
  -7  11   6 455.687 611.104   3
 -11   7   6 649.856 657.525   4
   7   4   6 661.413 509.286   4
   7   4   6 62.5005 550.706   1
  -4  -7   6 233.177 548.760   3
 -11   7   6 894.821 875.114   2
   7   4   6 165.061 852.232   3
  11  -4   6 730.609 706.780   1
  -7  11   6 187.932 441.510   1
  -4  -7   6 457.299 592.820   4
  -4  -7   6 199.598 608.101   2
   4 -11   6 692.143 1104.95   1
  11  -4   6 822.549 377.179   2
  -7  11   9 7125.17 943.898   4
  -7  11   9 6222.78 1119.66   1
  -4  -7   9 6824.30 928.493   2
   7   4   9 9504.09 1046.82   1
 -11   7   9 6173.95 1021.60   4
  11  -4   9 5085.09 775.507   2
 -11   7   9 8474.05 1417.98   2
  -4  -7   9 7005.46 898.064   4
 -11   7   9 7506.97 831.354   3
   4 -11   9 7819.26 1672.13   1
  -4  -7   9 6446.89 1853.89   1
   4 -11   9 5533.29 628.504   2
  -7  11   9 5289.84 1418.53   2
   7   4   9 6209.32 1255.70   3
  -7  11   9 6306.69 981.613   3
  11  -4   9 5313.17 1103.58   1
  -4  -7  12 1329.11 1615.46   1
  11  -4  12-301.974 1080.42   1
  -7  11  12 1507.41 1490.08   2
   7   4  12 2379.40 1397.14   3
   4 -11  12 941.947 1623.68   1
  -7  11  12 833.006 1035.89   3
 -11   7  12-526.651 1252.56   2
 -11   7  12 1786.25 1475.59   1
  11  -4  12-355.771 1570.15   3
  -8  11  -7 9982.71 546.812   4
   8   3  -4 42499.2 1546.89   4
  11  -3  -4 39864.3 1545.95   4
 -11   8  -4 41740.9 1184.90   4
  -3  -8  -4 38220.0 923.395   1
  -3  -8  -4 44176.7 1506.95   4
  -8  11  -4 42926.3 1300.91   4
   8   3  -1 21672.3 1118.96   4
  -3  -8  -1 21239.7 1204.52   2
  11  -3  -1 25619.6 729.896   3
  -8  11  -1 20766.9 1159.55   1
 -11   8  -1 20746.6 835.203   2
  -3  -8  -1 23805.0 785.881   1
 -11   8  -1 23572.1 1116.63   4
  11  -3  -1 23437.1 1162.36   2
 -11   8  -1 22589.7 1056.24   1
   3 -11  -1 23252.9 973.241   3
  -3  -8  -1 22032.0 1035.53   3
   3 -11  -1 23144.8 713.656   1
  -3  -8  -1 23428.5 1193.68   4
  -8  11  -1 23535.2 1206.31   3
   8   3  -1 22072.0 1078.65   2
   8   3  -1 24320.6 621.908   3
  11  -3  -1 23816.2 1222.25   1
  11  -3  -1 23733.5 1155.82   4
  -8  11   2 110651. 1874.01   3
 -11   8   2 113048. 2358.44   4
   8   3   2 116128. 2191.30   4
   8   3   2 116162. 2281.95   3
  -8  11   2 116858. 1627.90   1
  -3  -8   2 117299. 2383.29   4
 -11   8   2 112970. 1697.63   3
  11  -3   2 115723. 2154.24   4
  -3  -8   2 111474. 1611.15   3
   3 -11   2 112027. 1984.90   2
   8   3   2 115323. 1926.61   1
  11  -3   2 113728. 1849.98   2
 -11   8   2 109695. 2507.52   2
  11  -3   2 110677. 2006.06   1
   8   3   2 113567. 2023.33   2
  -3  -8   2 115045. 2054.85   2
   3 -11   2 107931. 1910.25   3
   3 -11   2 110484. 2519.44   1
 -11   8   2 109611. 1886.57   1
   8   3   5 51252.7 2049.58   3
  -3  -8   5 50636.8 1368.39   3
 -11   8   5 50402.4 1626.81   1
  11  -3   5 55597.6 1709.77   1
 -11   8   5 54393.0 1827.49   4
  -8  11   5 51968.4 1219.18   1
  -3  -8   5 54925.8 1679.62   4
 -11   8   5 52965.9 2111.65   2
   8   3   5 52241.8 1610.42   2
   3 -11   5 52376.5 2352.55   1
  -3  -8   5 52569.9 1535.25   2
   8   3   5 52974.7 1471.34   4
   8   3   5 56430.1 1454.13   1
  11  -3   5 55350.3 1232.76   2
  11  -3   5 60717.7 1436.97   4
   3 -11   5 52577.2 1237.98   2
  -8  11   5 53327.0 1508.84   3
 -11   8   5 55208.6 1247.21   3
   3 -11   8 10071.1 1714.12   1
 -11   8   8 9828.98 848.139   3
   8   3   8 10256.3 1049.34   1
   8   3   8 7857.99 586.958   4
 -11   8   8 11208.7 1466.32   2
  -3  -8   8 7805.15 1764.39   1
 -11   8   8 8799.03 1048.62   4
   3 -11   8 8262.67 688.323   2
  -8  11   8 9003.07 1242.90   1
   8   3   8 9263.07 1329.54   3
  11  -3   8 8534.19 726.372   2
  -8  11   8 8499.87 990.971   4
  -3  -8   8 8979.09 898.363   4
  -3  -8   8 9629.16 943.189   2
  -8  11   8 10302.4 976.677   1
  -8  11   8 9270.63 992.011   3
  11  -3   8 8578.29 1074.49   1
 -11   8  11 7801.29 990.907   3
 -11   8  11 6451.35 1519.78   1
  11  -3  11 10189.4 1875.93   3
  -8  11  11 10129.2 1690.40   2
  11  -3  11 7929.07 1314.72   1
   8   3  11 8535.86 1190.08   1
 -11   8  11 9512.73 1663.52   2
  -8  11  11 7257.37 1344.21   1
  -3  -8  11 9373.95 2073.05   1
   3 -11  11 10819.6 2087.83   1
  -3  -8  11 7577.15 1067.79   2
  -8  11  11 7609.25 1114.35   3
   8   3  11 7666.93 1556.35   3
  -9  11  -5 40148.1 1192.60   4
 -11   9  -5 41722.9 1133.88   4
   9   2  -2 51087.4 611.204   3
  -9  11  -2 54054.8 1152.44   2
 -11   9  -2 55940.3 1543.87   4
  -2  -9  -2 48628.0 1868.08   2
  -2  -9  -2 59665.5 848.992   1
  11  -2  -2 52027.0 1768.97   2
   9   2  -2 57934.6 1754.71   4
  11  -2  -2 56492.4 1765.00   4
  -2  -9  -2 57857.0 1726.57   4
   9   2  -2 55420.7 1694.45   2
 -11   9  -2 57412.2 1044.64   2
  -2  -9  -2 51826.0 1630.80   3
  -9  11  -2 51020.2 1813.47   1
   2 -11  -2 48060.2 1443.17   3
 -11   9  -2 53692.5 1682.21   1
  -9  11  -2 49124.4 1778.71   3
 -11   9   1 143324. 2130.57   3
  -9  11   1 146564. 2033.75   1
   2 -11   1 145304. 2478.12   2
 -11   9   1 144821. 2131.99   1
  -2  -9   1 148164. 2684.75   4
  11  -2   1 148495. 2530.76   4
  11  -2   1 146184. 2328.14   1
 -11   9   1 132183. 2536.81   2
  11  -2   1 153119. 2323.90   2
   2 -11   1 147263. 2704.58   1
   2 -11   1 141656. 2073.37   3
   2 -11   1 146618. 2652.98   4
  -2  -9   1 140673. 2337.74   2
   9   2   1 143726. 2495.47   4
   9   2   1 141604. 2341.54   1
   9   2   1 143337. 2269.06   2
   9   2   1 141915. 2251.12   3
  -9  11   1 146856. 2201.16   3
  -2  -9   1 146592. 1983.38   3
   2 -11   4 56965.2 1674.90   4
 -11   9   4 60969.6 1305.47   3
   9   2   4 61243.8 2109.92   3
  -2  -9   4 62938.7 1427.73   3
  11  -2   4 63011.0 1655.32   1
   2 -11   4 60418.7 2388.82   1
 -11   9   4 56933.4 1821.73   4
 -11   9   4 57522.9 1520.93   1
   9   2   4 61416.5 1607.27   4
   9   2   4 63016.6 1516.75   1
  -2  -9   4 65131.9 1818.33   4
  11  -2   4 61780.0 1539.21   4
 -11   9   4 60833.1 2217.28   2
  -2  -9   4 60827.0 1534.63   2
   2 -11   4 54365.8 1581.84   3
   9   2   4 61813.1 1598.35   2
  -9  11   4 58241.9 1260.44   1
   2 -11   4 60824.8 1392.70   2
  11  -2   4 60452.5 1379.81   2
  -9  11   4 58113.8 1461.27   3
  11  -2   7 69366.5 2100.23   1
 -11   9   7 72476.0 1713.02   3
  -9  11   7 62211.6 1739.18   1
  -9  11   7 65009.1 2057.69   4
   2 -11   7 67675.2 1585.64   2
 -11   9   7 67096.9 2137.69   4
   9   2   7 73939.4 1948.03   1
   9   2   7 70173.1 1557.26   4
  -2  -9   7 72406.4 3298.26   1
  -2  -9   7 66435.0 1850.56   4
  -2  -9   7 69242.3 1848.10   2
   9   2   7 65565.2 2644.68   3
   2 -11   7 69295.8 3105.96   1
  11  -2   7 62673.2 1563.68   2
  -9  11   7 69566.0 1904.82   3
 -11   9   7 66857.4 2634.30   2
 -11   9  10 7907.12 1567.09   2
  11  -2  10 9388.68 1193.90   1
   9   2  10 6666.60 1042.10   1
  -9  11  10 9316.14 1432.24   1
  -9  11  10 8634.87 1072.25   4
   9   2  10 7842.44 1421.18   3
   2 -11  10 11590.8 2126.83   1
  11  -2  10 9923.05 1695.17   3
  -2  -9  10 8123.18 981.548   2
 -11   9  10 8972.31 1532.73   1
 -11   9  10 8769.55 1162.02   4
  -2  -9  10 11110.1 2013.62   1
  -9  11  10 9850.75 1670.38   2
 -11   9  10 10383.8 1021.24   3
  -9  11  10 6920.62 1020.24   3
   2 -11  10 8101.61 803.995   2
 -10  11  -6 7320.31 609.990   4
 -11  10  -6 6678.46 552.059   4
 -10  11  -6 7471.59 602.189   4
 -10  11  -3 14680.8 458.318   2
 -10  11  -3 17587.5 467.308   2
  11  -1  -3 19799.5 1189.33   4
  10   1  -3 20226.4 1187.32   4
 -11  10  -3 16478.9 411.709   2
 -11  10  -3 21368.6 1019.34   4
   1 -11   0 3903.75 887.793   2
  11  -1   0 4092.56 819.188   1
  10   1   0 3605.88 643.113   2
  10   1   0 3327.87 556.768   3
   1 -11   0 3424.83 832.032   4
  10   1   0 3709.78 846.902   1
  11  -1   0 4345.24 708.015   2
   1 -11   0 3790.38 766.688   1
 -11  10   0 4176.85 798.487   3
 -10  11   0 4177.39 782.833   3
  -1 -10   0 4377.61 867.523   2
  11  -1   0 3119.71 713.306   4
  -1 -10   0 5166.07 874.781   4
  10   1   0 3269.96 692.377   4
 -10  11   0 3743.65 671.116   1
 -11  10   0 4130.73 732.333   2
  -1 -10   0 3948.84 587.928   3
 -11  10   0 3823.18 638.704   1
   1 -11   0 3466.79 559.510   3
 -10  11   3 13273.8 805.914   3
 -11  10   3 15217.1 1082.83   4
   1 -11   3 11718.1 794.264   3
  10   1   3 14380.7 890.925   1
  10   1   3 15390.8 865.535   2
  11  -1   3 14289.2 902.225   1
 -11  10   3 13935.2 1255.69   2
   1 -11   3 12444.9 1409.29   1
  11  -1   3 14475.6 902.854   4
  10   1   3 14893.7 917.942   4
  -1 -10   3 14985.6 1038.87   4
 -11  10   3 13144.8 770.874   3
  -1 -10   3 14157.1 899.934   2
  -1 -10   3 13724.4 761.525   3
  10   1   3 14409.8 1180.70   3
   1 -11   3 12630.8 818.207   2
   1 -11   3 13292.6 1005.03   4
 -11  10   3 13644.4 783.736   1
  11  -1   3 13215.3 775.118   2
 -10  11   3 12922.1 712.856   1
  11  -1   6 4067.86 597.394   4
  -1 -10   6 3914.64 682.663   4
  10   1   6 4906.86 1155.77   3
 -11  10   6 3553.79 1063.12   2
  10   1   6 4931.50 772.830   1
 -11  10   6 2990.76 782.546   4
  -1 -10   6 4416.82 671.134   2
   1 -11   6 4191.39 732.720   4
 -10  11   6 2325.95 986.344   2
  10   1   6 4534.90 611.999   4
   1 -11   6 3835.27 1394.98   1
 -11  10   6 3280.16 698.565   1
 -10  11   6 2839.59 656.159   1
   1 -11   6 4368.43 592.222   2
  -1 -10   6 2880.49 1369.18   1
 -10  11   6 3766.57 825.676   4
  11  -1   6 4326.42 784.890   1
  11  -1   6 4227.74 642.277   2
  10   1   6 3848.20 667.554   2
 -10  11   6 3976.84 676.512   3
 -11  10   6 3708.12 644.764   3
  11  -1   9 20859.2 1406.85   1
 -10  11   9 17436.4 1596.50   1
  10   1   9 20342.3 1417.46   1
 -11  10   9 22683.2 1898.57   2
 -10  11   9 22954.8 1486.12   4
 -10  11   9 18982.8 1844.20   2
  10   1   9 23765.8 1968.95   3
   1 -11   9 22776.6 2263.16   1
 -10  11   9 19804.4 1272.40   3
  -1 -10   9 20100.2 1206.21   2
  11  -1   9 21385.1 1963.90   3
   1 -11   9 19616.8 1098.01   2
 -11  10   9 21692.8 1224.94   3
  -1 -10   9 24811.1 2413.26   1
 -11  10   9 21859.7 1459.75   4
 -11  10  12 1109.24 813.802   3
 -10  11  12-49.3326 1341.74   2
 -11  10  12 799.444 1472.12   2
  11  -1  12 3152.75 1108.44   1
   1 -11  12 1619.76 1851.25   1
  10   1  12 1490.68 1433.70   3
  11  -1  12 844.154 1544.57   3
  -1 -10  12-1703.87 1861.04   1
  10   1  12 1754.24 1127.79   1
 -10  11  12 1483.03 933.167   3
 -11  11  -7 36.4960 329.657   4
 -11  11  -7 388.276 334.462   4
   0 -11  -1-450.780 757.013   4
 -11  11  -1-317.907 797.393   3
  11   0  -1 312.461 600.447   4
 -11  11  -1 417.022 662.694   1
   0 -11  -1 369.835 566.599   1
 -11  11  -1-113.855 550.869   2
  11   0  -1 142.379 350.965   3
  11   0  -1-748.261 662.805   2
   0 -11  -1-321.948 872.370   2
   0 -11  -1 225.011 516.821   3
   0 -11   2 32692.7 1274.66   2
  11   0   2 34005.9 1230.24   2
  11   0   2 32238.4 1264.17   1
 -11  11   2 33242.6 1159.67   3
   0 -11   2 31367.3 1674.45   1
 -11  11   2 29597.9 1050.29   1
   0 -11   2 29822.0 1327.43   4
  11   0   2 34211.8 1334.83   4
   0 -11   2 30154.6 1055.67   3
  11   0   5-411.632 601.891   1
 -11  11   5 167.991 631.457   4
   0 -11   5-353.537 576.571   3
 -11  11   5 600.418 504.264   1
   0 -11   5 155.153 589.635   4
  11   0   5 336.502 470.234   2
  11   0   5 859.647 530.164   4
 -11  11   5-326.479 489.232   3
   0 -11   5 473.432 1185.78   1
 -11  11   5-645.470 909.953   2
   0 -11   5-412.569 513.690   2
  11   0   8 15137.9 1197.63   1
 -11  11   8 14456.5 1220.77   4
   0 -11   8 13806.9 952.007   2
   0 -11   8 13621.8 1977.32   1
   0 -11   8 14804.2 1064.34   4
 -11  11   8 14093.8 1056.07   3
  11   0   8 16587.1 1746.00   3
 -11  11   8 16470.9 1704.79   2
  11   0  11 1159.66 1013.81   1
   0 -11  11-710.439 1672.87   1
  11   0  11 1090.38 1333.22   3
 -11  11  11-1532.20 1371.35   2
 -11  11  11 353.131 1224.71   1
 -11  11  11 216.028 833.547   3
   0  12  -6 39178.0 1510.95   2
 -12   0  -6 45728.5 1373.86   4
   0  12  -3-710.642 654.547   3
 -12   0  -3-348.696 539.027   4
  12 -12  -3 825.457 621.958   1
 -12   0  -3-620.858 552.854   1
   0  12  -3-83.0031 584.718   4
 -12   0  -3 251.352 547.566   2
   0  12  -3 184.538 462.984   2
  12 -12  -3 571.398 436.813   3
   0  12   0 1530.03 635.818   2
   0  12   0 2385.77 638.185   3
  12 -12   0 1533.09 571.932   3
 -12   0   0 2000.62 607.860   1
   0  12   0 1889.46 676.241   4
 -12   0   0 2078.62 636.914   2
 -12   0   0 1645.23 708.554   4
  12 -12   0 1680.68 585.220   1
 -12   0   3 983.507 682.590   2
  12 -12   3-261.575 722.658   1
 -12   0   3 820.218 671.070   4
   0  12   3-29.4069 568.101   3
   0  12   6 42993.0 1803.84   3
 -12   0   6 44901.3 1788.25   4
  12 -12   6 43390.3 2029.98   1
 -12   0   6 44318.9 1902.91   2
  12 -12   9 464.956 1149.23   1
   0  12   9 89.4367 967.210   3
 -12   0   9 179.960 830.331   4
 -12   0   9 1114.02 1067.32   2
  12 -12  12 5851.84 1682.11   1
 -12   0  12 7224.73 1456.88   2
 -12   0  12 5090.47 1703.70   1
   0  12  12 6174.33 1358.00   3
  -1  12  -7 47033.9 1624.93   4
   1  11  -7 48200.0 1721.60   4
  -1  12  -7 54829.6 1895.73   2
 -12   1  -7 56728.3 1308.06   4
 -11  -1  -7 55931.2 1378.15   4
   1  11  -4 74337.1 1838.59   2
 -12   1  -4 75688.1 1837.69   2
 -11  -1  -4 72632.9 1943.02   2
   1  11  -4 70154.9 1969.22   3
  12 -11  -4 73701.8 1699.19   3
  -1  12  -4 76506.7 1735.16   2
 -11  -1  -4 71728.8 1747.00   4
  -1  12  -4 74039.3 2117.03   3
  -1  12  -4 71506.9 1931.37   4
 -11  -1  -4 71997.1 1920.50   1
   1  11  -4 67485.0 1908.02   4
  11 -12  -4 73015.9 1804.90   3
 -12   1  -4 74212.3 1726.62   4
   1  11  -1 150201. 2216.16   3
   1  11  -1 146796. 2734.98   4
  12 -11  -1 150781. 2281.83   1
 -12   1  -1 149285. 2672.46   4
  -1  12  -1 147174. 2367.59   2
  -1  12  -1 147068. 2317.90   3
  -1  12  -1 155650. 2892.89   4
 -11  -1  -1 146870. 2289.02   1
 -12   1  -1 145766. 2285.90   2
 -12   1  -1 140428. 2284.80   1
 -11  -1  -1 146098. 2363.20   2
  11 -12  -1 145715. 2156.34   3
   1  11  -1 149867. 2400.14   2
  11 -12  -1 149608. 2148.45   1
 -11  -1  -1 149659. 2672.73   4
  12 -11  -1 147531. 2093.38   3
  -1  12   2 95917.9 2288.33   4
  12 -11   2 97825.3 2231.48   3
  12 -11   2 101438. 2182.82   1
 -12   1   2 104200. 2389.06   4
  11 -12   2 103751. 2147.22   1
  -1  12   2 101784. 2039.93   3
   1  11   2 95896.2 1965.93   3
 -12   1   2 96881.1 2229.42   2
   1  11   2 100713. 2388.05   4
 -11  -1   2 97448.7 2346.13   4
  12 -11   5 33762.2 1679.91   1
 -12   1   5 30570.7 1576.19   2
 -11  -1   5 35706.1 1553.21   4
  11 -12   5 33994.8 1757.41   1
 -11  -1   5 32471.6 1546.22   2
 -12   1   5 31226.8 1479.03   4
  -1  12   5 32943.5 1483.44   3
   1  11   5 34650.8 1539.37   3
 -11  -1   8 5074.04 942.288   4
   1  11   8 5441.73 480.625   1
  12 -11   8 6769.78 1224.14   1
  -1  12   8 4856.26 397.585   1
 -12   1   8 6543.33 1035.38   4
 -11  -1   8 6136.73 565.969   3
 -12   1   8 6234.73 1162.20   2
  11 -12   8 6940.22 1377.30   1
 -12   1   8 5480.17 505.170   3
   1  11   8 7727.57 1208.93   3
  -1  12   8 4996.42 1103.03   3
 -11  -1   8 4600.75 1058.87   2
 -11  -1  11 42148.0 2285.74   2
 -11  -1  11 31709.1 2503.10   1
  11 -12  11 39256.2 2554.58   1
 -12   1  11 29041.7 2398.34   1
  12 -11  11 42579.9 2607.26   1
 -12   1  11 38429.4 2272.83   2
   1  11  11 41248.7 2312.62   3
  -1  12  11 38168.8 2224.38   3
  -2  12  -8 5759.40 747.016   4
  12 -10  -5 22570.9 1094.04   3
 -12   2  -5 23629.4 1184.88   2
 -12   2  -5 23992.2 985.130   4
 -10  -2  -5 24181.6 1074.99   4
   2  10  -5 22339.6 1183.01   4
   2  10  -5 22085.6 1178.49   2
  -2  12  -5 21396.5 1016.08   2
 -10  -2  -5 24673.3 1326.62   1
  -2  12  -5 22336.1 1116.71   4
  10 -12  -2 61070.2 1383.71   1
  -2  12  -2 59347.5 1649.85   3
 -10  -2  -2 59696.2 1685.66   4
  -2  12  -2 59890.3 1428.62   2
   2  10  -2 61854.5 1807.27   4
  12 -10  -2 61366.4 1641.34   1
 -10  -2  -2 59168.4 1433.59   1
  -2  12  -2 63469.0 1830.23   4
 -12   2  -2 61432.3 1681.65   4
   2  10  -2 58090.8 1429.66   3
 -12   2  -2 58644.4 1543.34   1
 -12   2  -2 58641.0 1401.50   2
   2  10  -2 60899.4 1574.75   2
  10 -12  -2 59614.9 1436.86   3
 -10  -2  -2 60810.2 1617.94   2
  12 -10  -2 58991.1 1270.10   3
 -10  -2   1 37845.5 1390.94   1
  -2  12   1 44781.7 1562.48   2
  12 -10   1 43644.3 1419.83   3
  10 -12   1 45598.9 1380.12   1
   2  10   1 43736.2 1300.97   3
 -10  -2   1 41138.9 1413.67   2
   2  10   1 41449.1 1511.53   4
  -2  12   1 43471.4 1332.22   3
 -12   2   1 33335.0 1427.11   4
 -12   2   1 41473.5 1447.36   2
  12 -10   1 43124.2 1369.94   1
  -2  12   1 40030.2 1520.59   4
 -12   2   1 41672.3 1384.97   1
 -10  -2   1 44588.9 1624.21   4
  10 -12   1 41924.8 1362.18   3
   2  10   1 41353.1 1454.38   2
  12 -10   4 15420.7 1145.38   1
 -12   2   4 15600.3 1116.65   4
   2  10   4 13195.4 994.129   4
 -10  -2   4 14213.7 1065.16   4
 -12   2   4 13666.1 1138.02   2
 -10  -2   4 15431.7 1105.04   2
  -2  12   4 11341.6 967.778   4
   2  10   4 12047.1 1011.39   3
  -2  12   4 13290.9 979.600   3
  10 -12   4 13453.9 1211.74   1
 -10  -2   7 5530.15 884.675   4
 -10  -2   7 5843.49 490.518   3
  -2  12   7 4140.26 332.742   1
 -10  -2   7 5265.77 506.122   3
 -12   2   7 4515.90 555.735   3
  12 -10   7 5343.80 1077.16   1
  -2  12   7 4135.10 302.167   1
   2  10   7 5137.22 451.300   1
 -12   2   7 5378.05 1064.17   2
 -12   2   7 6241.41 433.077   3
 -12   2   7 6348.01 947.382   4
   2  10   7 5465.82 1123.77   3
   2  10   7 4629.09 802.460   4
  -2  12   7 5788.55 1004.13   3
 -10  -2   7 5787.57 993.213   2
  -2  12  10 13412.5 1436.71   3
 -12   2  10 13424.1 1569.35   2
  12 -10  10 13500.4 1692.08   1
 -10  -2  10 8236.35 1634.90   1
 -10  -2  10 13660.5 1445.23   2
 -10  -2  10 14136.5 1270.88   4
  -2  12  10 11122.8 958.580   4
  10 -12  10 13106.5 1782.44   1
 -12   2  10 16052.9 1389.71   4
   2  10  10 13129.1 1537.98   3
  -9  -3  -6 10653.7 775.811   4
 -12   3  -6 10937.2 662.289   4
  -3  12  -6 10064.2 817.756   4
  12  -9  -6 10871.1 1004.01   3
   3   9  -6 9555.32 907.650   4
  -3  12  -6 10050.0 808.233   2
  -9  -3  -6 9032.52 1085.71   1
  12  -9  -3 1838.37 731.242   1
  -9  -3  -3 841.495 515.546   1
  12  -9  -3 1311.50 399.557   3
  -9  -3  -3 884.476 591.888   4
   3   9  -3 1400.27 604.779   2
   9 -12  -3 1436.97 552.302   3
  -9  -3  -3 1689.46 719.294   2
   3   9  -3 1152.19 550.297   3
 -12   3  -3 1037.69 441.950   2
  -3  12  -3 1273.09 678.766   3
   9 -12  -3 1662.42 510.587   1
  -3  12  -3 1659.02 630.529   4
 -12   3  -3 893.933 588.352   1
 -12   3  -3 712.988 526.003   4
  -3  12  -3 1668.65 445.869   2
   3   9  -3 913.140 564.267   4
  -3  12   0 46206.7 1351.65   3
   3   9   0 43190.5 1514.27   4
 -12   3   0 45520.2 1550.62   4
  -3  12   0 44458.5 1521.12   4
  12  -9   0 44704.9 1252.46   3
  -3  12   0 44465.3 1439.98   2
   9 -12   0 41324.0 1258.31   3
  -9  -3   0 43395.0 1330.82   1
  -9  -3   0 45060.1 1556.35   4
   3   9   0 43134.5 1174.54   3
  -9  -3   0 41474.6 1370.98   2
 -12   3   0 42978.0 1316.20   1
   3   9   0 42565.6 1362.81   2
  12  -9   0 42098.2 1308.64   1
   9 -12   0 45971.6 1234.16   1
 -12   3   0 45292.3 1333.23   2
  12  -9   3 6968.69 907.854   1
  -9  -3   3 7001.31 832.803   2
  -9  -3   3 7722.18 876.082   4
 -12   3   3 6383.38 901.559   2
   3   9   3 7247.34 783.914   4
  -3  12   3 7013.98 833.037   4
   9 -12   3 7740.56 1038.86   1
  -3  12   3 7766.68 829.345   3
  -9  -3   3 4236.73 232.017   3
   3   9   3 7142.07 824.371   3
 -12   3   3 7574.86 883.981   4
   3   9   6 29252.6 1354.62   4
   3   9   6 33593.1 1719.65   3
   3   9   6 34708.5 866.036   1
 -12   3   6 34340.0 706.731   3
 -12   3   6 34345.7 1794.52   2
  12  -9   6 36737.9 1740.63   1
  -9  -3   6 34232.1 819.630   3
  -9  -3   6 34910.6 1495.84   4
  -9  -3   6 34415.6 1580.66   2
   9 -12   6 34470.9 1935.18   1
 -12   3   6 33147.2 1513.10   4
  -3  12   6 34154.8 1530.84   3
  -9  -3   9 5285.76 797.115   3
  12  -9   9 4993.20 1249.46   1
   3   9   9 4491.81 712.898   1
  -9  -3   9 5128.99 984.237   4
 -12   3   9 3408.41 959.907   4
   9 -12   9 5807.49 1471.39   1
   3   9   9 3508.53 1115.05   3
 -12   3   9 4427.21 1147.44   2
  -9  -3   9 5352.59 1011.30   2
  -3  12   9 4399.14 680.748   1
 -12   3   9 5302.36 653.805   3
  -3  12   9 3757.89 1069.28   3
  -9  -3  12 5639.86 1295.77   2
 -12   3  12 8346.19 1545.32   2
   9 -12  12 8621.08 2007.77   1
  -3  12  12 5380.68 1502.29   2
 -12   3  12 6128.28 1736.02   1
   3   9  12 5866.13 1460.58   3
  -9  -3  12 5380.65 1802.46   1
  -3  12  12 6396.79 1365.75   3
  12  -9  12 6685.82 1593.17   1
  -4  12  -7 59741.7 1551.74   4
 -12   4  -7 59529.6 1026.42   4
  -4  12  -7 62355.1 1616.51   2
 -12   4  -4 64373.1 1520.54   4
 -12   4  -4 68310.0 1446.15   2
  -8  -4  -4 67696.2 2034.74   2
   4   8  -4 65087.8 1644.96   3
  -8  -4  -4 69462.1 1791.36   4
  -4  12  -4 67322.7 1754.97   4
   4   8  -4 67330.8 1843.47   2
   4   8  -4 63327.2 1845.13   4
  -4  12  -4 68205.8 1365.36   2
  12  -8  -4 67142.1 1389.42   3
  -4  12  -4 67310.4 2148.51   3
  -8  -4  -4 70302.7 1655.31   1
 -12   4  -1 188720. 2585.06   1
  -8  -4  -1 189800. 2329.74   1
  12  -8  -1 191271. 2099.04   3
  -4  12  -1 192557. 2725.30   3
  -8  -4  -1 190092. 2753.58   2
   8 -12  -1 196406. 2084.31   1
  -4  12  -1 188179. 3104.74   1
  -4  12  -1 187257. 2891.68   4
   4   8  -1 188004. 2129.47   3
 -12   4  -1 188155. 2336.50   2
   4   8  -1 193212. 2674.21   2
   4   8  -1 200578. 3060.50   4
  -8  -4  -1 192879. 2940.83   4
 -12   4  -1 187161. 2803.12   4
  12  -8  -1 194642. 2717.67   1
  -4  12  -1 192707. 2532.22   2
   8 -12  -1 189161. 2444.98   3
   4   8   2 22663.4 1131.75   4
  -4  12   2 22144.8 1376.46   2
  12  -8   2 23088.6 1279.64   3
   8 -12   2 22056.8 1092.95   3
  12  -8   2 24147.0 928.481   2
  12  -8   2 20526.7 1081.12   1
 -12   4   2 22035.9 1089.17   1
 -12   4   2 21617.4 1192.06   2
  -8  -4   2 23347.6 1141.14   2
   4   8   2 21422.6 1037.74   3
  -8  -4   2 21543.2 1178.19   4
  -4  12   2 21873.7 1192.51   4
  -8  -4   2 21847.5 687.084   3
   4   8   2 21072.6 1124.76   2
 -12   4   2 22460.7 1230.07   4
   8 -12   2 25353.0 1332.44   1
  -4  12   2 23001.8 1084.64   3
  -8  -4   5 107711. 1277.54   3
 -12   4   5 106034. 2477.04   4
 -12   4   5 108499. 1140.15   3
   4   8   5 106376. 2247.14   4
  12  -8   5 106967. 2518.73   1
  -8  -4   5 105375. 2367.04   4
   8 -12   5 111488. 2968.72   1
   4   8   5 103860. 2631.32   3
 -12   4   5 111089. 2853.73   2
  -8  -4   5 104662. 2390.25   2
  -4  12   5 108547. 2338.90   3
   4   8   5 113443. 1486.02   1
  -4  12   8 1403.37 531.949   1
  -8  -4   8 1503.48 862.369   2
   4   8   8 1026.61 606.324   1
  -8  -4   8 1089.92 627.492   3
  12  -8   8 1691.04 1004.39   1
   4   8   8 284.852 1003.73   3
   8 -12   8 2324.26 1313.49   1
   4   8   8 1540.74 662.070   4
 -12   4   8 1608.85 829.155   4
  -8  -4   8 2163.87 831.235   4
 -12   4   8 1117.25 1013.90   2
  -4  12   8 1740.80 864.191   3
 -12   4   8 906.315 496.988   3
  -4  12   8 1793.57 587.558   1
   4   8  11 32234.2 2160.51   3
  12  -8  11 30272.5 2086.48   1
 -12   4  11 23799.2 2122.93   1
  -8  -4  11 28156.8 2541.67   1
   8 -12  11 29895.5 2516.11   1
  -8  -4  11 29860.7 1830.15   2
 -12   4  11 29729.7 2161.51   2
  -4  12  11 26167.6 1768.00   3
  -5  12  -8 9119.54 660.384   4
  -5  12  -5 144618. 1879.42   2
  -7  -5  -5 149631. 2444.44   4
  -5  12  -5 150939. 2428.70   4
   5   7  -5 146173. 2780.81   4
  -7  -5  -5 153773. 2581.88   1
 -12   5  -5 147855. 2056.03   4
  -5  12  -2 8004.25 792.397   4
   5   7  -2 6602.30 734.101   2
 -12   5  -2 6726.29 758.731   1
  -5  12  -2 7935.36 618.112   2
  12  -7  -2 6999.17 468.999   3
  -5  12  -2 7279.34 1041.43   1
 -12   5  -2 7102.59 554.461   2
   7 -12  -2 7593.82 685.175   3
  -5  12  -2 7185.06 886.549   3
 -12   5  -2 6438.31 718.298   4
  -7  -5  -2 7873.90 825.961   4
  -7  -5  -2 7014.37 556.511   1
  -7  -5  -2 7042.32 871.116   2
  12  -7  -2 6750.18 864.127   1
   5   7  -2 5829.99 542.890   3
   5   7  -2 6452.68 810.709   4
   7 -12  -2 8250.54 512.510   1
   7 -12   1 63783.4 1640.68   1
   7 -12   1 54797.6 1448.90   3
  12  -7   1 62740.0 1571.69   2
 -12   5   1 60378.1 1517.73   1
  12  -7   1 65633.5 1605.26   1
  -5  12   1 60639.3 1365.22   1
  -5  12   1 60482.2 1514.82   3
 -12   5   1 60494.1 1741.88   4
  -5  12   1 60335.6 1865.80   2
  12  -7   1 62388.2 1675.61   3
   5   7   1 62964.5 1733.10   4
  -7  -5   1 65506.3 1833.22   4
  -7  -5   1 64785.8 1314.11   3
  -7  -5   1 62023.0 1622.81   2
   5   7   1 62586.1 1627.52   2
   5   7   1 62984.8 1433.98   3
 -12   5   1 62660.2 1673.19   2
  -7  -5   1 59525.9 1701.50   1
 -12   5   4 30399.1 649.495   3
  -7  -5   4 29883.3 1281.29   2
   5   7   4 31864.5 1296.69   4
  12  -7   4 32280.0 1404.50   1
  -7  -5   4 32797.8 1370.32   4
   5   7   4 33763.6 921.799   1
  -5  12   4 31669.2 1262.43   3
   5   7   4 34659.0 1543.72   3
  -7  -5   4 32449.3 735.201   3
 -12   5   4 30911.8 1407.49   4
   7 -12   4 33235.6 1729.00   1
 -12   5   4 31505.7 1589.15   2
  -5  12   7 34036.1 1568.91   3
 -12   5   7 40320.3 1084.42   3
 -12   5   7 34859.1 1619.82   4
   5   7   7 35730.8 1176.78   1
   7 -12   7 33133.4 2095.61   1
  -7  -5   7 31209.9 1418.34   4
  -7  -5   7 33821.4 1184.50   3
   5   7   7 35907.7 1882.44   3
 -12   5   7 32158.4 1837.03   2
   5   7   7 29979.2 1290.47   4
  12  -7   7 32521.0 1731.56   1
  -7  -5   7 35077.9 1607.55   2
  -5  12   7 29433.5 1096.52   1
  -5  12   7 34020.8 985.958   1
  12  -7  10 7155.39 1346.55   1
  -7  -5  10 5700.51 1089.38   2
 -12   5  10 7092.67 1389.67   2
  -5  12  10 5605.48 843.046   4
 -12   5  10 6900.97 851.133   3
 -12   5  10 6265.06 1116.05   4
  -7  -5  10 4119.44 1657.07   1
   5   7  10 6458.15 914.932   1
  -7  -5  10 5297.37 1038.03   3
   5   7  10 4883.81 1236.48   3
  -5  12  10 5988.47 1161.44   3
  -7  -5  10 5341.09 910.165   4
   7 -12  10 4913.97 1562.13   1
  -6  -6  -6 21784.4 1233.97   1
 -12   6  -6 23939.1 807.725   4
  -6  12  -6 22270.3 966.028   4
   6 -12  -3 6005.17 721.369   3
   6   6  -3 7503.28 566.336   3
  -6  -6  -3 7656.30 983.705   2
  -6  -6  -3 7155.22 584.060   1
  -6  12  -3 8193.87 1061.17   3
  12  -6  -3 6874.04 874.653   4
  -6  -6  -3 6528.27 811.352   4
 -12   6  -3 6119.00 850.959   1
   6   6  -3 5898.11 777.451   4
  -6  12  -3 6533.94 701.503   4
   6   6  -3 5459.34 749.629   2
  -6  12  -3 7503.48 497.119   2
 -12   6  -3 6216.17 649.026   4
  -6  12  -3 7721.27 1154.08   1
 -12   6  -3 7006.77 484.883   2
  12  -6  -3 6291.76 432.538   3
   6   6   0 208592. 2780.36   2
  -6  -6   0 209082. 2647.54   1
  12  -6   0 212896. 2792.18   1
  12  -6   0 218027. 2586.47   3
  -6  12   0 209722. 2985.09   2
  12  -6   0 221294. 3174.25   4
 -12   6   0 217853. 3119.87   4
  -6  -6   0 189342. 2762.52   2
  -6  12   0 215122. 2869.46   1
   6   6   0 215122. 3118.49   4
 -12   6   0 213105. 2696.64   2
   6 -12   0 211027. 2593.25   3
  12  -6   0 218446. 3056.20   2
 -12   6   0 204616. 2631.36   1
  -6  12   0 218531. 2798.79   3
  -6  -6   0 217483. 2643.46   3
   6 -12   0 210431. 2426.95   1
  -6  -6   0 224712. 3194.91   4
   6   6   0 206553. 2234.73   3
  -6  -6   3 5217.74 798.666   4
   6 -12   3 4761.40 705.059   3
  12  -6   3 5237.58 788.500   1
  12  -6   3 5280.26 531.546   2
 -12   6   3 5606.20 464.791   3
 -12   6   3 5600.39 911.779   2
 -12   6   3 6061.94 863.049   4
   6   6   3 5857.14 594.997   1
   6   6   3 4604.87 666.512   4
   6 -12   3 4947.81 1035.97   1
   6   6   3 4728.22 842.460   3
  -6  -6   3 5270.81 725.883   2
 -12   6   3 4468.76 706.378   1
  -6  12   3 4964.43 376.020   1
   6   6   3 5243.88 724.731   2
  -6  -6   3 4920.82 420.030   3
  -6  12   3 5711.39 712.040   3
   6   6   6 23292.1 1560.52   3
  12  -6   6 22499.8 1304.89   1
  -6  -6   6 23104.0 933.758   3
   6 -12   6 23402.8 1767.21   1
 -12   6   6 23774.6 1331.39   4
  -6  12   6 23460.4 761.281   1
  -6  12   6 23877.3 1252.17   3
  -6  -6   6 25485.7 1294.57   2
   6 -12   6 20209.6 677.630   2
 -12   6   6 22568.0 1599.07   2
  12  -6   6 19149.6 576.938   2
 -12   6   6 24659.9 831.393   3
  -6  -6   6 22685.5 1201.12   4
  -6  12   6 20828.2 965.712   1
   6   6   6 24307.1 966.398   1
   6   6   6 22693.6 1105.79   4
 -12   6   9 789.974 1064.15   2
   6 -12   9 3069.12 1543.51   1
  -6  -6   9 513.827 746.793   4
  -6  -6   9 842.911 1478.51   1
  12  -6   9 352.906 952.290   1
  -6  12   9 1296.07 719.820   4
 -12   6   9 1801.23 948.235   4
   6   6   9 319.661 1035.17   3
  -6  12   9 727.366 842.088   3
   6 -12   9 676.254 317.561   2
   6   6   9 253.403 757.362   1
  -6  -6   9-101.457 776.023   2
  -6  12   9 646.329 824.983   1
 -12   6   9 1381.71 650.805   3
  -6  12  12 9531.21 1799.49   2
 -12   6  12 6079.19 1571.54   1
 -12   6  12 8516.76 1647.06   2
  12  -6  12 9332.52 1475.47   1
  -6  -6  12 5779.30 1122.41   2
  12  -6  12 8120.95 2007.64   3
  -6  -6  12 7723.00 1989.40   1
   6 -12  12 9951.09 2129.61   1
   6   6  12 9486.66 1661.84   3
  -6  12  12 8422.32 1227.80   3
 -12   7  -7 26389.2 595.657   4
  -7  12  -7 31465.2 1018.11   4
  -7  12  -4 31155.7 1171.21   4
  -7  12  -4 31000.7 700.211   2
   7   5  -4 31936.7 1405.96   4
 -12   7  -4 29927.0 1046.25   4
 -12   7  -4 27738.9 699.058   2
  -5  -7  -4 32472.4 997.196   1
  -5  -7  -4 30753.0 1267.03   4
  -5  -7  -1 53328.1 1644.38   2
  12  -5  -1 53088.9 1635.19   1
   5 -12  -1 55350.7 1012.44   1
  -7  12  -1 50623.6 1601.08   3
 -12   7  -1 50827.0 1489.14   1
  12  -5  -1 55874.2 1065.79   3
  -7  12  -1 52437.9 1734.54   1
   7   5  -1 56374.0 1713.32   4
 -12   7  -1 51733.4 1256.32   2
  12  -5  -1 54709.8 1801.71   2
  -5  -7  -1 57935.7 1767.43   4
 -12   7  -1 58481.8 1662.35   4
  12  -5  -1 55676.3 1722.59   4
  -5  -7  -1 54125.5 1222.31   1
  -5  -7  -1 55101.2 1572.45   3
   7   5  -1 56415.3 1575.00   2
  -7  12  -1 52233.4 1378.53   2
   5 -12  -1 53111.9 1409.90   3
   7   5  -1 54566.8 992.481   3
   5 -12   2 7811.63 751.505   3
   7   5   2 8836.07 839.006   4
  12  -5   2 8760.78 807.154   4
 -12   7   2 8541.05 637.355   3
  12  -5   2 8906.04 710.590   2
   7   5   2 7646.30 728.853   1
   5 -12   2 8815.36 1098.74   1
   7   5   2 8110.92 748.668   2
 -12   7   2 7864.45 988.501   2
   5 -12   2 8364.12 816.579   2
 -12   7   2 9603.04 977.941   4
 -12   7   2 7199.92 721.591   1
  -5  -7   2 8244.26 552.229   3
  12  -5   2 7842.75 787.622   1
  -7  12   2 9187.84 802.478   3
   7   5   2 9814.90 886.363   3
  -5  -7   2 7268.21 777.568   2
  -7  12   2 8997.63 595.355   1
  -5  -7   2 8886.58 920.072   4
 -12   7   5 155094. 1829.97   3
  -5  -7   5 149791. 1982.23   3
  12  -5   5 147346. 2795.17   1
  12  -5   5 143626. 1716.20   2
 -12   7   5 145311. 2928.98   4
 -12   7   5 150781. 3496.35   2
   5 -12   5 148048. 3681.03   1
  -7  12   5 147260. 1659.93   1
   7   5   5 149718. 2544.64   4
  -5  -7   5 145830. 2698.21   4
   7   5   5 153231. 2151.01   1
   5 -12   5 143696. 1868.76   2
  -5  -7   5 144847. 2590.10   2
   7   5   5 149349. 3275.45   3
  -7  12   5 147359. 2566.35   3
   5 -12   8 11614.2 1792.92   1
  -5  -7   8 10571.3 1061.89   2
  -7  12   8 11587.9 888.804   1
  12  -5   8 11715.2 1259.92   1
   7   5   8 12881.2 991.474   1
   7   5   8 13842.2 1492.57   3
 -12   7   8 12163.3 1189.48   4
   7   5   8 10579.2 822.713   4
  -7  12   8 11220.8 1092.08   4
  -5  -7   8 13293.8 1103.57   4
  12  -5   8 8310.19 534.587   2
  -5  -7   8 9987.11 1755.52   1
  -7  12   8 13856.8 1159.43   1
 -12   7   8 12740.0 1467.08   2
 -12   7   8 13230.8 875.502   3
   5 -12   8 9577.24 614.793   2
  -7  12   8 11302.9 1119.38   3
  -5  -7  11 31507.6 1903.83   3
  12  -5  11 31915.5 1944.04   1
 -12   7  11 29336.5 2341.08   1
  -5  -7  11 32122.9 1760.30   2
   5 -12  11 35182.2 2742.28   1
   7   5  11 35890.1 1697.51   1
  -7  12  11 29489.2 1814.17   3
   7   5  11 31302.2 2220.90   3
  -7  12  11 34305.6 2561.80   2
  -5  -7  11 33127.0 2850.12   1
 -12   7  11 31002.6 2264.68   2
  -8  12  -8 76.4588 279.617   4
  -8  12  -8 396.924 279.585   4
 -12   8  -5 98413.1 1676.77   4
  -4  -8  -5 98397.5 1766.79   1
  -8  12  -5 99135.0 1901.90   4
   4 -12  -2 21520.9 476.781   1
 -12   8  -2 21015.2 1129.46   1
   8   4  -2 21204.2 1173.42   4
 -12   8  -2 23233.0 1115.67   4
  12  -4  -2 21787.2 1222.08   4
   8   4  -2 22776.1 596.855   3
  -4  -8  -2 22668.0 1216.53   4
 -12   8  -2 23074.9 748.070   2
  -4  -8  -2 22294.7 1199.60   3
  -4  -8  -2 23291.9 682.306   1
   8   4  -2 20886.9 1126.17   2
  -8  12  -2 23490.0 1357.31   3
  12  -4  -2 21099.2 1317.44   2
  12  -4  -2 23507.1 504.634   3
  -8  12  -2 24413.1 851.934   2
  -8  12  -2 23493.4 1420.53   1
   4 -12  -2 23394.1 1073.86   3
  -4  -8  -2 22691.1 1335.46   2
  12  -4  -2 21583.2 1322.55   1
  -4  -8   1 217459. 3286.61   4
  -8  12   1 201662. 2671.42   3
  12  -4   1 204593. 2766.04   1
 -12   8   1 204254. 2571.89   3
   8   4   1 201452. 2594.62   3
  12  -4   1 215080. 3107.29   4
 -12   8   1 206452. 3190.34   4
 -12   8   1 200833. 2595.09   1
 -12   8   1 198452. 3039.55   2
   4 -12   1 202791. 3015.03   1
   8   4   1 207360. 3073.10   4
  12  -4   1 205717. 2759.00   2
   8   4   1 205124. 2838.78   1
   4 -12   1 197019. 2543.44   3
   4 -12   1 200069. 2992.68   2
   8   4   1 200673. 2757.83   2
  -4  -8   1 204205. 2861.52   2
  -4  -8   1 201330. 2267.41   3
  -8  12   1 202883. 2481.22   1
   4 -12   4 64653.7 1412.32   2
  12  -4   4 61074.3 1289.64   2
  -4  -8   4 60518.0 1284.05   3
  -4  -8   4 61512.1 1818.89   4
   8   4   4 61766.0 2095.71   3
   8   4   4 63082.0 1704.62   4
  12  -4   4 65418.1 1625.24   4
 -12   8   4 59046.3 2168.79   2
  12  -4   4 63361.3 1739.71   1
 -12   8   4 62570.5 1228.57   3
  -8  12   4 62850.6 1139.33   1
   4 -12   4 64652.1 2398.50   1
 -12   8   4 57438.0 1667.27   1
 -12   8   4 63125.5 1948.52   4
  -4  -8   4 61533.1 1667.47   2
   8   4   4 62499.5 1727.41   2
   8   4   4 63696.1 1430.27   1
  -8  12   4 62869.6 1607.71   3
   4 -12   7 74126.6 3104.07   1
  -4  -8   7 77436.9 3331.70   1
  -4  -8   7 68503.9 1853.34   3
  -4  -8   7 72202.1 2116.15   4
  12  -4   7 73759.3 2246.70   1
 -12   8   7 69778.6 2223.31   4
 -12   8   7 71325.5 2711.35   2
  -8  12   7 72865.0 2033.10   3
   8   4   7 75371.4 1863.68   1
  -4  -8   7 69772.9 1965.24   2
 -12   8   7 75428.8 1666.40   3
  12  -4   7 67017.2 1375.51   2
   8   4   7 70788.3 2612.23   3
  -8  12   7 68379.7 1633.57   1
   4 -12   7 65692.9 1404.68   2
   8   4   7 69527.1 1719.53   4
  -8  12  10 8797.12 1040.38   4
  12  -4  10 8663.37 1293.03   1
   8   4  10 8581.73 1048.53   1
 -12   8  10 7766.97 1156.31   4
  -4  -8  10 6887.55 1021.68   2
 -12   8  10 8907.96 931.151   3
 -12   8  10 10189.7 1491.38   2
  -8  12  10 8463.05 1588.45   2
  -8  12  10 6712.49 1163.00   1
   4 -12  10 8621.04 1897.22   1
   8   4  10 8402.75 1462.26   3
  -4  -8  10 7188.05 1871.40   1
  -8  12  10 10455.1 1165.12   3
 -12   9  -6 32463.7 945.787   4
  -9  12  -6 32611.0 1090.74   4
  -3  -9  -3 6750.43 391.365   1
 -12   9  -3 7427.77 360.685   2
  -9  12  -3 8906.75 1114.85   3
 -12   9  -3 7543.74 739.864   4
  12  -3  -3 6484.89 833.631   4
  -3  -9  -3 8801.13 896.934   4
  -9  12  -3 7590.44 407.543   2
   9   3  -3 8430.76 879.219   4
  -3  -9   0 40391.3 1504.83   2
  -9  12   0 39280.1 1386.39   3
 -12   9   0 40299.9 1483.18   4
   3 -12   0 44263.6 1364.60   1
  12  -3   0 43106.3 1470.82   2
 -12   9   0 41281.2 1386.58   2
   9   3   0 43171.2 1399.45   2
 -12   9   0 40672.6 1443.99   3
   3 -12   0 39663.2 1219.45   3
  12  -3   0 44566.3 1573.93   4
   9   3   0 41698.5 1506.68   4
  -3  -9   0 37767.0 1519.10   4
  12  -3   0 43605.0 1520.02   1
  -9  12   0 38273.1 1354.79   1
   9   3   0 43045.3 1099.10   3
  -3  -9   0 42004.4 1246.08   3
 -12   9   0 39292.7 1278.23   1
  -3  -9   3 910.467 579.406   2
  -9  12   3 745.745 537.147   3
  -3  -9   3 1213.20 444.417   3
  12  -3   3 659.173 433.879   2
 -12   9   3 817.817 460.538   3
   3 -12   3 950.309 551.681   3
 -12   9   3 782.874 712.445   4
  12  -3   3 1285.53 635.634   1
   3 -12   3 1088.07 594.872   2
  12  -3   3 1834.72 586.508   4
   9   3   3 936.812 539.550   4
   3 -12   3 798.030 951.869   1
   9   3   3 2282.47 812.005   3
  -3  -9   3 1509.45 743.846   4
   9   3   3 1592.32 599.590   1
 -12   9   3 380.692 821.209   2
  -9  12   3 1487.01 442.081   1
 -12   9   3 404.636 488.789   1
   9   3   3 1467.18 551.787   2
  12  -3   6 16147.1 895.436   4
   9   3   6 13891.3 930.613   1
   3 -12   6 15768.4 1666.94   1
 -12   9   6 15339.6 1203.03   4
  12  -3   6 13485.4 1095.52   1
  -3  -9   6 10800.2 869.142   3
  -3  -9   6 13393.5 943.962   2
  -3  -9   6 12900.4 1680.02   1
   9   3   6 14304.6 917.344   4
   3 -12   6 13931.5 785.327   2
   9   3   6 15012.8 1407.69   3
  -9  12   6 13859.3 1004.61   3
 -12   9   6 13964.2 1415.05   2
  -3  -9   6 13714.9 1050.41   4
  12  -3   6 13974.5 766.261   2
  -9  12   6 12728.2 790.423   1
 -12   9   6 14584.0 811.355   3
  -3  -9   9 1275.77 1587.45   1
  -9  12   9 2298.03 1079.93   1
 -12   9   9 1194.57 839.912   4
   9   3   9 1832.05 1191.50   3
  -9  12   9 802.710 817.915   4
  -9  12   9 409.128 1219.85   2
  -3  -9   9 783.306 708.077   4
  12  -3   9 1276.34 926.551   1
 -12   9   9 885.870 653.838   3
   9   3   9 1263.19 796.061   1
   3 -12   9 1021.80 1576.31   1
 -12   9   9 1215.41 1210.82   2
  -3  -9   9 1893.12 767.929   2
   3 -12   9 1762.84 560.990   2
  -9  12   9 1169.74 797.380   3
 -12   9  12 2129.87 1376.12   2
  -3  -9  12 2053.84 1914.22   1
  -9  12  12 5403.46 1154.73   3
  12  -3  12 5389.33 1328.70   1
  -9  12  12 4940.07 1704.55   2
  12  -3  12 2741.69 1622.16   3
   9   3  12 3764.99 1418.32   3
   3 -12  12 8454.45 2066.27   1
 -12   9  12 3204.59 1559.34   1
 -12  10  -7 5176.00 406.603   4
 -12  10  -7 5377.30 435.042   4
 -10  12  -7 5391.65 530.538   4
 -12  10  -4 12943.8 813.785   4
  12  -2  -1 56136.6 1117.99   3
  12  -2  -1 52575.6 1764.45   4
 -10  12  -1 51591.9 1674.91   1
 -12  10  -1 53050.6 1806.03   3
  10   2  -1 52926.6 1724.12   4
  -2 -10  -1 51466.5 1806.16   2
  -2 -10  -1 50217.4 1739.79   4
   2 -12  -1 51738.2 1458.45   3
   2 -12  -1 58047.1 1218.63   1
 -10  12  -1 53639.6 1749.94   3
  10   2  -1 53857.9 936.363   3
  10   2  -1 51464.1 1626.31   2
 -12  10  -1 55028.2 1676.52   4
  12  -2  -1 50627.8 1766.69   1
  12  -2  -1 52346.1 1720.56   2
 -12  10  -1 53157.1 1366.03   2
  -2 -10  -1 51557.8 1524.21   3
 -12  10  -1 50572.1 1572.22   1
   2 -12   2 63140.2 1881.25   4
 -10  12   2 61828.2 1533.78   3
  12  -2   2 65693.9 1588.97   2
   2 -12   2 62065.7 1658.17   2
 -12  10   2 61937.2 1460.19   3
 -10  12   2 63430.6 1395.40   1
  12  -2   2 57649.9 1592.49   1
   2 -12   2 57880.0 1477.61   3
  10   2   2 61376.0 1605.66   1
  10   2   2 62215.1 1759.83   4
  12  -2   2 62958.8 1751.38   4
  -2 -10   2 66369.3 1937.78   4
 -12  10   2 61105.0 1863.70   4
   2 -12   2 62792.9 2143.41   1
 -12  10   2 59045.2 1461.43   1
  10   2   2 60949.0 1581.94   2
  10   2   2 63252.3 1894.92   3
 -12  10   2 58470.3 1967.13   2
  -2 -10   2 61359.9 1656.50   2
  -2 -10   2 61836.5 1389.11   3
  12  -2   5 23920.0 1076.97   4
  10   2   5 25179.4 1625.26   3
 -10  12   5 20498.2 892.995   1
   2 -12   5 21892.7 1883.21   1
  10   2   5 22403.1 1096.68   4
 -12  10   5 23922.9 1361.86   4
 -12  10   5 20055.1 1073.11   1
  10   2   5 23612.2 1080.57   1
  12  -2   5 25177.5 1235.20   1
 -12  10   5 23275.8 948.518   3
  -2 -10   5 19881.9 976.975   3
   2 -12   5 22854.1 1164.28   4
  -2 -10   5 23224.5 1246.63   4
  -2 -10   5 20957.8 1890.64   1
  12  -2   5 22644.4 955.522   2
 -12  10   5 23051.2 1617.61   2
  10   2   5 20448.4 1077.24   2
   2 -12   5 22650.5 977.356   2
  -2 -10   5 21522.1 1077.06   2
 -10  12   5 22004.5 1071.14   3
 -12  10   8 7427.79 1360.20   2
  -2 -10   8 6845.08 874.664   2
  10   2   8 7942.77 971.824   1
  12  -2   8 8203.58 1064.45   1
 -10  12   8 6736.02 1009.45   4
 -12  10   8 7011.74 820.138   3
  10   2   8 9600.22 1465.67   3
 -12  10   8 5921.79 976.462   4
  -2 -10   8 9446.43 1858.35   1
 -10  12   8 8968.63 1515.22   2
   2 -12   8 6905.65 744.737   2
  12  -2   8 6747.81 763.885   2
  -2 -10   8 7019.38 914.180   4
   2 -12   8 6894.64 1752.36   1
 -10  12   8 7514.13 948.979   3
 -10  12  11 6515.51 1081.19   3
  -2 -10  11 5617.50 2052.08   1
 -10  12  11 7157.64 1627.48   2
 -12  10  11 6262.02 1559.10   2
   2 -12  11 6153.62 1942.48   1
  -2 -10  11 6422.42 993.773   2
  10   2  11 6104.54 1123.47   1
  10   2  11 4692.26 1451.05   3
  12  -2  11 8083.69 1755.99   3
 -12  10  11 6070.72 969.039   3
 -12  10  11 3889.03 1406.96   1
  12  -2  11 2948.57 1067.90   1
 -11  12  -8 4366.19 277.010   4
 -12  11  -5 35613.0 1183.74   4
  -1 -11  -2 89351.9 2533.52   2
 -11  12  -2 99707.6 2593.66   3
 -12  11  -2 95029.7 1514.35   2
  -1 -11  -2 87066.6 2112.45   3
  11   1  -2 94029.8 2345.93   4
  -1 -11  -2 98930.6 2414.88   4
 -12  11  -2 84654.5 2245.19   1
  -1 -11  -2 91207.5 1065.55   1
   1 -12  -2 85601.6 932.346   1
 -11  12  -2 89424.4 2363.47   1
  -1 -11   1 146467. 2616.31   2
  11   1   1 145958. 2461.38   2
   1 -12   1 142627. 2207.30   3
   1 -12   1 142367. 2649.20   2
  12  -1   1 145107. 2679.21   4
 -11  12   1 142262. 2374.51   3
 -12  11   1 145143. 2378.53   3
 -11  12   1 146307. 2237.02   1
 -12  11   1 142113. 2240.90   1
  11   1   1 155810. 2551.11   3
  11   1   1 149844. 2751.73   4
 -12  11   1 137733. 2731.19   2
  -1 -11   1 144665. 2165.27   3
  -1 -11   1 149724. 2873.17   4
  11   1   1 146544. 2579.83   1
  12  -1   1 149055. 2506.99   2
   1 -12   1 139166. 2768.75   1
   1 -12   1 151380. 2920.66   4
  12  -1   1 134117. 2451.05   1
  -1 -11   4 69395.0 1606.72   3
   1 -12   4 68463.5 1702.15   3
 -12  11   4 68276.4 1620.89   1
 -12  11   4 68295.6 2079.54   4
   1 -12   4 74951.3 1711.14   2
  -1 -11   4 64850.2 1661.48   2
  -1 -11   4 72965.2 2763.06   1
 -12  11   4 69915.5 2420.65   2
  12  -1   4 76455.9 1877.99   4
 -11  12   4 72323.1 1644.28   3
  11   1   4 70916.9 2324.44   3
  11   1   4 71900.5 1846.92   4
 -11  12   4 73760.1 1550.24   1
  11   1   4 73156.1 1754.50   1
  12  -1   4 74343.5 1672.14   2
   1 -12   4 68672.5 1935.65   4
  12  -1   4 75514.5 1838.60   1
  11   1   4 72594.1 1763.49   2
  -1 -11   4 67098.5 1940.53   4
   1 -12   4 77585.3 2758.17   1
 -12  11   4 70240.1 1539.61   3
  -1 -11   7 54574.4 1675.08   2
   1 -12   7 63341.0 3110.82   1
  11   1   7 53939.9 2509.50   3
  -1 -11   7 62680.2 3141.28   1
  11   1   7 57650.6 1839.36   1
  12  -1   7 58546.0 1943.44   1
  12  -1   7 61325.0 1539.16   4
  11   1   7 59957.9 1614.89   4
 -11  12   7 58896.1 1745.24   3
 -11  12   7 48701.4 1644.62   1
 -12  11   7 57083.9 2100.53   4
 -11  12   7 53216.8 2004.61   4
  -1 -11   7 58018.2 1830.27   4
 -11  12   7 57085.2 2620.01   2
 -12  11   7 55355.7 2526.71   2
  12  -1   7 49534.8 1543.29   2
   1 -12   7 52066.7 1507.34   2
 -12  11   7 57432.3 1628.06   3
 -12  11  10 33914.2 1791.50   4
 -11  12  10 29640.3 1670.98   4
  12  -1  10 32952.6 1812.24   1
 -12  11  10 28463.5 2084.52   1
   1 -12  10 31418.7 2776.62   1
 -11  12  10 29199.0 2007.97   1
 -11  12  10 34954.9 2473.04   2
 -12  11  10 31617.2 1525.51   3
 -12  11  10 26515.1 2221.29   2
 -11  12  10 33860.6 1656.76   3
   1 -12  10 28823.2 1327.50   2
  11   1  10 30496.5 1670.24   1
  11   1  10 34150.8 2472.31   3
  12  -1  10 31646.9 2459.28   3
  -1 -11  10 26226.5 1385.71   2
  -1 -11  10 33406.8 2722.18   1
 -12  12  -6 38457.1 1201.40   4
 -12  12  -6 37954.3 1227.84   4
 -12  12  -3-129.049 245.794   2
  12   0   0 2084.64 654.732   2
 -12  12   0 1650.46 733.646   2
  12   0   0 2204.29 831.534   1
 -12  12   0 2708.94 785.599   3
   0 -12   0 1497.82 824.569   2
 -12  12   0 1938.46 674.128   1
   0 -12   0 2699.64 785.177   1
   0 -12   0 1899.88 581.902   3
  12   0   0 2658.31 735.039   4
   0 -12   0 3657.89 888.414   4
  12   0   0 2193.70 580.202   3
 -12  12   3 428.240 547.249   3
 -12  12   3-398.007 481.657   1
   0 -12   3 516.280 975.431   1
   0 -12   3 271.870 588.660   2
   0 -12   3 260.921 483.528   3
  12   0   3-366.049 549.179   4
   0 -12   3 610.769 697.615   4
  12   0   3-141.573 567.753   1
  12   0   3 465.044 493.702   2
 -12  12   6 51652.7 2416.37   2
  12   0   6 44725.9 1501.27   2
 -12  12   6 52440.5 1560.45   3
 -12  12   6 49415.8 1907.98   4
  12   0   6 51242.1 1713.70   1
 -12  12   6 41431.3 1466.92   1
   0 -12   6 48983.4 1740.21   4
  12   0   6 54271.1 1607.87   4
   0 -12   6 48030.3 1488.07   2
  12   0   6 49526.2 2258.18   3
   0 -12   6 57531.7 2928.79   1
 -12  12   9-191.408 816.684   4
  12   0   9 1816.18 1288.12   3
  12   0   9 17.5953 836.848   1
 -12  12   9 311.089 1180.46   2
 -12  12   9-573.074 753.681   3
   0 -12   9-424.138 697.443   2
   0 -12   9 825.675 1589.00   1
 -12  12  12 1726.04 1512.63   2
   0 -12  12 2222.63 1986.65   1
  12   0  12 2703.47 1572.43   3
  12   0  12 2374.29 1093.03   1
 -13   0  -7 201.046 565.362   4
 -13   0  -4 256347. 3549.76   2
   0  13  -4 249245. 3840.54   3
  13 -13  -4 249508. 3222.93   3
 -13   0  -4 241756. 3299.96   4
   0  13  -4 250332. 3367.56   2
   0  13  -1 410.354 544.158   2
  13 -13  -1 172.271 465.642   3
   0  13  -1 240.090 578.154   3
  13 -13  -1 348.600 535.263   1
 -13   0  -1 9.98548 647.568   4
 -13   0  -1 166.671 549.801   2
 -13   0   2 167919. 2924.01   2
 -13   0   2 176465. 3252.02   4
   0  13   2 176796. 2737.98   3
 -13   0   5-653.627 793.067   2
 -13   0   5 1402.16 827.868   4
  13 -13   5 248.132 871.299   1
   0  13   5 1514.94 784.846   3
 -13   0   8 90175.8 2702.53   4
 -13   0   8 94264.5 3004.76   2
  13 -13   8 89140.8 3095.20   1
   0  13   8 88975.6 2801.67   3
  13 -13  11-363.904 1300.32   1
 -13   0  11-581.658 1288.73   1
 -13   0  11 1165.44 1184.97   2
   0  13  11-679.978 1113.80   3
 -13   1  -8 4868.49 494.657   4
 -12  -1  -5 7844.33 793.134   4
  -1  13  -5 7839.38 790.078   2
 -12  -1  -5 6844.80 986.030   2
  13 -12  -5 6926.62 796.904   3
 -13   1  -5 7284.71 730.893   4
 -13   1  -5 6970.72 925.104   2
  13 -12  -2 18317.0 863.747   3
   1  12  -2 18708.1 988.777   3
  -1  13  -2 19969.3 1077.28   3
  13 -12  -2 19055.5 1035.47   1
   1  12  -2 18939.5 1019.85   2
 -13   1  -2 16579.9 965.803   1
 -13   1  -2 18156.7 1081.98   4
 -12  -1  -2 19907.5 1055.37   2
  12 -13  -2 18768.0 948.857   1
 -12  -1  -2 19206.1 1107.70   4
 -12  -1  -2 18171.0 945.831   1
  12 -13  -2 17636.1 904.240   3
  -1  13  -2 17749.0 944.421   2
 -13   1  -2 19602.3 970.627   2
  -1  13   1 45520.0 1420.11   3
  13 -12   1 45507.2 1473.01   3
 -13   1   1 46789.4 1734.76   4
  12 -13   1 47764.4 1447.01   1
 -13   1   1 46647.8 1547.11   2
 -12  -1   1 47029.3 1527.32   2
 -12  -1   1 41224.1 1629.38   4
  13 -12   1 48258.0 1490.04   1
   1  12   1 47628.6 1420.56   3
  13 -12   4 2922.26 849.642   1
  12 -13   4 2550.14 917.035   1
 -13   1   4 2777.37 771.895   4
 -13   1   4 2350.24 840.497   2
 -12  -1   4 2905.52 783.400   4
 -12  -1   4 2983.59 787.458   2
  -1  13   4 2491.74 699.541   3
   1  12   4 2088.68 706.234   3
  13 -12   7 46738.8 2235.48   1
  -1  13   7 45395.1 1963.22   3
 -12  -1   7 45906.8 2025.73   2
 -13   1   7 44818.3 2084.05   2
   1  12   7 46885.2 2053.42   3
  12 -13   7 44535.2 2237.20   1
 -12  -1   7 43618.4 1846.91   4
 -13   1   7 45010.3 1935.82   4
 -13   1  10 10890.2 1430.27   2
  -1  13  10 10440.1 1398.44   3
  13 -12  10 8299.75 1484.29   1
 -12  -1  10 10871.0 1266.31   4
 -13   1  10 13014.2 1353.84   4
  12 -13  10 11148.7 1619.61   1
 -12  -1  10 10609.9 1430.95   2
   1  12  10 12224.8 1481.76   3
  -2  13  -6 6487.46 753.008   2
  -2  13  -6 5596.79 760.529   4
  13 -11  -6 7699.07 915.827   3
 -11  -2  -6 8012.47 778.793   4
 -13   2  -6 8547.58 699.877   4
 -11  -2  -3 24235.8 1203.36   2
  11 -13  -3 25917.6 1058.16   1
 -11  -2  -3 23711.9 1159.36   4
  -2  13  -3 24854.6 1254.50   4
 -11  -2  -3 23291.8 1079.10   1
  -2  13  -3 22883.8 1267.58   3
  13 -11  -3 24756.6 1255.18   1
 -13   2  -3 26405.1 1182.61   4
   2  11  -3 24367.8 1134.13   2
  -2  13  -3 25785.5 1049.38   2
  11 -13  -3 25367.6 1070.63   3
  13 -11  -3 25338.8 948.648   3
   2  11  -3 22822.1 1110.98   3
 -13   2  -3 24350.2 1025.18   2
 -13   2   0 3436.00 631.157   1
   2  11   0 2873.85 597.627   2
  11 -13   0 2668.56 619.694   3
   2  11   0 2616.88 576.881   3
  13 -11   0 4395.76 646.106   3
 -13   2   0 3707.68 785.505   4
   2  11   0 2599.99 662.650   4
  -2  13   0 3151.36 633.557   2
  11 -13   0 3366.24 625.451   1
 -11  -2   0 2993.32 634.899   1
  -2  13   0 3036.37 715.578   4
 -11  -2   0 5360.10 863.553   4
 -13   2   0 3953.92 687.161   2
  -2  13   0 3494.56 666.291   3
  13 -11   0 4260.64 733.091   1
 -11  -2   0 2748.25 671.093   2
 -13   2   3 53446.6 1836.09   2
  11 -13   3 61349.7 1979.19   1
 -11  -2   3 59269.3 1899.75   4
  -2  13   3 61246.6 1735.45   3
   2  11   3 58012.7 1702.35   3
 -11  -2   3 57785.5 1803.07   2
 -13   2   3 59345.3 1932.44   4
  13 -11   3 60947.1 1856.68   1
  13 -11   6 11643.0 1237.08   1
 -13   2   6 13999.8 1181.43   4
 -13   2   6 12693.3 1304.07   2
  11 -13   6 12996.0 1403.01   1
  -2  13   6 12850.1 1106.09   3
 -11  -2   6 13235.7 1126.38   4
   2  11   6 16371.4 1313.05   3
 -11  -2   6 14945.7 1243.11   2
 -11  -2   9 9955.49 1281.81   2
  11 -13   9 10950.1 1621.88   1
 -13   2   9 12035.9 1269.13   4
 -11  -2   9 11823.2 1215.37   4
 -13   2   9 11767.8 1445.68   2
  13 -11   9 11531.1 1449.37   1
  -2  13   9 11591.3 1375.00   3
   2  11   9 10558.7 1395.78   3
  11 -13  12 1274.44 1611.63   1
  13 -11  12 1826.77 1397.91   1
 -13   2  12 304.110 1423.60   1
 -11  -2  12-745.689 1629.08   1
 -13   2  12 503.714 1201.58   2
 -11  -2  12-371.882 1095.76   2
  -2  13  12 2843.92 1243.84   3
   2  11  12 762.699 1205.11   3
  -3  13  -7 540.261 633.195   2
  -3  13  -7 600.040 583.844   4
 -13   3  -7 302.040 403.233   4
 -10  -3  -7 273.889 553.321   4
 -10  -3  -4 128420. 2717.67   2
 -10  -3  -4 134153. 2411.13   1
 -13   3  -4 126997. 2163.24   2
 -10  -3  -4 128230. 2416.88   4
   3  10  -4 129016. 2443.15   3
  -3  13  -4 127217. 2857.10   3
 -13   3  -4 126976. 2252.96   4
   3  10  -4 125976. 2507.74   2
  -3  13  -4 121741. 2471.76   4
  -3  13  -4 129078. 2077.83   2
  13 -10  -4 130922. 2067.27   3
 -13   3  -1 2819.74 706.261   4
   3  10  -1 3437.89 568.884   3
  -3  13  -1 2731.69 575.168   2
  10 -13  -1 2694.11 568.650   3
  -3  13  -1 2650.88 688.964   3
  10 -13  -1 3258.77 538.372   1
  13 -10  -1 4036.55 723.811   1
 -13   3  -1 3308.01 619.152   1
 -13   3  -1 3245.89 581.253   2
 -10  -3  -1 2881.97 740.251   4
  -3  13  -1 2531.74 695.128   4
   3  10  -1 3748.64 727.923   4
  13 -10  -1 2814.12 528.318   3
 -10  -3  -1 2964.23 598.422   1
 -10  -3  -1 2357.28 627.070   2
   3  10  -1 2522.73 604.299   2
 -10  -3   2 276317. 3847.50   4
  13 -10   2 268765. 3720.37   3
 -13   3   2 270142. 3804.34   4
  10 -13   2 271390. 3546.98   1
 -10  -3   2 264166. 3424.41   2
  13 -10   2 261866. 3326.97   1
 -13   3   2 266346. 3643.92   2
   3  10   2 258713. 3626.23   4
   3  10   2 270964. 3252.56   3
  -3  13   2 252672. 3126.57   3
   3  10   5 3015.23 304.320   1
 -10  -3   5 4917.49 898.974   2
  10 -13   5 4122.05 1070.66   1
 -10  -3   5 5098.61 828.566   4
 -13   3   5 4971.57 981.532   2
 -13   3   5 4199.54 831.490   4
  -3  13   5 5897.90 870.237   3
   3  10   5 4232.02 753.812   4
   3  10   5 5042.81 876.799   3
  13 -10   5 3563.17 904.353   1
   3  10   8 88263.2 1536.34   1
 -10  -3   8 81645.0 2432.98   4
  13 -10   8 85875.6 2862.41   1
 -10  -3   8 83226.6 1694.67   3
 -13   3   8 92299.9 2687.26   4
 -10  -3   8 85653.4 2645.97   2
 -13   3   8 88745.7 2972.40   2
  10 -13   8 90404.8 3210.90   1
   3  10   8 84485.8 2828.99   3
  -3  13   8 89858.5 2649.91   3
  -3  13   8 74377.4 1152.77   1
 -13   3   8 92875.2 1450.56   3
  10 -13  11 6517.66 1616.86   1
  13 -10  11 3369.10 1385.10   1
 -13   3  11 2184.87 1360.87   1
 -13   3  11 5718.11 1440.43   2
 -10  -3  11 3218.41 1672.55   1
   3  10  11 5107.18 1278.23   3
  -3  13  11 4761.45 1231.35   3
 -10  -3  11 4125.82 1154.68   2
  -4  13  -8 9177.41 764.161   4
 -13   4  -5 17493.4 947.779   2
  -4  13  -5 16795.4 830.442   2
  13  -9  -5 19045.0 978.216   3
  -9  -4  -5 17790.4 1107.58   1
 -13   4  -5 18322.6 898.663   4
  -4  13  -5 18034.8 1014.13   4
  -9  -4  -5 18815.6 1020.21   4
  -4  13  -2 20882.7 902.816   2
  -4  13  -2 20279.0 1123.14   4
   9 -13  -2 19878.7 800.491   1
   9 -13  -2 18224.1 928.287   3
 -13   4  -2 20310.7 1090.05   1
 -13   4  -2 19912.6 1051.70   4
  -4  13  -2 18100.4 1091.14   3
  -9  -4  -2 21047.8 1147.40   4
  -9  -4  -2 21510.8 886.513   1
   4   9  -2 21098.6 890.533   3
 -13   4  -2 20975.6 881.858   2
  13  -9  -2 21002.6 1150.44   1
  -9  -4  -2 21884.6 1148.00   2
  13  -9  -2 21223.0 778.392   3
   4   9  -2 19366.8 1033.79   2
   4   9  -2 20095.4 1145.95   4
  -4  13   1 81619.4 1791.94   3
   9 -13   1 81302.8 1842.34   3
  13  -9   1 88960.9 1982.43   3
  -9  -4   1 86436.9 1588.08   3
  -4  13   1 78268.2 2062.48   4
 -13   4   1 74621.3 1797.65   1
  -9  -4   1 87123.0 2202.80   4
  13  -9   1 85689.6 1886.24   1
   4   9   1 84368.1 2098.58   4
   4   9   1 77060.8 1885.84   2
   9 -13   1 85087.3 1867.46   1
  -9  -4   1 82353.4 2015.75   1
  -9  -4   1 72987.5 1819.46   2
  -4  13   1 85354.7 2171.18   2
 -13   4   1 84718.6 2150.28   4
   4   9   1 83077.7 1708.86   3
 -13   4   1 74845.0 1855.56   2
  -9  -4   4 53506.2 1791.98   4
   9 -13   4 54665.3 2122.90   1
 -13   4   4 50712.7 1799.09   4
  13  -9   4 52886.3 1794.19   1
   4   9   4 48631.6 999.298   1
 -13   4   4 53375.4 1993.25   2
   4   9   4 52162.1 1705.28   4
  -9  -4   4 51454.5 1677.69   2
   4   9   4 50293.3 1758.85   3
  -4  13   4 53606.1 1630.83   3
 -13   4   7 6651.10 1206.12   2
  -9  -4   7 6061.39 545.401   3
  13  -9   7 6809.21 1155.45   1
  -4  13   7 3189.08 275.904   1
 -13   4   7 6835.54 1012.43   4
  -9  -4   7 5721.89 980.837   2
   4   9   7 5404.31 860.432   4
  -9  -4   7 3991.93 852.285   4
   4   9   7 5409.74 1150.85   3
   9 -13   7 3997.47 1297.42   1
   4   9   7 5929.08 562.854   1
  -4  13   7 6607.09 1011.03   3
 -13   4   7 6042.95 456.594   3
  -4  13   7 3832.67 333.870   1
   4   9  10 10081.7 1438.68   3
  13  -9  10 8387.63 1452.32   1
   9 -13  10 9647.93 1738.45   1
 -13   4  10 8539.01 1253.65   4
  -9  -4  10 7166.50 1821.04   1
 -13   4  10 10760.8 1568.99   2
  -4  13  10 7642.35 940.123   4
  -9  -4  10 8449.77 1203.53   2
  -9  -4  10 9430.33 1144.78   4
  -4  13  10 7252.51 1245.91   3
  -5  13  -6 21190.3 928.609   2
 -13   5  -6 24206.1 895.571   4
  -5  13  -6 19988.2 1030.51   4
  -8  -5  -6 22443.1 1102.89   4
  -8  -5  -6 20429.6 1275.59   1
   8 -13  -3 64017.4 1210.62   1
  -8  -5  -3 66194.7 1960.18   2
   5   8  -3 64190.3 1416.05   3
  -5  13  -3 64280.7 2039.17   3
  -8  -5  -3 68934.9 1500.97   1
  -8  -5  -3 65678.1 1800.27   4
   5   8  -3 66979.1 1952.44   4
  -5  13  -3 66898.6 1361.72   2
 -13   5  -3 63401.3 1629.02   4
   5   8  -3 64741.8 1806.83   2
  -5  13  -3 63064.9 1750.07   4
 -13   5  -3 65528.1 1317.15   2
  13  -8  -3 62938.3 1179.76   3
  -5  13   0 44796.7 1433.58   3
   5   8   0 42979.4 1412.39   2
 -13   5   0 43023.9 1550.51   4
  -5  13   0 45903.7 1534.65   2
  13  -8   0 37861.1 1347.98   1
  13  -8   0 45932.5 1294.60   3
   8 -13   0 45309.8 1251.47   1
  -5  13   0 43707.1 1519.66   1
  13  -8   0 48255.4 1627.69   2
  -5  13   0 44018.7 1599.79   4
  -8  -5   0 46311.2 1405.34   3
 -13   5   0 48505.0 1436.19   2
  -8  -5   0 46981.6 1533.43   2
  -8  -5   0 47505.9 1668.05   4
 -13   5   0 41780.7 1345.20   1
   8 -13   0 43253.2 1314.91   3
   5   8   0 48787.4 1634.39   4
   5   8   0 45795.0 1203.43   3
  -8  -5   0 45375.4 1379.21   1
 -13   5   3 47056.6 1807.04   2
  13  -8   3 47426.1 1128.54   2
  -8  -5   3 48263.7 1674.54   4
  13  -8   3 46959.4 1557.40   1
 -13   5   3 45376.7 1668.45   4
   5   8   3 47405.8 1603.60   3
   5   8   3 47565.4 1592.21   4
   8 -13   3 47928.4 1861.21   1
  -8  -5   3 47760.9 1562.09   2
   5   8   3 44129.2 1111.11   1
  -8  -5   3 47451.3 876.500   3
  -5  13   3 48460.3 1499.25   3
 -13   5   6 12298.3 543.268   3
  13  -8   6 10921.7 1128.07   1
  -8  -5   6 11906.1 607.623   3
 -13   5   6 12356.2 1106.18   4
   5   8   6 11122.1 922.999   4
   8 -13   6 11762.0 1381.17   1
 -13   5   6 12273.0 1292.83   2
  -8  -5   6 10088.9 1001.16   2
  -5  13   6 10265.3 998.569   3
   5   8   6 13828.2 1315.98   3
   5   8   6 11751.0 679.726   1
  -8  -5   6 11280.5 996.795   4
  13  -8   9 10531.8 1380.30   1
   5   8   9 11367.2 912.118   1
  -5  13   9 10432.2 859.710   1
 -13   5   9 11012.1 1244.44   4
  -8  -5   9 10803.9 1822.08   1
  -8  -5   9 10169.0 1016.67   3
 -13   5   9 12127.7 1534.88   2
  -8  -5   9 9561.49 1136.51   2
  -8  -5   9 11689.8 1136.74   4
   8 -13   9 11314.2 1784.51   1
   5   8   9 11372.6 1425.32   3
  -5  13   9 6801.15 1141.01   3
 -13   5   9 11026.1 796.084   3
  -8  -5  12 4068.52 1864.56   1
  13  -8  12 4902.90 1379.77   1
  -5  13  12 2709.69 1558.41   2
 -13   5  12 347.949 1441.34   1
   8 -13  12 1827.91 1697.60   1
 -13   5  12 4240.93 1436.64   2
  -5  13  12 4147.81 1229.91   3
  -8  -5  12 4919.27 1165.81   2
   5   8  12 4870.57 1434.74   3
 -13   6  -7 1499.59 320.914   4
  -6  13  -7 2309.72 556.865   4
  -7  -6  -4 91336.8 2525.89   2
  -6  13  -4 89631.3 2580.90   3
 -13   6  -4 86640.9 1790.64   4
  -6  13  -4 89578.4 2025.82   4
  -6  13  -4 90058.6 1398.72   2
  -7  -6  -4 93372.9 2127.46   4
 -13   6  -4 93991.7 1487.23   2
  13  -7  -4 89464.2 1451.29   3
  -7  -6  -4 97032.1 1789.66   1
   6   7  -1 56439.7 1154.21   3
  13  -7  -1 60278.7 1204.45   3
  -6  13  -1 57269.4 1664.81   3
 -13   6  -1 56127.4 1539.40   1
   6   7  -1 59452.0 1806.98   4
  -6  13  -1 57255.7 1485.42   2
   7 -13  -1 59467.7 1168.20   1
  13  -7  -1 58414.4 1845.84   4
  -6  13  -1 58711.3 1929.63   1
 -13   6  -1 56755.9 1682.59   4
  -7  -6  -1 58464.7 1347.18   1
  -7  -6  -1 57061.3 1749.39   4
  13  -7  -1 62408.3 1963.65   2
  13  -7  -1 49443.1 1582.56   1
   6   7  -1 55498.5 1582.26   2
  -6  13  -1 62079.0 1815.82   4
  -7  -6  -1 63897.3 1809.63   3
   7 -13  -1 57858.5 1487.70   3
  -7  -6  -1 57435.0 1721.86   2
 -13   6  -1 55981.5 1367.17   2
  -6  13   2 80480.5 1797.68   3
   6   7   2 78301.9 1920.05   2
  -7  -6   2 85067.2 2142.76   4
  -7  -6   2 83455.1 1944.98   2
   7 -13   2 74417.2 1810.13   3
  13  -7   2 90263.8 1773.85   2
 -13   6   2 77470.1 1391.30   3
  13  -7   2 86395.4 2257.33   3
  -7  -6   2 83784.3 1356.22   3
  -6  13   2 78517.3 1375.80   1
 -13   6   2 84792.5 2196.26   4
 -13   6   2 81940.1 2148.89   2
   6   7   2 83422.0 2050.56   4
 -13   6   2 76295.0 1834.95   1
   7 -13   2 86554.2 2189.27   1
  13  -7   2 78619.1 1880.74   1
   6   7   2 77295.8 1827.85   3
   6   7   5 26891.7 911.509   1
  -7  -6   5 25604.7 781.658   3
 -13   6   5 24898.4 1385.47   4
  13  -7   5 25661.8 1349.26   1
   6   7   5 26669.5 1546.04   3
 -13   6   5 25526.0 711.220   3
  13  -7   5 18381.7 572.612   2
 -13   6   5 24066.3 1528.28   2
  -6  13   5 19262.6 477.210   1
  -7  -6   5 24768.4 1285.32   4
   6   7   5 23680.7 1185.33   4
   7 -13   5 24544.9 1673.09   1
  -6  13   5 23166.5 1206.05   3
  -7  -6   5 26009.5 1302.49   2
  -6  13   8 18799.4 1344.12   3
  -6  13   8 17965.2 1008.33   1
  13  -7   8 21292.3 1538.92   1
 -13   6   8 20388.3 1710.70   2
   6   7   8 19705.7 1693.94   3
   6   7   8 20355.5 1091.55   1
  -7  -6   8 20365.4 1328.26   4
 -13   6   8 21973.9 1479.85   4
  -7  -6   8 20798.5 1376.71   2
   7 -13   8 21917.3 1970.20   1
 -13   6   8 21727.8 962.289   3
   7 -13  11 4900.53 1791.88   1
  -6  13  11 3553.05 1517.37   2
 -13   6  11 3458.83 1348.23   1
  13  -7  11 2561.79 1171.69   1
 -13   6  11 5579.30 1456.85   2
  -7  -6  11 2986.65 1683.17   1
  -7  -6  11 4044.68 1062.53   2
   6   7  11 4615.23 1286.94   3
  -6  13  11 4126.48 1125.25   3
  -7  13  -8 14028.3 742.138   4
  -7  13  -5 25930.8 1123.19   4
  -6  -7  -5 28897.4 1285.25   4
  -6  -7  -5 28651.0 1125.11   1
 -13   7  -5 26383.8 1005.25   4
 -13   7  -2 84176.3 2004.88   1
  -7  13  -2 93196.1 2319.68   3
  -6  -7  -2 93152.3 2231.11   4
   6 -13  -2 83947.3 1848.62   3
   7   6  -2 91856.6 2244.82   4
  13  -6  -2 86320.3 2412.60   2
  -7  13  -2 89274.6 2093.69   4
  13  -6  -2 94986.5 1196.88   3
  -7  13  -2 93053.5 2580.10   1
   7   6  -2 90943.9 2104.05   2
 -13   7  -2 90588.3 1467.53   2
  -6  -7  -2 95806.7 1495.72   1
  -6  -7  -2 94863.0 2330.24   3
   6 -13  -2 93212.5 1172.70   1
 -13   7  -2 95770.1 2056.81   4
  13  -6  -2 89719.4 2242.19   1
   7   6  -2 92799.1 1334.96   3
  -6  -7  -2 88432.8 2216.91   2
  -7  13  -2 94654.3 1632.51   2
  13  -6  -2 90475.1 2303.47   4
  13  -6   1 54339.8 1571.53   1
 -13   7   1 51934.7 1458.48   1
  13  -6   1 58773.6 1747.82   4
  13  -6   1 57075.1 1690.58   3
 -13   7   1 56919.2 1694.51   2
   7   6   1 56578.4 1435.09   3
 -13   7   1 61553.8 1875.82   4
  13  -6   1 58660.8 1613.06   2
   6 -13   1 54637.7 1469.00   3
   7   6   1 55162.1 1707.33   4
  -7  13   1 55857.7 1454.87   1
  -6  -7   1 58915.1 1813.24   4
  -7  13   1 56885.8 1537.30   3
   6 -13   1 59891.9 1710.27   1
   7   6   1 53842.1 1561.03   2
  -6  -7   1 56279.5 1320.55   3
  -6  -7   1 54835.4 1620.20   2
  -6  -7   4 89987.9 1382.86   3
  -7  13   4 90905.4 1991.23   3
 -13   7   4 86319.3 2322.43   4
   6 -13   4 86814.3 1615.15   2
  -7  13   4 84589.6 1117.89   1
 -13   7   4 88041.5 2531.79   2
  13  -6   4 87755.8 1472.46   2
 -13   7   4 91024.5 1324.12   3
   6 -13   4 90287.8 2720.60   1
  -6  -7   4 87802.6 2200.08   4
  13  -6   4 88532.8 2117.01   1
   7   6   4 90229.1 1640.21   1
  -6  -7   4 88307.4 2055.43   2
   7   6   4 89867.9 2439.92   3
   7   6   4 88554.1 2090.08   4
   6 -13   7 2907.90 441.475   2
  -6  -7   7 4183.28 680.022   3
   7   6   7 6313.77 1175.20   3
   7   6   7 5692.08 746.897   1
 -13   7   7 4451.93 902.295   4
  13  -6   7 4403.97 978.076   1
   7   6   7 3887.58 744.599   4
  -7  13   7 4722.32 761.048   1
  13  -6   7 3748.87 362.612   2
  -6  -7   7 4815.25 834.708   4
 -13   7   7 4549.24 1151.47   2
  -6  -7   7 3305.04 802.340   2
  -7  13   7 4270.99 525.878   1
   6 -13   7 2919.82 1346.14   1
  -7  13   7 5051.55 884.394   3
 -13   7   7 4568.85 580.789   3
  -7  13  10 21918.7 1547.58   3
  -7  13  10 19811.4 1341.88   4
   7   6  10 24579.3 1375.75   1
  13  -6  10 18275.0 1538.00   1
 -13   7  10 21119.1 1934.46   2
 -13   7  10 24886.5 1679.85   4
  -6  -7  10 22840.2 2391.53   1
  -6  -7  10 21493.9 1427.94   2
   7   6  10 22098.5 1891.71   3
  -6  -7  10 21517.1 1319.57   4
   6 -13  10 22964.8 2325.35   1
 -13   7  10 22464.2 1162.18   3
  -8  13  -6 11620.0 822.922   4
  -5  -8  -6 10337.2 907.863   1
 -13   8  -6 11360.2 674.686   4
   8   5  -3 46534.5 955.939   3
  -5  -8  -3 43305.3 1840.50   2
  -8  13  -3 45064.6 1854.37   3
  -5  -8  -3 50012.5 1046.68   1
  -8  13  -3 45376.3 1503.48   4
 -13   8  -3 46768.2 1443.71   4
  -5  -8  -3 43855.7 1566.45   4
 -13   8  -3 46538.7 897.640   2
  13  -5  -3 39597.8 669.976   3
  -8  13  -3 49274.3 1015.11   2
   5 -13   0 49746.9 1398.41   3
  -5  -8   0 50076.9 1451.52   1
  13  -5   0 53842.4 1440.40   3
   8   5   0 48662.0 1653.78   4
 -13   8   0 46593.3 1397.75   1
  13  -5   0 49882.4 1669.01   4
  -8  13   0 48904.2 1526.80   3
 -13   8   0 46459.2 1629.40   4
  13  -5   0 50422.9 1647.63   2
  13  -5   0 47251.4 1567.74   1
  -5  -8   0 55445.0 1829.09   4
  -8  13   0 50172.6 1604.26   1
   5 -13   0 49993.2 1372.18   1
  -5  -8   0 50977.2 1434.04   3
   8   5   0 50030.6 1506.05   2
 -13   8   0 46160.9 1420.44   2
   8   5   0 51285.0 1186.83   3
  -5  -8   0 49426.2 1613.63   2
   5 -13   3 70047.1 2327.14   1
   8   5   3 68473.8 2019.05   3
  -8  13   3 67117.2 1186.61   1
 -13   8   3 66002.5 1289.89   3
   5 -13   3 68768.0 1638.15   2
 -13   8   3 69094.0 2248.30   2
   8   5   3 71606.4 1590.56   1
 -13   8   3 64386.0 1689.15   1
   8   5   3 71132.8 1901.90   4
  13  -5   3 70167.3 1507.74   2
  13  -5   3 67674.3 1779.63   1
  -8  13   3 68243.7 1655.08   3
  13  -5   3 72499.4 1823.12   4
 -13   8   3 72850.2 2090.14   4
  -5  -8   3 66464.0 1757.11   2
   8   5   3 66562.7 1781.27   2
  -5  -8   3 68003.5 1949.48   4
  -5  -8   3 68278.9 1293.44   3
 -13   8   6 28218.3 1837.14   2
  -5  -8   6 23922.4 999.086   3
   8   5   6 24621.8 1208.14   4
  13  -5   6 21830.0 793.389   2
 -13   8   6 25733.6 1473.77   4
  13  -5   6 26387.6 1435.79   1
   5 -13   6 25889.5 2010.01   1
  -5  -8   6 25112.2 1348.21   4
 -13   8   6 24988.8 907.384   3
  -8  13   6 24431.5 834.756   1
  -5  -8   6 24314.0 1269.05   2
   8   5   6 26600.1 1717.18   3
  -8  13   6 23244.7 1200.41   3
   8   5   6 25770.7 1094.24   1
   5 -13   6 21809.0 873.201   2
  -8  13   9 10454.3 1117.38   4
  13  -5   9 10726.9 1257.56   1
  -5  -8   9 10916.2 1989.11   1
   8   5   9 10629.0 1013.77   1
 -13   8   9 9884.29 1486.65   2
  -8  13   9 8921.91 1087.90   1
 -13   8   9 9632.79 855.637   3
   8   5   9 9160.03 1360.08   3
  -8  13   9 11458.8 1176.63   3
 -13   8   9 9569.90 1225.32   4
   5 -13   9 10550.9 1820.14   1
  -5  -8   9 9107.54 1080.02   2
  -5  -8   9 10554.4 1093.33   4
   5 -13   9 6826.22 601.513   2
  13  -5  12 5195.69 1880.17   3
   5 -13  12 6244.87 1974.74   1
  -8  13  12 4842.99 1672.54   2
  13  -5  12 4629.21 1314.46   1
  -5  -8  12 3072.10 1789.08   1
 -13   8  12 5518.65 1500.19   2
   8   5  12 4832.27 1501.68   3
 -13   8  12 1453.78 1407.28   1
  -8  13  12 5272.08 1192.87   3
  -9  13  -7 6210.28 621.263   4
 -13   9  -7 6696.24 469.709   4
  -9  13  -4 52615.7 1566.34   4
  -4  -9  -4 44867.1 986.670   1
 -13   9  -4 48807.6 1418.48   4
  -9  13  -4 43334.3 682.512   2
  -4  -9  -4 51624.9 1709.74   4
  13  -4  -1 89977.3 2277.38   4
  -4  -9  -1 82609.4 2142.95   2
 -13   9  -1 86874.6 1685.26   2
  -9  13  -1 90346.1 2212.03   3
 -13   9  -1 80321.5 1907.29   1
  13  -4  -1 90294.0 2284.57   2
  13  -4  -1 89805.2 2200.20   1
  -9  13  -1 87078.6 2214.21   1
   9   4  -1 88584.7 2204.27   4
 -13   9  -1 90759.3 2117.59   4
   9   4  -1 85759.9 2044.37   2
  -4  -9  -1 93675.2 2306.42   4
   9   4  -1 88632.1 1246.98   3
  13  -4  -1 94405.0 1418.58   3
  -4  -9  -1 88534.3 1527.23   1
  -4  -9  -1 85354.6 1974.34   3
   4 -13  -1 86028.5 1370.51   1
   4 -13  -1 86700.9 1838.20   3
  -9  13   2 16927.3 802.822   1
   4 -13   2 16038.8 928.255   3
   9   4   2 19074.4 1014.09   1
 -13   9   2 17973.9 877.834   3
   4 -13   2 18011.3 1119.13   2
   4 -13   2 16886.8 1324.42   1
 -13   9   2 17345.6 1185.78   4
  -4  -9   2 17034.1 792.252   3
  13  -4   2 17558.4 1046.45   4
  13  -4   2 17485.9 920.395   2
 -13   9   2 19221.6 1312.60   2
   9   4   2 17189.7 961.840   2
  -4  -9   2 19595.6 1227.43   4
   9   4   2 17094.3 1102.27   3
 -13   9   2 16977.6 936.479   1
  -9  13   2 16843.7 980.123   3
   9   4   2 17309.4 1067.29   4
  -4  -9   2 16792.9 1013.52   2
  13  -4   2 17083.3 1029.42   1
   4 -13   5 17326.3 873.148   2
  13  -4   5 20095.1 1044.09   4
  -4  -9   5 20503.7 1208.68   4
 -13   9   5 19601.8 1288.29   4
 -13   9   5 19633.6 1523.89   2
  13  -4   5 17767.5 1152.37   1
   9   4   5 17761.1 1056.98   4
  -4  -9   5 17387.5 853.321   3
   4 -13   5 19693.9 1703.72   1
 -13   9   5 19313.1 826.105   3
  13  -4   5 16258.9 782.470   2
  -4  -9   5 18699.2 1083.97   2
  -9  13   5 17443.4 734.945   1
   9   4   5 18784.3 963.731   1
   9   4   5 17241.5 1380.53   3
  -9  13   5 17164.5 1030.83   3
  -4  -9   8 10742.2 1968.19   1
  13  -4   8 14470.0 1321.28   1
  -4  -9   8 10208.2 1012.22   4
   9   4   8 9911.98 988.453   1
   9   4   8 13833.5 1521.41   3
   4 -13   8 12569.8 1850.99   1
 -13   9   8 11538.6 1222.86   4
  -9  13   8 9424.99 1144.46   1
  -4  -9   8 11852.1 1061.63   2
 -13   9   8 13969.3 1666.49   2
  -9  13   8 10900.6 1076.82   3
  -9  13   8 10518.3 1100.54   4
   4 -13   8 9918.95 754.579   2
 -13   9   8 12063.5 890.057   3
   9   4  11 3573.70 1400.94   3
  -4  -9  11 2299.55 1821.85   1
  -9  13  11 3912.47 1578.14   2
 -13   9  11 2526.01 1337.48   1
 -13   9  11 3791.20 1328.14   2
  13  -4  11 5149.09 1707.28   3
   9   4  11 4762.75 1044.03   1
  13  -4  11 3935.00 1154.37   1
  -4  -9  11 4722.98 997.597   2
   4 -13  11 3497.87 1867.85   1
  -9  13  11 2748.35 1009.91   3
 -10  13  -8 65712.6 1185.25   4
 -13  10  -5 4638.56 595.369   4
 -10  13  -5 4778.24 674.651   4
  10   3  -2 257403. 1628.08   3
  -3 -10  -2 270415. 2078.19   1
 -10  13  -2 265609. 2688.35   2
  -3 -10  -2 265328. 4124.57   2
  13  -3  -2 253663. 1426.92   3
 -10  13  -2 269497. 4102.12   3
 -13  10  -2 263243. 2417.85   2
 -10  13  -2 256940. 4031.99   1
  -3 -10  -2 270409. 3794.46   4
 -13  10  -2 262553. 3400.66   4
  -3 -10  -2 245652. 3551.37   3
  13  -3   1 4309.42 746.165   4
  13  -3   1 4434.99 714.580   2
  10   3   1 4256.58 675.431   2
 -10  13   1 3656.27 715.941   3
  -3 -10   1 4143.22 764.903   2
 -13  10   1 4255.58 735.124   3
 -10  13   1 3395.77 649.430   1
   3 -13   1 3536.77 619.133   3
  10   3   1 4464.09 804.551   1
 -13  10   1 4270.43 802.483   2
  10   3   1 4388.66 757.244   4
   3 -13   1 3562.02 882.213   1
 -13  10   1 5017.00 695.084   1
 -13  10   1 3986.41 813.579   4
  -3 -10   1 5936.41 955.257   4
   3 -13   1 4025.78 898.512   2
  10   3   1 4724.62 699.430   3
  -3 -10   1 3910.88 588.986   3
  13  -3   1 3682.09 786.219   1
 -10  13   4 133280. 2290.11   3
   3 -13   4 132859. 2223.65   2
  -3 -10   4 129302. 2007.60   3
  10   3   4 135225. 2265.74   1
  13  -3   4 131540. 2470.19   1
  -3 -10   4 137191. 2777.36   4
 -13  10   4 126716. 2318.20   1
 -13  10   4 130231. 2851.37   4
 -13  10   4 132123. 3227.00   2
  13  -3   4 140345. 2543.45   4
   3 -13   4 137383. 3449.87   1
 -10  13   4 129949. 1835.07   1
  13  -3   4 132185. 2127.39   2
 -13  10   4 133160. 1967.09   3
  10   3   4 136227. 3093.56   3
  10   3   4 130266. 2453.91   2
  -3 -10   4 131759. 2390.76   2
  10   3   4 134333. 2579.05   4
 -13  10   7 264.403 1099.32   2
 -10  13   7 301.728 713.166   3
  13  -3   7-355.882 773.222   1
   3 -13   7 2034.86 1522.76   1
 -13  10   7 793.297 572.605   3
 -10  13   7-413.583 765.609   4
  -3 -10   7 1369.28 728.671   2
  -3 -10   7-267.743 1434.38   1
  10   3   7 1104.33 718.052   1
 -10  13   7 367.560 545.566   1
  10   3   7 290.109 597.179   4
   3 -13   7-81.9516 551.661   2
 -13  10   7 797.131 763.318   4
  -3 -10   7 232.276 717.332   4
  10   3   7 1524.19 1070.88   3
  13  -3   7 1571.46 567.514   2
  10   3  10 76577.4 3226.03   3
  13  -3  10 78731.8 2706.55   1
 -10  13  10 70357.4 2391.27   4
 -13  10  10 78845.6 3381.95   2
  10   3  10 75301.9 2374.02   1
 -13  10  10 76232.7 2633.69   4
   3 -13  10 81510.1 3921.26   1
  -3 -10  10 67995.3 2171.32   2
 -10  13  10 75808.9 3472.02   2
  13  -3  10 84531.5 3716.14   3
  -3 -10  10 76436.4 3873.05   1
 -10  13  10 73570.4 2667.58   1
 -10  13  10 73618.3 2360.49   3
 -13  10  10 80045.7 2156.79   3
 -13  11  -6 11635.4 746.127   4
 -11  13  -6 11007.6 787.116   4
 -13  11  -3 54810.9 1612.69   4
 -11  13  -3 55996.4 992.590   2
 -11  13  -3 55970.1 2161.91   3
  -2 -11  -3 56126.1 1885.48   4
 -13  11  -3 52547.5 860.235   2
 -13  11   0 3296.09 812.601   4
  13  -2   0 4481.27 893.264   1
 -11  13   0 3528.31 817.771   3
  11   2   0 3312.43 860.284   1
 -11  13   0 2245.18 697.701   1
 -13  11   0 4554.47 761.769   1
 -13  11   0 2608.21 699.517   2
  -2 -11   0 3014.03 833.194   2
 -13  11   0 3736.47 826.396   3
   2 -13   0 3160.85 964.197   2
  -2 -11   0 2661.88 601.581   3
  11   2   0 2564.25 701.780   4
  13  -2   0 3459.37 752.811   4
  13  -2   0 3264.69 716.426   2
  -2 -11   0 3747.85 856.988   4
  11   2   0 2733.30 654.111   2
  11   2   0 3191.57 569.204   3
   2 -13   0 3363.63 721.118   1
   2 -13   0 3709.67 638.709   3
  -2 -11   3 22554.7 941.011   3
 -13  11   3 23734.6 1342.99   4
   2 -13   3 23907.4 1160.32   2
   2 -13   3 21377.7 1038.48   3
 -11  13   3 23594.4 926.181   1
  11   2   3 23937.3 1106.47   1
  13  -2   3 26055.5 1241.91   4
 -13  11   3 24330.3 1482.01   2
 -11  13   3 25744.9 1094.36   3
  13  -2   3 24158.0 1045.64   2
  11   2   3 23693.4 1196.46   4
 -13  11   3 23542.6 986.081   3
  -2 -11   3 23064.4 1290.08   4
   2 -13   3 25708.6 1356.99   4
  11   2   3 23668.1 1124.83   2
   2 -13   3 26748.2 1740.13   1
 -13  11   3 22620.1 1029.59   1
  11   2   3 23295.3 1375.62   3
  -2 -11   3 25127.8 1151.07   2
  13  -2   3 23044.7 1141.51   1
 -13  11   6 8844.13 779.704   3
 -11  13   6 6070.33 680.704   1
  13  -2   6 8931.38 844.988   4
  11   2   6 9206.30 1314.58   3
  11   2   6 9986.67 899.356   1
 -13  11   6 9428.23 1061.93   4
 -13  11   6 7200.93 1281.22   2
  13  -2   6 6595.95 896.995   1
   2 -13   6 10525.9 1626.19   1
  -2 -11   6 8175.96 939.215   4
  13  -2   6 5812.23 664.945   2
  11   2   6 8019.74 834.529   4
 -11  13   6 9466.59 1094.08   4
  -2 -11   6 7835.62 841.602   2
  -2 -11   6 8577.67 1690.59   1
 -11  13   6 9141.64 888.633   3
   2 -13   6 7725.81 728.422   2
 -13  11   9 23978.1 1255.86   3
 -11  13   9 23290.2 1404.07   3
 -11  13   9 22792.3 1704.33   1
 -11  13   9 24379.7 2162.40   2
 -11  13   9 23078.8 1538.53   4
 -13  11   9 27147.0 2142.63   2
 -13  11   9 24868.2 1605.72   4
   2 -13   9 24802.9 2500.24   1
  -2 -11   9 21617.4 1308.81   4
  -2 -11   9 26018.1 2564.21   1
  13  -2   9 24206.3 1562.20   1
  11   2   9 22811.7 1398.32   1
  13  -2   9 26848.9 2235.62   3
  11   2   9 21793.4 1900.51   3
  -2 -11   9 21193.6 1288.58   2
   2 -13   9 20321.4 1106.22   2
 -11  13  12-927.423 1526.14   2
 -13  11  12 785.820 1423.05   2
 -11  13  12 603.657 935.759   3
  13  -2  12-812.268 1721.17   3
  13  -2  12 1126.19 1112.05   1
  -2 -11  12 614.504 1773.82   1
  11   2  12-37.6190 1452.48   3
   2 -13  12 1261.29 1922.65   1
 -12  13  -7 48101.4 1276.88   4
 -13  12  -7 49447.9 1233.28   4
 -13  12  -7 50168.6 1223.97   4
 -12  13  -7 47873.4 1272.02   4
 -13  12  -4 3068.33 642.616   4
   1 -13  -1 50300.9 1303.61   1
  -1 -12  -1 53057.9 1995.15   2
 -12  13  -1 47785.1 1803.69   3
  13  -1  -1 49837.5 1864.15   1
  -1 -12  -1 47203.1 1532.94   3
   1 -13  -1 47735.3 1966.52   2
 -13  12  -1 50819.5 1871.72   3
 -13  12  -1 49155.5 1432.20   2
  -1 -12  -1 53410.6 1906.67   4
  13  -1  -1 54038.5 1147.49   3
  12   1  -1 53645.3 1017.96   3
 -12  13  -1 47015.3 1711.16   1
 -13  12  -1 46918.4 1647.81   1
   1 -13   2 17920.2 940.390   3
  -1 -12   2 18702.6 1097.04   2
 -12  13   2 16788.2 963.455   3
 -13  12   2 17103.1 1204.31   4
 -13  12   2 16654.4 1305.20   2
   1 -13   2 17666.3 1116.27   2
  -1 -12   2 18469.5 1226.37   4
  13  -1   2 17257.3 994.818   2
  13  -1   2 17838.4 1112.46   4
   1 -13   2 18596.3 1257.52   4
 -13  12   2 16624.0 943.651   3
  13  -1   2 17614.0 1090.99   1
 -12  13   2 17921.3 897.669   1
 -13  12   2 17791.8 933.667   1
  12   1   2 18535.8 1114.59   4
  -1 -12   2 15178.9 848.045   3
  12   1   2 16254.0 1052.13   1
  12   1   2 16387.4 1006.30   2
  12   1   2 19674.8 1205.75   3
   1 -13   2 17909.2 1389.31   1
 -12  13   5 10637.3 853.416   3
 -12  13   5 8529.66 708.994   1
 -13  12   5 10076.8 777.795   3
 -13  12   5 8320.58 792.165   1
  13  -1   5 8892.11 769.979   2
 -13  12   5 8717.52 1288.71   2
 -13  12   5 10722.5 1105.03   4
 -12  13   5 9526.84 1061.00   4
  -1 -12   5 9143.72 1554.50   1
  12   1   5 11282.8 1345.38   3
  -1 -12   5 8912.47 946.393   4
  13  -1   5 9679.71 911.303   1
  12   1   5 9092.56 885.996   4
  12   1   5 8888.83 825.430   2
   1 -13   5 11005.9 1018.84   4
  13  -1   5 9856.17 877.313   4
  12   1   5 9313.85 889.195   1
  -1 -12   5 9595.13 851.846   2
   1 -13   5 9691.32 826.227   2
  -1 -12   8 4675.77 917.038   4
 -13  12   8 5427.20 1049.72   4
 -12  13   8 5156.44 976.712   4
 -12  13   8 4630.02 1305.35   2
  13  -1   8 6197.16 1463.58   3
 -13  12   8 5043.96 1392.70   2
  -1 -12   8 3560.12 1714.80   1
  13  -1   8 5605.09 993.837   1
   1 -13   8 6348.91 1648.89   1
 -12  13   8 4311.45 835.248   3
  12   1   8 4584.33 1376.77   3
  -1 -12   8 4821.40 807.324   2
 -13  12   8 4542.71 784.862   3
  12   1   8 5311.10 964.108   1
   1 -13   8 3691.72 730.013   2
  12   1  11 7778.89 1216.27   1
  13  -1  11 7096.55 1218.67   1
  -1 -12  11 12643.8 2214.98   1
 -13  12  11 6494.97 1554.89   1
 -13  12  11 10520.1 1760.84   2
 -12  13  11 10298.4 1795.62   2
  12   1  11 11033.2 1752.65   3
   1 -13  11 8778.94 2098.68   1
  13  -1  11 9193.69 1862.09   3
 -13  12  11 7722.94 1064.03   3
 -12  13  11 8891.05 1149.50   3
 -13  13  -8 65408.8 1155.27   4
 -13  13  -5 245.039 553.149   4
 -13  13  -2 169887. 3483.68   3
 -13  13  -2 173819. 2253.08   2
   0 -13   1 200.145 504.527   3
  13   0   1 499.764 600.091   2
 -13  13   1-619.971 627.651   3
 -13  13   1-360.280 720.132   2
   0 -13   1-350.052 759.893   2
   0 -13   1-266.037 826.687   1
 -13  13   1-979.427 574.723   1
  13   0   1 376.217 725.872   1
   0 -13   1-175.299 789.260   4
  13   0   1 542.927 624.297   3
 -13  13   4 264101. 3146.22   3
 -13  13   4 262069. 4115.73   4
  13   0   4 256164. 3350.24   2
  13   0   4 261271. 3669.48   4
   0 -13   4 264293. 3919.67   4
 -13  13   4 272657. 4756.57   2
 -13  13   4 250998. 3047.77   1
   0 -13   4 262154. 3396.59   2
  13   0   4 264807. 3488.03   1
 -13  13   7 430.206 665.024   3
 -13  13   7-151.744 819.533   4
   0 -13   7-938.457 1459.29   1
  13   0   7 346.428 649.379   4
 -13  13   7 417.681 1065.66   2
  13   0   7 28.4938 759.839   1
   0 -13   7-948.018 631.008   2
   0 -13   7 1056.32 803.732   4
  13   0   7 562.618 1058.60   3
  13   0  10 64359.3 2361.67   1
 -13  13  10 64411.4 2114.55   3
 -13  13  10 69902.2 2551.61   4
 -13  13  10 59804.9 2652.33   1
 -13  13  10 66587.3 3287.03   2
  13   0  10 71625.8 3396.35   3
   0 -13  10 79864.3 3941.70   1
   0 -13  10 59188.4 1919.36   2
 -14   0  -8 8458.05 735.115   4
 -14   0  -5-602.710 829.892   2
   0  14  -5 1563.23 931.493   3
 -14   0  -5 760.773 603.461   4
 -14   0  -2 36108.3 1506.68   4
   0  14  -2 36727.1 1389.24   3
  14 -14  -2 34217.6 1317.60   1
 -14   0  -2 36169.9 1356.20   2
  14 -14  -2 33223.1 1213.24   3
   0  14   1-773.784 639.821   3
 -14   0   1 64.6451 593.157   2
 -14   0   1 1244.21 767.770   4
  14 -14   1 221.536 584.506   1
 -14   0   4 4423.79 889.440   4
  14 -14   4 4371.87 927.614   1
 -14   0   4 4231.30 892.285   2
   0  14   4 3467.25 802.123   3
 -14   0   7-418.747 889.166   2
 -14   0   7 311.993 806.668   4
  14 -14   7 81.5952 1064.18   1
   0  14   7 713.877 875.004   3
 -14   0  10 15718.6 1612.64   2
  14 -14  10 15554.7 1755.19   1
 -14   0  10 18812.3 1641.45   4
   0  14  10 15205.8 1543.34   3
 -14   1  -6 2789.87 654.149   4
 -13  -1  -6 2751.40 667.870   4
 -13  -1  -3 44113.8 1557.68   2
 -14   1  -3 45111.2 1471.14   2
   1  13  -3 44793.2 1564.50   3
  -1  14  -3 41608.4 1612.12   3
  14 -13  -3 47130.5 1605.79   1
  13 -14  -3 43609.8 1435.49   1
 -14   1  -3 43594.4 1576.18   4
  -1  14  -3 42836.5 1426.08   2
 -13  -1  -3 43225.9 1575.34   4
  14 -13  -3 42865.1 1309.39   3
   1  13   0 12742.1 859.048   3
  -1  14   0 13045.2 913.685   3
  14 -13   0 11548.8 829.709   3
  13 -14   0 12441.6 848.712   1
 -14   1   0 13445.2 1079.71   4
 -14   1   0 12781.1 931.298   2
 -13  -1   0 11971.5 938.752   2
  14 -13   0 12426.2 887.750   1
 -13  -1   0 14360.4 1109.91   4
  14 -13   3 27878.3 1406.00   1
  13 -14   3 24474.5 1360.12   1
 -13  -1   3 30148.0 1518.32   4
 -14   1   3 22210.2 1315.90   2
 -13  -1   3 24881.7 1341.21   2
   1  13   3 25690.8 1279.36   3
  -1  14   3 25240.2 1270.26   3
 -14   1   3 25654.6 1445.78   4
 -14   1   6 5044.97 1087.42   2
 -14   1   6 4301.61 929.682   4
  13 -14   6 7204.14 1271.06   1
  14 -13   6 4520.66 1138.41   1
 -13  -1   6 5084.77 987.842   4
   1  13   6 6577.12 1012.29   3
 -13  -1   6 5582.37 997.296   2
  -1  14   6 5001.16 961.271   3
  14 -13   9 13414.3 1672.34   1
 -14   1   9 12887.8 1377.95   4
 -13  -1   9 16473.6 1486.30   4
  -1  14   9 14917.5 1494.66   3
 -14   1   9 12815.2 1464.43   2
   1  13   9 10908.2 1370.20   3
 -13  -1   9 12574.2 1454.24   2
  13 -14   9 10926.9 1574.98   1
 -12  -2  -7 45871.7 1451.80   4
  -2  14  -7 40464.4 1629.68   2
 -14   2  -4 30588.9 1268.95   2
 -12  -2  -4 29379.1 1441.16   2
   2  12  -4 32420.7 1456.79   3
  -2  14  -4 27733.5 1513.49   3
 -14   2  -4 26413.4 1196.04   4
 -12  -2  -4 28675.7 1293.25   4
  -2  14  -4 27734.0 1151.30   2
  14 -12  -4 30361.6 1148.27   3
  12 -14  -1 67942.6 1634.90   3
  14 -12  -1 74684.0 1612.32   3
   2  12  -1 70717.5 1623.03   3
  -2  14  -1 76824.1 1872.80   3
  14 -12  -1 73409.3 1798.72   1
 -12  -2  -1 69934.3 1695.42   1
 -12  -2  -1 75975.4 2092.78   4
 -14   2  -1 75378.8 2068.48   4
 -14   2  -1 74628.1 1752.29   2
  12 -14  -1 76385.7 1656.74   1
 -12  -2  -1 76123.2 1905.58   2
  -2  14  -1 75454.4 1866.96   2
 -12  -2   2 56041.8 1922.19   4
  12 -14   2 47840.7 1632.51   1
   2  12   2 46291.8 1495.53   3
  14 -12   2 49612.0 1632.31   1
 -14   2   2 50498.5 1842.48   4
 -14   2   2 48256.5 1699.77   2
 -12  -2   2 39244.4 1521.97   2
  -2  14   2 44756.5 1486.53   3
  14 -12   5 126165. 2981.34   1
   2  12   5 123797. 2835.80   3
 -12  -2   5 123970. 2877.69   4
 -14   2   5 122813. 2932.26   4
 -14   2   5 128108. 3081.00   2
 -12  -2   5 120580. 2852.80   2
  12 -14   5 130231. 3224.52   1
  -2  14   5 126127. 2715.50   3
  14 -12   8 53580.0 2395.76   1
 -14   2   8 56007.3 2242.71   4
 -12  -2   8 52908.0 2265.83   2
 -12  -2   8 55086.5 2153.81   4
   2  12   8 55134.6 2331.61   3
  -2  14   8 52667.1 2172.48   3
  12 -14   8 54928.9 2605.63   1
 -14   2   8 53713.7 2392.92   2
 -12  -2  11 15318.0 1944.13   1
  14 -12  11 20965.5 1987.77   1
 -14   2  11 22341.0 1959.76   2
 -12  -2  11 24752.9 1877.12   2
  -2  14  11 21120.3 1758.50   3
   2  12  11 21741.1 1917.05   3
  12 -14  11 18865.1 2067.23   1
 -14   3  -8 4429.38 427.651   4
 -11  -3  -5 16600.9 1370.86   2
 -11  -3  -5 16087.9 1026.80   4
 -14   3  -5 16140.5 1091.06   2
  -3  14  -5 14263.8 896.600   2
 -14   3  -5 16653.5 929.240   4
 -11  -3  -5 16164.2 1179.65   1
  14 -11  -5 14946.9 947.614   3
  14 -11  -2 27826.6 963.889   3
  -3  14  -2 29629.3 1335.14   3
  11 -14  -2 29483.7 1054.88   1
   3  11  -2 28898.9 1101.15   3
 -11  -3  -2 29993.0 1364.30   4
 -11  -3  -2 29195.5 1114.43   1
 -14   3  -2 32115.6 1340.76   4
 -14   3  -2 29470.0 1082.52   2
  14 -11  -2 27646.9 1295.16   1
  -3  14  -2 29204.6 1114.85   2
 -11  -3  -2 29297.8 1302.06   2
  11 -14  -2 25130.9 1084.04   3
  -3  14   1 25490.1 1157.10   3
 -11  -3   1 26850.5 1396.22   4
 -14   3   1 26219.9 1240.54   2
  14 -11   1 27035.6 1224.18   3
  11 -14   1 27893.9 1191.54   1
 -14   3   1 28056.1 1407.81   4
  14 -11   1 24651.0 1149.91   1
 -11  -3   1 28156.2 1291.40   2
   3  11   1 25861.3 1085.75   3
 -11  -3   4 41895.7 1643.62   2
  14 -11   4 45649.5 1771.13   1
 -11  -3   4 44724.1 1746.71   4
   3  11   4 45656.9 1729.65   3
 -14   3   4 47708.1 1837.13   4
 -14   3   4 43464.8 1841.20   2
  -3  14   4 41655.5 1549.95   3
  11 -14   4 46451.1 1931.97   1
 -11  -3   7 7932.88 386.368   3
  14 -11   7 9690.08 1282.18   1
 -11  -3   7 10530.5 1189.58   2
  11 -14   7 10378.0 1425.17   1
 -14   3   7 8960.07 1129.07   4
   3  11   7 6630.12 423.323   1
 -11  -3   7 6224.48 401.230   3
 -14   3   7 9541.61 1233.19   2
   3  11   7 7581.97 1210.37   3
  -3  14   7 10664.1 1187.44   3
 -11  -3   7 8635.81 1055.62   4
 -14   3   7 5988.97 250.634   3
  14 -11  10 13126.4 1603.76   1
 -14   3  10 15389.1 1546.49   4
 -11  -3  10 14174.6 1463.71   2
 -14   3  10 14256.1 1620.21   2
 -11  -3  10 15788.5 1441.54   4
  11 -14  10 12993.9 1775.82   1
   3  11  10 12407.4 1579.72   3
  -3  14  10 12064.6 1396.12   3
  -4  14  -6 1420.56 617.015   4
 -14   4  -6 1827.57 527.277   4
  -4  14  -6 787.241 534.364   2
 -10  -4  -6 2157.09 627.071   4
  14 -10  -6 1165.77 666.242   3
  14 -10  -3 14898.0 1119.78   1
 -10  -4  -3 15957.3 1117.96   2
   4  10  -3 15418.6 893.274   3
  -4  14  -3 15815.2 835.539   2
 -10  -4  -3 15226.7 867.695   1
 -14   4  -3 16455.9 840.331   2
 -14   4  -3 14413.5 959.090   4
  -4  14  -3 13632.7 1011.91   4
 -10  -4  -3 16743.1 1040.69   4
  -4  14  -3 14063.0 1162.62   3
  10 -14  -3 14630.6 775.872   1
  14 -10  -3 14477.3 732.808   3
  10 -14   0 7861.61 763.628   3
  -4  14   0 7669.50 835.529   2
  -4  14   0 6907.14 795.878   3
  14 -10   0 8958.67 752.158   3
 -10  -4   0 6468.49 723.220   1
   4  10   0 8537.20 700.573   3
  14 -10   0 8998.77 852.047   1
 -14   4   0 8647.87 790.228   2
 -14   4   0 7403.95 862.214   4
 -10  -4   0 8555.69 944.299   4
  10 -14   0 7867.04 723.460   1
 -10  -4   0 6790.28 824.678   2
 -14   4   3 11503.6 1085.52   2
 -10  -4   3 7763.56 393.174   3
 -14   4   3 11005.7 1042.88   4
 -10  -4   3 11470.9 1023.92   4
  14 -10   3 10215.0 920.435   1
  10 -14   3 10411.3 1096.38   1
  -4  14   3 10190.5 842.224   3
   4  10   3 10466.5 923.248   3
 -10  -4   3 10624.2 917.821   2
 -10  -4   6 6731.95 362.159   3
  10 -14   6 7023.83 1312.17   1
 -14   4   6 5125.93 233.802   3
 -14   4   6 9140.04 1179.79   2
   4  10   6 6724.45 481.397   1
 -14   4   6 8888.45 1054.88   4
  14 -10   6 9993.21 1154.90   1
 -10  -4   6 7961.49 1010.94   2
 -10  -4   6 8549.10 1026.48   4
   4  10   6 6280.44 1041.72   3
  -4  14   6 8106.91 973.882   3
 -14   4   9 16627.9 1665.60   2
  14 -10   9 18610.5 1653.79   1
  10 -14   9 17761.9 1926.83   1
 -10  -4   9 20118.3 1452.78   4
 -14   4   9 19264.0 1536.41   4
 -10  -4   9 16677.3 1436.60   2
 -10  -4   9 17811.4 995.813   3
   4  10   9 16076.8 870.451   1
   4  10   9 17601.1 1665.89   3
  -4  14   9 17123.3 1454.56   3
  -5  14  -7 41684.0 1325.54   2
  -5  14  -7 40096.1 1427.28   4
  -9  -5  -4 13178.6 882.968   1
  -9  -5  -4 12878.6 1156.67   2
 -14   5  -4 11707.5 742.018   2
  -5  14  -4 13001.3 1227.90   3
   5   9  -4 13083.3 903.280   3
  -5  14  -4 12419.6 963.860   4
  -9  -5  -4 13699.1 1035.68   4
  -5  14  -4 13014.8 720.460   2
  14  -9  -4 12528.0 681.725   3
 -14   5  -4 12086.1 870.807   4
  14  -9  -1 42538.2 1131.16   3
   5   9  -1 43278.4 1143.92   3
  -5  14  -1 41333.6 1348.09   2
  -5  14  -1 38820.6 1454.37   3
  -5  14  -1 39390.8 1521.47   4
  -9  -5  -1 40934.6 1246.92   1
  -5  14  -1 39256.8 1622.25   1
  14  -9  -1 43312.8 1501.11   1
   9 -14  -1 42627.1 1111.27   1
  -9  -5  -1 43057.2 1606.25   4
 -14   5  -1 40733.5 1523.51   4
 -14   5  -1 40971.9 1236.70   2
   5   9  -1 38157.5 1379.63   2
  -9  -5  -1 40395.0 1474.20   2
   9 -14  -1 37192.4 1260.33   3
   5   9   2 38138.9 1532.82   4
   9 -14   2 43551.9 1622.94   1
  14  -9   2 41038.6 1635.23   3
  -9  -5   2 42339.2 1647.86   4
  14  -9   2 42498.4 1321.38   2
 -14   5   2 42457.3 1671.91   4
  -5  14   2 37850.1 1343.74   3
 -14   5   2 38621.4 1562.08   2
  14  -9   2 38802.5 1418.61   1
  -9  -5   2 40715.4 1024.34   3
  -9  -5   2 40975.4 1479.30   2
   5   9   2 42370.0 1409.21   3
  14  -9   5 80363.0 2317.54   1
  -9  -5   5 80121.8 2250.85   4
   5   9   5 73244.3 1318.28   1
 -14   5   5 83124.5 2372.21   4
  -9  -5   5 74716.1 2110.77   2
  -9  -5   5 71606.3 1019.10   3
 -14   5   5 81424.1 2601.30   2
   9 -14   5 83178.9 2720.91   1
   5   9   5 79462.6 2423.85   3
  -5  14   5 77705.4 2069.69   3
   5   9   8 22921.9 980.443   1
  -5  14   8 25069.4 1527.87   3
 -14   5   8 25208.9 1600.32   4
  -9  -5   8 24788.7 1500.16   4
 -14   5   8 25477.8 1893.48   2
   9 -14   8 26633.6 2079.07   1
  -5  14   8 19209.3 679.505   1
  14  -9   8 23482.0 1656.39   1
   5   9   8 24270.0 1770.48   3
  -9  -5   8 23751.7 1478.62   2
 -14   5   8 25399.6 867.216   3
 -14   5  11 30647.7 2242.75   2
  -9  -5  11 22848.8 2518.60   1
  -9  -5  11 27629.5 1807.40   2
  -5  14  11 27481.9 1871.23   3
   9 -14  11 31574.1 2656.93   1
   5   9  11 31147.3 2194.02   3
  14  -9  11 28597.7 2093.32   1
  -6  14  -5 45300.8 1107.06   2
 -14   6  -5 44516.6 1208.04   2
  14  -8  -5 47143.3 1331.61   3
 -14   6  -5 45909.5 1341.53   4
  -6  14  -5 47920.7 1582.94   4
  -8  -6  -5 44383.8 1560.21   4
  -8  -6  -5 45532.4 1498.99   1
  -8  -6  -2 3797.18 522.223   1
  -8  -6  -2 3228.12 752.394   2
  -6  14  -2 3732.94 817.906   3
  -6  14  -2 4038.09 553.489   2
  14  -8  -2 5162.28 850.259   1
   6   8  -2 3698.80 521.125   3
  -6  14  -2 3322.94 1003.93   1
  -6  14  -2 4533.89 737.069   4
  -8  -6  -2 3766.46 770.412   4
   8 -14  -2 3854.01 442.233   1
 -14   6  -2 4047.53 515.546   2
  14  -8  -2 4346.66 446.496   3
 -14   6  -2 4078.70 714.274   4
 -14   6   1 193100. 2988.94   2
  -6  14   1 199587. 2832.38   3
   6   8   1 196043. 3222.48   4
  14  -8   1 213990. 3084.16   2
  -6  14   1 202378. 3413.76   2
 -14   6   1 202877. 3339.63   4
  -6  14   1 202795. 2713.48   1
  -8  -6   1 208277. 2541.06   3
   6   8   1 204181. 2615.79   3
  -8  -6   1 196719. 3107.96   1
  -8  -6   1 205982. 3354.59   4
  14  -8   1 212764. 3109.99   3
  -8  -6   1 196760. 2982.60   2
  14  -8   1 194419. 2878.63   1
   8 -14   1 205354. 2910.69   1
  14  -8   4 26657.9 840.207   2
 -14   6   4 26431.4 680.305   3
  14  -8   4 30763.5 1401.63   1
  -8  -6   4 30756.3 760.846   3
 -14   6   4 27112.2 1574.33   2
  -8  -6   4 30260.4 1445.07   4
   6   8   4 31691.3 1528.73   3
 -14   6   4 30828.1 1518.69   4
  -8  -6   4 30063.4 1336.79   2
   8 -14   4 29083.3 1677.32   1
   6   8   4 27898.1 1330.11   4
   6   8   4 29712.8 967.093   1
  -6  14   4 28130.2 1274.37   3
 -14   6   7 11323.1 621.591   3
 -14   6   7 11090.7 1192.21   4
  -8  -6   7 11608.7 1100.33   4
  -6  14   7 6601.57 505.522   1
  14  -8   7 10317.1 1216.68   1
   6   8   7 8636.08 727.454   1
   6   8   7 7644.34 877.232   4
  -6  14   7 7256.17 391.125   1
 -14   6   7 10365.2 1395.53   2
   8 -14   7 11629.5 1608.43   1
  -8  -6   7 12033.3 1159.68   2
   6   8   7 9657.80 1281.52   3
  -8  -6   7 8636.21 659.520   3
  -6  14   7 10236.1 1083.48   3
  14  -8  10 8138.72 1374.40   1
  -8  -6  10 8511.57 1125.62   4
  -6  14  10 7994.77 999.273   4
  -8  -6  10 7339.26 1133.84   2
 -14   6  10 8587.31 1462.47   2
   8 -14  10 9225.82 1748.56   1
  -8  -6  10 6938.16 1860.24   1
 -14   6  10 9528.55 1267.83   4
   6   8  10 6364.26 1319.52   3
  -6  14  10 8322.89 1252.66   3
  -7  -7  -6 9692.94 954.418   1
 -14   7  -6 11128.6 726.143   4
  -7  14  -6 10116.4 842.246   4
  -7  -7  -6 11807.2 969.524   4
  -7  14  -6 8406.37 542.832   2
  -7  -7  -3 54551.4 1930.79   2
   7   7  -3 57986.9 1225.45   3
  -7  -7  -3 58237.5 1292.41   1
  -7  14  -3 53710.3 2002.17   3
   7 -14  -3 47858.9 919.814   1
 -14   7  -3 52347.8 1556.35   4
  -7  14  -3 52839.0 1667.81   4
  -7  -7  -3 56108.3 1784.39   4
 -14   7  -3 55108.7 1135.01   2
  -7  14  -3 57624.5 1226.27   2
  14  -7  -3 57034.5 989.328   3
   7 -14   0 20584.5 1005.58   3
   7 -14   0 21931.6 952.003   1
  -7  14   0 20488.5 1145.60   2
  14  -7   0 23703.8 1020.75   3
  -7  14   0 22478.5 1234.97   1
  14  -7   0 20224.9 1145.69   1
  -7  -7   0 22224.9 1057.11   1
  -7  14   0 20848.0 1122.54   3
 -14   7   0 19674.3 1058.87   1
  14  -7   0 23853.5 1293.72   4
  -7  -7   0 23421.1 1318.30   4
  14  -7   0 21083.0 1201.52   2
   7   7   0 20010.7 1064.78   2
  -7  -7   0 23819.0 1106.50   3
 -14   7   0 20925.1 1048.33   2
   7   7   0 20594.2 857.430   3
   7   7   0 21102.5 1215.67   4
 -14   7   0 21969.0 1256.53   4
  -7  -7   0 20384.1 1156.79   2
  -7  14   3 55817.0 1603.85   3
 -14   7   3 53534.2 1128.08   3
 -14   7   3 55610.1 1982.45   2
 -14   7   3 57492.5 1917.52   4
   7   7   3 55142.5 1393.13   1
  14  -7   3 54991.5 1364.60   2
   7   7   3 56019.0 1770.73   4
   7 -14   3 58540.1 2061.43   1
  -7  -7   3 56434.0 1847.10   4
  -7  14   3 48078.8 1001.70   1
  -7  -7   3 55481.9 1698.81   2
   7   7   3 57166.6 1809.15   3
  -7  -7   3 55998.6 1111.07   3
  14  -7   3 56210.2 1697.12   1
 -14   7   6 10112.2 594.867   3
  -7  -7   6 9148.77 646.974   3
   7 -14   6 6783.99 533.902   2
  -7  14   6 6848.86 579.657   1
  14  -7   6 10971.6 1120.52   1
  -7  14   6 7177.07 400.545   1
  14  -7   6 6147.64 402.172   2
   7   7   6 8214.72 909.986   4
  -7  -7   6 9634.34 1001.31   4
   7   7   6 10186.9 1288.55   3
 -14   7   6 10406.5 1109.47   4
  -7  -7   6 9054.72 967.016   2
   7 -14   6 10267.0 1526.19   1
   7   7   6 8910.78 730.938   1
 -14   7   6 8678.05 1219.43   2
  -7  14   6 10362.4 987.034   3
  -7  -7   9 10108.1 1111.13   4
  -7  14   9 7715.97 1007.35   4
 -14   7   9 8524.54 768.621   3
 -14   7   9 8842.31 1251.71   4
 -14   7   9 9404.51 1411.38   2
  -7  -7   9 5854.10 1649.50   1
   7   7   9 7763.90 875.110   1
  -7  14   9 6854.49 837.407   1
   7   7   9 7158.96 1406.74   3
  -7  -7   9 7569.09 1070.49   2
  14  -7   9 9878.68 1249.51   1
   7 -14   9 9457.40 1752.46   1
  -7  14   9 7285.60 1065.79   3
   7 -14  12 1719.49 1709.06   1
  -7  14  12 540.316 1494.20   2
 -14   7  12-179.662 1368.84   2
 -14   7  12-87.9827 1314.32   1
  14  -7  12-148.351 1128.19   1
  -7  -7  12 1525.50 992.828   2
   7   7  12 519.126 1333.38   3
  -7  -7  12-870.941 1785.65   1
  -7  14  12 2040.09 1047.94   3
 -14   8  -7 10031.3 566.700   4
  -8  14  -7 10139.5 800.673   4
  -8  14  -4 33134.3 799.116   2
  -6  -8  -4 32661.7 1741.49   2
  -8  14  -4 29822.3 1728.51   3
  -8  14  -4 30960.0 1283.79   4
  14  -6  -4 27264.5 742.604   3
 -14   8  -4 29744.7 1163.12   4
  -6  -8  -4 33009.3 1411.79   4
  -6  -8  -4 33476.2 1019.91   1
 -14   8  -4 33617.5 832.870   2
  14  -6  -1 203421. 3192.92   1
  14  -6  -1 215737. 3564.10   2
  14  -6  -1 213875. 2199.96   3
   6 -14  -1 210400. 2078.60   1
  -6  -8  -1 200809. 3238.49   2
  -8  14  -1 202085. 2774.37   2
  -6  -8  -1 219723. 3499.83   4
 -14   8  -1 206345. 3213.81   4
   8   6  -1 204619. 2036.62   3
  -6  -8  -1 199717. 2422.68   1
  -6  -8  -1 203587. 3106.98   3
  -8  14  -1 200506. 3181.61   3
 -14   8  -1 200595. 2546.48   2
  -8  14  -1 197435. 3346.83   1
 -14   8   2 6732.93 754.691   1
  -8  14   2 5849.49 747.816   3
  14  -6   2 6722.33 804.689   4
   6 -14   2 8098.47 1003.59   1
 -14   8   2 7348.35 712.126   3
 -14   8   2 6738.34 932.981   4
  -6  -8   2 5308.83 756.681   2
 -14   8   2 7079.28 924.286   2
   8   6   2 6569.68 828.477   4
  -6  -8   2 8544.85 936.837   4
  -8  14   2 8014.36 661.830   1
  14  -6   2 5928.25 683.649   2
   8   6   2 7133.05 815.047   3
  14  -6   2 6760.13 806.392   1
  -6  -8   2 6832.85 563.206   3
   8   6   2 5526.73 727.314   1
  -6  -8   5 41028.5 1079.32   3
 -14   8   5 44665.8 1076.07   3
  -6  -8   5 44012.4 1583.54   2
   6 -14   5 40751.3 1198.71   2
  14  -6   5 45242.1 1687.76   1
 -14   8   5 42247.2 2056.97   2
  -8  14   5 39782.8 869.901   1
   8   6   5 42357.4 1606.50   4
  14  -6   5 41248.0 1071.91   2
   8   6   5 45616.0 1304.44   1
  -6  -8   5 43870.2 1693.45   4
   6 -14   5 48099.5 2318.40   1
   8   6   5 43307.2 1904.37   3
 -14   8   5 42267.8 1765.08   4
  -8  14   5 44510.6 1567.50   3
   6 -14   8 6730.87 542.803   2
   8   6   8 9560.43 1356.47   3
  -6  -8   8 12390.9 1143.70   2
  14  -6   8 10358.6 1268.78   1
   8   6   8 11465.0 933.538   1
  -8  14   8 10268.3 955.876   1
 -14   8   8 11759.6 1264.81   4
 -14   8   8 9028.71 1376.96   2
  -6  -8   8 11425.7 1980.56   1
  -6  -8   8 11915.6 1159.91   4
   6 -14   8 11712.5 1744.85   1
  -8  14   8 10699.4 1117.95   3
 -14   8   8 9260.87 742.626   3
  -6  -8  11 14412.2 2361.38   1
  14  -6  11 13146.8 1545.38   1
 -14   8  11 17618.1 1921.65   2
   8   6  11 16311.0 1824.62   3
  -6  -8  11 13891.2 1338.47   2
   6 -14  11 15252.5 2183.00   1
  -8  14  11 15152.5 2101.30   2
  -8  14  11 13704.7 1404.85   3
  -5  -9  -5 83227.7 2194.35   4
  -9  14  -5 82409.7 1948.05   4
 -14   9  -5 81130.6 1738.03   4
  -5  -9  -2 47559.4 1046.22   1
  14  -5  -2 46415.1 799.511   3
   9   5  -2 47812.1 913.318   3
  -9  14  -2 44615.4 1202.87   2
  -5  -9  -2 42937.5 1749.28   2
  14  -5  -2 45779.5 1811.43   1
  -9  14  -2 42886.3 1771.50   3
 -14   9  -2 46191.2 1107.37   2
 -14   9  -2 45044.5 1556.43   4
  -9  14  -2 44141.9 1914.61   1
   5 -14  -2 44742.3 776.780   1
  -5  -9  -2 48087.4 1725.91   4
  -5  -9  -2 45586.6 1721.33   3
  14  -5   1 50673.0 1579.58   2
  -9  14   1 47349.9 1503.70   3
  14  -5   1 46976.9 1558.37   1
 -14   9   1 43135.7 1407.07   3
   9   5   1 44888.2 1523.00   2
  14  -5   1 49778.5 1652.59   3
   9   5   1 49681.0 1436.80   3
  14  -5   1 45774.9 1670.10   4
   9   5   1 48428.2 1710.46   4
 -14   9   1 50436.1 1813.46   4
 -14   9   1 48778.4 1466.55   1
   5 -14   1 50725.8 1694.32   1
  -5  -9   1 50545.6 1830.60   4
  -9  14   1 49432.7 1467.17   1
  -5  -9   1 49345.2 1325.21   3
 -14   9   1 42952.7 1600.10   2
  -5  -9   1 48331.3 1603.28   2
   9   5   4 13747.4 1206.85   3
 -14   9   4 12235.4 679.396   3
   5 -14   4 11213.9 826.050   2
  -9  14   4 9918.77 566.454   1
   9   5   4 11516.8 799.361   1
   9   5   4 13021.1 1006.84   4
  -9  14   4 12246.5 921.963   3
  14  -5   4 11732.5 914.576   4
 -14   9   4 10246.6 1216.43   2
  -5  -9   4 11868.0 691.942   3
  -5  -9   4 11894.8 1015.17   4
  14  -5   4 12079.8 748.872   2
 -14   9   4 13207.6 1165.18   4
  14  -5   4 10623.4 926.164   1
   5 -14   4 11627.5 1338.81   1
  -5  -9   4 12635.3 940.269   2
  -5  -9   7 41840.4 1410.90   3
  -9  14   7 43865.3 1196.45   1
   5 -14   7 50897.0 2707.24   1
  -5  -9   7 44617.2 2839.96   1
  14  -5   7 44922.4 1939.55   1
  -9  14   7 47897.5 1778.51   3
 -14   9   7 48240.1 2027.37   4
 -14   9   7 47310.0 2371.63   2
   9   5   7 45442.3 2208.28   3
   9   5   7 44442.6 1613.24   4
  -5  -9   7 46716.9 1890.81   4
  14  -5   7 39240.0 1080.22   2
   9   5   7 49783.2 1583.67   1
  -5  -9   7 47299.0 1753.96   2
   5 -14   7 41977.4 1215.32   2
 -14   9   7 49470.3 1331.66   3
   9   5  10 4441.87 948.404   1
 -14   9  10 3296.35 722.332   3
 -14   9  10 4062.83 1077.69   4
  -9  14  10 5171.94 1646.04   2
  -9  14  10 2404.13 920.675   3
  -5  -9  10 5165.17 1814.53   1
 -14   9  10 3732.72 1327.73   2
  -9  14  10 2244.79 908.225   4
  -5  -9  10 2714.84 889.546   2
   9   5  10 3079.50 1287.95   3
   5 -14  10 5229.17 1730.32   1
  14  -5  10 3425.18 1146.74   1
 -14  10  -6 8515.08 687.933   4
 -10  14  -6 7837.46 772.152   4
  10   4  -3 7685.75 378.298   3
  -4 -10  -3 8146.85 1126.54   2
 -10  14  -3 8754.93 1137.14   3
  -4 -10  -3 9073.93 481.639   1
 -14  10  -3 9661.68 475.036   2
  -4 -10  -3 9223.35 943.280   4
 -14  10  -3 8378.79 819.558   4
 -10  14  -3 9756.28 537.591   2
 -10  14   0 10129.5 966.730   3
  14  -4   0 10236.7 807.363   3
 -14  10   0 8507.51 931.035   3
 -14  10   0 9760.14 988.091   4
  14  -4   0 10169.4 1000.57   4
  14  -4   0 9711.60 930.440   2
  -4 -10   0 11617.9 1053.09   2
  -4 -10   0 9971.37 1050.58   4
   4 -14   0 8824.72 805.799   1
 -14  10   0 9276.85 863.290   2
 -10  14   0 7651.31 914.377   1
  14  -4   0 9581.81 966.427   1
  -4 -10   0 9434.83 795.391   3
  10   4   0 10278.1 696.857   3
 -14  10   0 8959.78 826.606   1
 -14  10   3 14146.9 916.871   1
 -10  14   3 18851.2 1030.42   3
  10   4   3 15845.1 1074.23   4
 -14  10   3 16170.8 821.811   3
   4 -14   3 17143.1 1026.80   2
 -14  10   3 15466.1 1187.99   4
 -14  10   3 16138.9 1345.82   2
  14  -4   3 17060.4 910.051   2
   4 -14   3 16817.3 1435.26   1
 -10  14   3 16114.0 767.945   1
  10   4   3 16752.5 975.721   1
  10   4   3 14601.3 1129.22   3
  14  -4   3 16418.0 1064.19   4
  14  -4   3 15733.2 1011.25   1
  -4 -10   3 15108.5 1007.85   2
  -4 -10   3 17359.1 1221.83   4
  -4 -10   3 15696.4 776.347   3
 -10  14   6 1690.80 740.635   3
  14  -4   6 628.535 780.377   1
  -4 -10   6 1826.96 584.248   3
   4 -14   6 1070.82 546.723   2
  10   4   6 1283.77 603.120   1
 -14  10   6 1873.01 845.401   4
  -4 -10   6 1954.23 711.202   2
  -4 -10   6 2541.95 1445.38   1
  10   4   6 1067.13 639.482   4
 -14  10   6 473.876 958.868   2
 -10  14   6 1479.22 492.636   1
 -14  10   6 868.173 514.082   3
  10   4   6 1403.62 1004.61   3
  -4 -10   6 2131.05 779.719   4
   4 -14   6 1225.45 1363.45   1
  14  -4   6 695.102 468.152   2
 -14  10   9 10813.0 1241.34   4
 -14  10   9 9782.69 1488.47   2
  10   4   9 7563.47 978.886   1
 -10  14   9 6954.70 1118.77   1
  14  -4   9 7682.00 1188.89   1
 -10  14   9 10318.4 1752.83   2
 -10  14   9 6989.27 1112.53   4
   4 -14   9 6979.01 729.417   2
  -4 -10   9 7993.13 1046.82   4
 -14  10   9 10091.6 881.979   3
  -4 -10   9 7341.05 1857.80   1
  -4 -10   9 8557.38 1042.72   2
  10   4   9 8719.29 1445.40   3
   4 -14   9 9510.39 1850.50   1
 -10  14   9 8141.13 1055.15   3
 -14  11  -7 9695.26 635.731   4
 -11  14  -7 9033.64 766.880   4
 -14  11  -4 45732.0 1506.45   4
  -3 -11  -4 46563.9 1768.34   4
   3 -14  -1 29739.4 954.406   1
  -3 -11  -1 27105.1 1461.84   2
 -11  14  -1 25334.8 1424.39   3
  14  -3  -1 30257.0 926.917   3
 -14  11  -1 29389.1 1483.21   3
 -14  11  -1 27586.7 1355.64   4
 -14  11  -1 26314.6 1085.29   2
  -3 -11  -1 28051.5 977.682   1
  -3 -11  -1 31209.4 1502.94   4
 -11  14  -1 25428.7 1407.91   1
  -3 -11  -1 26875.8 1268.59   3
  14  -3  -1 28308.4 1492.34   1
  11   3  -1 28983.3 771.221   3
 -14  11   2 29396.8 1171.23   3
 -11  14   2 27988.0 1208.10   3
 -11  14   2 30397.0 1105.46   1
   3 -14   2 29296.1 1342.71   2
  14  -3   2 30735.8 1318.94   1
  -3 -11   2 32783.6 1556.39   4
 -14  11   2 27938.8 1462.59   4
 -14  11   2 30005.4 1597.22   2
  14  -3   2 29060.9 1356.99   4
  11   3   2 30997.7 1395.74   3
 -14  11   2 29458.9 1175.96   1
  -3 -11   2 29504.4 1067.97   3
  11   3   2 28418.5 1400.56   4
   3 -14   2 26068.9 1525.50   1
  14  -3   2 30652.0 1248.06   2
  11   3   2 28370.7 1233.76   2
  -3 -11   2 29266.7 1312.63   2
  11   3   2 28430.5 1283.62   1
 -11  14   5 18532.7 1078.11   3
   3 -14   5 16595.8 969.841   2
 -14  11   5 18677.6 910.771   3
 -14  11   5 16510.7 1531.14   2
  14  -3   5 16694.1 902.612   2
  -3 -11   5 20546.1 1949.94   1
 -14  11   5 17931.2 1319.96   4
  11   3   5 18530.1 1149.59   4
   3 -14   5 19061.1 1675.50   1
  14  -3   5 21015.4 1157.74   4
  14  -3   5 17800.6 1137.99   1
  -3 -11   5 20299.9 1277.48   4
  -3 -11   5 15818.0 905.574   3
 -11  14   5 17003.4 817.486   1
  11   3   5 18487.1 1477.65   3
  -3 -11   5 18407.5 1095.53   2
  11   3   5 18554.8 1050.67   1
 -11  14   8 4191.47 946.580   4
 -11  14   8 4278.88 862.090   3
  14  -3   8 5708.08 1063.92   1
 -14  11   8 5102.42 1294.96   2
   3 -14   8 4378.05 695.755   2
  -3 -11   8 6160.87 1830.04   1
  11   3   8 6297.97 921.462   1
 -14  11   8 6048.14 1067.99   4
  -3 -11   8 4705.06 932.754   4
   3 -14   8 5501.77 1577.91   1
  11   3   8 4602.11 1246.35   3
  -3 -11   8 3789.34 781.966   2
 -11  14   8 3009.57 1288.24   2
 -14  11   8 5294.13 763.167   3
 -14  11  11 95.2004 1256.85   1
 -11  14  11 2321.22 986.120   3
  11   3  11 2795.69 1001.86   1
 -11  14  11 1502.50 1504.36   2
 -14  11  11 1953.15 1368.57   2
  14  -3  11 186.726 1009.65   1
  -3 -11  11 1618.84 1717.32   1
  14  -3  11-202.935 1564.05   3
  11   3  11 3485.52 1446.65   3
   3 -14  11 2284.91 1812.39   1
 -14  12  -8 42706.7 872.651   4
 -12  14  -8 45845.4 1127.78   4
 -14  12  -5 123935. 2297.69   4
  12   2  -2 44677.5 658.398   3
  14  -2  -2 43343.9 620.750   3
 -14  12  -2 48881.2 1191.78   2
  -2 -12  -2 42219.9 1939.78   2
  -2 -12  -2 49239.4 937.763   1
 -12  14  -2 49060.7 1990.74   3
 -14  12  -2 48106.8 1665.04   4
  -2 -12  -2 50949.9 1900.53   4
 -14  12   1 71934.5 2093.69   2
  -2 -12   1 72296.8 2038.13   2
 -12  14   1 70432.8 1768.16   1
 -12  14   1 73472.2 1913.51   3
   2 -14   1 75870.0 2160.99   2
 -14  12   1 75362.4 2184.35   4
 -14  12   1 68209.1 1734.79   1
  14  -2   1 71050.3 1982.19   1
  14  -2   1 71069.0 1940.21   2
  -2 -12   1 76425.4 2230.02   4
  12   2   1 76439.1 2049.24   1
  12   2   1 74517.2 1875.18   3
 -14  12   1 72786.9 1886.43   3
  -2 -12   1 68873.7 1642.12   3
   2 -14   1 74823.4 2143.06   1
  -2 -12   4 30701.9 1154.19   3
 -12  14   4 32655.2 1259.07   3
   2 -14   4 33205.6 2063.37   1
  12   2   4 35980.8 1370.36   1
   2 -14   4 30884.5 1292.21   2
  -2 -12   4 37725.8 2207.10   1
 -14  12   4 32613.2 1595.21   4
 -14  12   4 30781.6 1803.42   2
 -14  12   4 34933.1 1205.56   3
  12   2   4 31648.2 1422.06   4
 -12  14   4 32669.6 1107.75   1
   2 -14   4 31447.9 1498.12   4
  14  -2   4 31824.2 1247.53   2
  -2 -12   4 35959.6 1604.96   4
  14  -2   4 33562.8 1442.54   4
  12   2   4 30830.2 1703.67   3
  14  -2   4 34156.1 1410.84   1
  -2 -12   4 33290.9 1350.77   2
 -14  12   4 29447.0 1202.86   1
 -14  12   7 48384.9 1520.16   3
   2 -14   7 51203.9 2906.19   1
 -12  14   7 39908.4 1417.05   1
 -14  12   7 46289.7 2422.65   2
  12   2   7 47450.6 1646.44   4
  14  -2   7 42088.7 1451.07   2
  14  -2   7 51479.9 1625.06   4
 -12  14   7 44746.9 1963.26   4
  14  -2   7 49168.6 1879.08   1
 -14  12   7 44997.5 1995.17   4
 -12  14   7 49615.4 1712.41   3
  -2 -12   7 51098.0 3050.97   1
  12   2   7 48743.0 1745.06   1
  -2 -12   7 47898.0 1837.60   4
 -12  14   7 50993.5 2658.71   2
  12   2   7 48002.3 2396.91   3
  -2 -12   7 46178.3 1669.77   2
   2 -14   7 45288.0 1489.08   2
  -2 -12  10 19989.0 2428.02   1
 -14  12  10 17555.7 2033.26   2
 -12  14  10 18305.1 1519.74   4
  14  -2  10 15240.3 1429.83   1
 -14  12  10 21379.9 1630.66   4
  12   2  10 17457.5 1437.29   1
 -12  14  10 16920.3 1666.10   1
   2 -14  10 21701.5 2450.51   1
  14  -2  10 24822.4 2328.79   3
 -12  14  10 20928.6 2225.22   2
  12   2  10 21492.6 2096.73   3
  -2 -12  10 16549.6 1271.89   2
 -12  14  10 18421.4 1365.70   3
 -14  12  10 21094.2 1294.79   3
 -13  14  -6 4946.69 719.113   4
 -14  13  -6 4835.09 693.456   4
 -13  14  -6 4430.34 703.955   4
 -13  14  -3 23397.9 781.685   2
 -14  13  -3 23429.3 1203.55   4
 -14  13  -3 23600.3 706.381   2
 -13  14  -3 23160.8 768.350   2
  13   1   0 13401.7 1140.50   1
  -1 -13   0 14570.0 1199.28   2
 -14  13   0 12438.1 975.958   1
 -13  14   0 16650.2 1156.95   3
   1 -14   0 14162.1 1243.10   2
 -14  13   0 13738.1 1119.42   3
 -14  13   0 14050.5 1041.97   2
   1 -14   0 18321.1 1176.26   1
  14  -1   0 15045.9 1185.10   1
   1 -14   0 14723.5 1271.89   4
  -1 -13   0 14659.8 1220.70   4
  14  -1   0 15498.5 881.760   3
  13   1   0 14539.5 836.639   3
 -13  14   0 12664.7 991.493   1
  -1 -13   3 41080.2 1331.04   3
   1 -14   3 43035.8 1547.38   2
 -13  14   3 45126.3 1460.77   3
 -14  13   3 43062.0 1377.11   3
  -1 -13   3 43781.7 2234.70   1
  14  -1   3 44407.0 1565.48   1
 -14  13   3 44130.2 1822.08   4
  14  -1   3 42062.7 1621.68   4
  13   1   3 44425.1 1554.59   1
 -14  13   3 46434.2 2024.04   2
  14  -1   3 44107.1 1494.64   2
 -13  14   3 42643.3 1310.09   1
 -14  13   3 42846.5 1374.34   1
  -1 -13   3 44253.6 1749.67   4
   1 -14   3 47490.5 1844.76   4
  13   1   3 42919.8 1831.87   3
   1 -14   3 44138.5 2159.42   1
  -1 -13   3 43696.4 1544.81   2
  -1 -13   6 3450.18 762.517   2
 -13  14   6 4018.73 779.066   3
  -1 -13   6 4338.21 1551.81   1
   1 -14   6 3831.12 724.889   2
 -14  13   6 3051.73 699.843   3
 -13  14   6 4044.69 1210.76   2
 -14  13   6 1538.87 831.167   4
 -13  14   6 2784.15 905.793   4
 -14  13   6 4932.76 1280.80   2
  14  -1   6 3938.93 845.898   1
  14  -1   6 3220.50 756.072   4
 -13  14   6 2474.68 637.291   1
   1 -14   6 4229.15 927.015   4
   1 -14   6 4418.65 1577.24   1
  13   1   6 3389.58 790.193   4
  -1 -13   6 3356.38 877.507   4
  13   1   6 4637.16 851.159   1
  13   1   6 3073.79 1058.07   3
  14  -1   6 3172.63 699.245   2
 -13  14   9 20515.8 1523.87   4
   1 -14   9 24823.3 2515.32   1
 -13  14   9 21813.0 1351.62   3
  14  -1   9 19799.8 1431.74   1
 -13  14   9 19485.5 2031.05   2
  13   1   9 22893.5 1508.93   1
 -14  13   9 18493.6 1944.96   2
 -14  13   9 19919.6 1522.99   4
  13   1   9 20382.8 2006.49   3
  -1 -13   9 18413.5 1212.14   2
   1 -14   9 16160.6 1086.64   2
  14  -1   9 20538.3 2098.14   3
  -1 -13   9 26382.4 2605.38   1
 -14  13   9 18560.3 1209.35   3
 -14  14  -7 130.060 517.024   4
 -14  14  -7 244.157 544.389   4
 -14  14  -4 5224.07 787.642   4
 -14  14  -1 85.9502 878.443   3
   0 -14  -1-377.765 892.436   2
  14   0  -1 558.368 404.150   3
   0 -14  -1-860.421 620.670   1
   0 -14  -1 741.913 869.724   4
 -14  14  -1-300.453 604.786   2
   0 -14   2 34874.7 1519.16   2
 -14  14   2 33879.1 1365.70   3
 -14  14   2 31807.4 1253.91   1
   0 -14   2 33420.8 1801.40   1
  14   0   2 36711.7 1500.06   1
 -14  14   2 32757.9 1732.43   2
  14   0   2 33717.1 1534.37   3
   0 -14   2 37027.7 1704.21   4
   0 -14   5 40.1500 649.396   2
 -14  14   5 954.276 620.311   3
 -14  14   5-935.500 593.740   1
 -14  14   5 813.327 778.419   4
  14   0   5-16.6787 682.918   1
  14   0   5-17.0417 648.598   4
   0 -14   5 2020.79 1393.18   1
   0 -14   5 114.079 736.382   4
 -14  14   5-1204.56 1110.75   2
  14   0   5 653.321 935.510   3
 -14  14   8 8194.44 908.987   3
 -14  14   8 8828.31 1613.31   2
   0 -14   8 11490.8 2072.57   1
 -14  14   8 8230.61 1198.11   4
  14   0   8 6783.87 1048.62   1
  14   0   8 9679.34 1570.84   3
   0 -14   8 8681.85 908.885   2
 -14  14  11 90.9733 864.960   3
  14   0  11-232.228 1487.42   3
  14   0  11-991.490 1007.85   1
 -14  14  11-521.436 1455.84   2
   0 -14  11 694.174 1845.80   1
 -15   0  -6 26520.0 1296.80   4
 -15   0  -3-180.694 617.396   2
 -15   0  -3-401.216 672.770   4
   0  15  -3 1228.41 722.937   3
  15 -15  -3 283.376 690.094   1
   0  15   0 92768.0 2061.05   3
 -15   0   0 96779.9 2550.61   4
  15 -15   0 96590.1 2101.99   1
 -15   0   0 96552.9 2230.33   2
   0  15   3 781.752 721.141   3
 -15   0   3 1011.42 761.056   4
  15 -15   3 1336.77 810.709   1
 -15   0   3 430.602 710.908   2
  15 -15   6 67420.8 2498.60   1
 -15   0   6 71524.3 2473.40   4
 -15   0   6 65028.9 2394.16   2
   0  15   6 68556.5 2292.77   3
  15 -15   9 1456.15 1205.45   1
 -15   0   9 474.197 964.815   4
 -15   0   9-277.710 1019.89   2
   0  15   9 1310.88 1033.91   3
 -15   1  -7 36751.4 1385.56   4
 -14  -1  -7 33078.7 1371.31   4
 -14  -1  -4 47991.4 1760.16   2
 -15   1  -4 46658.7 1655.71   2
   1  14  -4 49329.3 1859.61   3
  -1  15  -4 48714.3 1930.39   3
 -15   1  -4 50388.4 1684.31   4
 -14  -1  -4 49164.9 1701.00   4
   1  14  -1 81263.1 1902.91   3
  -1  15  -1 80165.0 1957.59   3
 -15   1  -1 83492.9 2287.42   4
 -14  -1  -1 81628.6 2264.48   4
  15 -14  -1 79672.7 1940.75   1
 -15   1  -1 81762.8 1972.05   2
 -14  -1  -1 78412.6 1973.68   2
  14 -15  -1 79505.4 1840.60   1
 -15   1   2 44924.1 1688.86   2
  15 -14   2 39079.5 1544.66   1
  14 -15   2 42442.0 1628.11   1
 -15   1   2 44600.2 1836.80   4
 -14  -1   2 42533.8 1808.01   4
 -14  -1   2 38332.5 1594.16   2
   1  14   2 39454.1 1432.90   3
  -1  15   2 42974.3 1541.76   3
  14 -15   5 64182.9 2382.75   1
  15 -14   5 61943.6 2254.63   1
  -1  15   5 62646.2 2072.61   3
 -15   1   5 66246.7 2338.28   2
 -15   1   5 63882.3 2250.82   4
 -14  -1   5 67628.3 2306.71   4
 -14  -1   5 62990.0 2235.85   2
   1  14   5 66495.5 2143.44   3
  -1  15   8 18932.5 1514.00   3
 -15   1   8 19016.7 1681.04   2
  15 -14   8 20393.5 1721.07   1
 -15   1   8 21376.9 1597.66   4
  14 -15   8 20278.4 1796.83   1
 -14  -1   8 24683.4 1648.52   4
 -14  -1   8 20080.5 1642.04   2
   1  14   8 18234.3 1568.98   3
  14 -15  11 28730.9 2371.21   1
  15 -14  11 26729.2 2255.33   1
  -1  15  11 25592.9 1900.14   3
 -15   1  11 21360.2 1985.96   2
   1  14  11 23536.9 1945.46   3
 -14  -1  11 25632.6 1974.72   2
 -15   2  -8 3548.83 548.873   4
 -13  -2  -8 5361.17 746.315   4
  15 -13  -5 4955.38 768.994   3
 -15   2  -5 5369.01 897.865   2
 -13  -2  -5 5911.65 1067.05   2
   2  13  -5 4732.99 984.482   3
  -2  15  -5 5789.08 1095.58   3
  -2  15  -5 5549.43 754.700   2
 -15   2  -5 4941.82 730.729   4
 -13  -2  -5 4815.73 744.059   4
  15 -13  -2 11331.4 750.560   3
   2  13  -2 11778.7 873.406   3
  -2  15  -2 12909.8 1016.78   3
  15 -13  -2 11474.2 942.826   1
 -13  -2  -2 13289.5 1061.48   4
 -15   2  -2 12242.6 1011.08   4
  13 -15  -2 12138.4 840.039   1
  -2  15  -2 11162.7 826.325   2
 -15   2  -2 11237.3 834.993   2
 -13  -2  -2 11463.1 932.202   2
  -2  15   1 56488.2 1657.07   3
 -15   2   1 57278.2 1775.26   2
  13 -15   1 60765.2 1691.25   1
 -15   2   1 59768.8 2027.84   4
 -13  -2   1 53103.5 1919.81   4
   2  13   1 57600.8 1618.26   3
  15 -13   1 56930.1 1702.48   1
 -13  -2   1 56049.0 1761.78   2
   2  13   4 26587.1 1377.05   3
  13 -15   4 24548.7 1520.04   1
  15 -13   4 28223.7 1530.69   1
 -15   2   4 25898.5 1495.68   4
 -13  -2   4 25496.3 1456.79   4
  -2  15   4 23988.5 1318.94   3
 -15   2   4 23495.5 1424.76   2
 -13  -2   4 23545.0 1406.96   2
  15 -13   7 30346.8 1801.48   1
 -13  -2   7 30541.4 1670.21   4
 -15   2   7 31483.5 1752.27   4
 -15   2   7 30270.4 1867.63   2
 -13  -2   7 33949.7 1841.30   2
   2  13   7 28783.0 1775.49   3
  -2  15   7 28162.8 1635.39   3
  13 -15   7 30548.0 1977.92   1
  13 -15  10 2474.32 1398.94   1
 -15   2  10 992.718 1023.23   4
  15 -13  10 72.6816 1142.42   1
 -13  -2  10-845.125 1054.23   4
 -15   2  10-378.399 1117.96   2
 -13  -2  10 45.9881 1035.42   2
   2  13  10 1211.36 1172.81   3
  -2  15  10 280.527 1014.96   3
  -3  15  -6 18488.4 1112.01   2
 -15   3  -6 22162.6 1092.86   4
 -12  -3  -6 21825.4 1195.58   4
  15 -12  -6 19759.0 1221.88   3
 -15   3  -3 1525.51 559.675   2
  -3  15  -3 1044.09 512.419   2
 -12  -3  -3 1368.99 731.102   2
   3  12  -3 1616.03 672.225   3
  -3  15  -3 1822.59 796.293   3
  15 -12  -3 1258.45 719.028   1
  15 -12  -3 305.095 438.751   3
 -15   3  -3 1457.52 619.891   4
 -12  -3  -3 2022.13 705.794   4
  12 -15  -3 2076.23 614.975   1
 -12  -3  -3 1484.61 576.810   1
  12 -15   0 32503.0 1167.28   1
  -3  15   0 32975.5 1331.39   3
  15 -12   0 32660.7 1214.22   3
 -15   3   0 32893.2 1514.08   4
 -15   3   0 32992.1 1318.71   2
 -12  -3   0 33643.2 1546.92   4
   3  12   0 34219.5 1196.23   3
 -12  -3   0 29644.5 1315.46   2
  15 -12   0 34124.7 1337.18   1
  12 -15   3 26915.5 1471.42   1
 -15   3   3 27139.8 1489.72   4
  15 -12   3 25772.0 1339.77   1
 -12  -3   3 29411.5 1513.22   4
 -12  -3   3 26449.8 1379.32   2
 -15   3   3 27693.8 1500.23   2
   3  12   3 27594.4 1299.62   3
  -3  15   3 27572.3 1302.52   3
 -12  -3   6 6268.85 979.835   4
  12 -15   6 6274.05 1226.05   1
 -15   3   6 8176.38 1194.28   2
  15 -12   6 7478.04 1173.26   1
 -15   3   6 4457.76 938.262   4
   3  12   6 6830.23 1086.39   3
 -12  -3   6 5561.37 992.335   2
  -3  15   6 7125.41 1016.47   3
  15 -12   9 1225.28 1074.35   1
  12 -15   9 545.468 1195.69   1
 -15   3   9 748.196 1070.98   2
 -15   3   9 1864.28 1000.31   4
 -12  -3   9 429.753 943.403   4
 -12  -3   9 188.637 972.626   2
   3  12   9-731.520 1087.45   3
  -3  15   9 867.023 970.360   3
 -15   4  -7 42885.8 1251.44   4
 -11  -4  -7 39201.2 1440.95   4
 -15   4  -4 62290.2 1599.90   2
  -4  15  -4 60485.7 2185.00   3
 -11  -4  -4 60239.8 1721.80   1
 -11  -4  -4 60224.7 2064.54   2
   4  11  -4 63542.4 1809.58   3
 -15   4  -4 58009.7 1686.78   4
  15 -11  -4 59637.2 1456.69   3
 -11  -4  -4 63664.6 1886.40   4
  -4  15  -4 62807.6 1564.55   2
  15 -11  -1 24818.2 1216.20   1
   4  11  -1 27968.9 1050.88   3
  15 -11  -1 25663.1 988.276   3
 -11  -4  -1 25823.8 1094.41   1
  -4  15  -1 24642.2 1215.06   3
 -15   4  -1 24907.8 1305.84   4
 -11  -4  -1 29191.7 1429.57   4
  11 -15  -1 27204.5 1015.79   1
 -15   4  -1 24050.9 1064.33   2
 -11  -4  -1 27235.9 1272.38   2
  -4  15  -1 27032.9 1193.26   2
  -4  15   2 33915.6 1333.79   3
  11 -15   2 34888.2 1485.89   1
   4  11   2 31704.1 1266.96   3
 -15   4   2 35371.9 1593.74   4
 -11  -4   2 35624.0 1618.41   4
  15 -11   2 33941.6 1414.23   1
 -15   4   2 33848.3 1509.82   2
 -11  -4   2 35326.8 1452.20   2
  11 -15   5 107272. 2995.97   1
  15 -11   5 110209. 2765.14   1
 -15   4   5 106740. 2951.55   2
 -11  -4   5 105031. 2661.51   4
 -11  -4   5 105308. 2630.56   2
 -15   4   5 107982. 2785.00   4
   4  11   5 110281. 2777.04   3
  -4  15   5 105184. 2477.45   3
   4  11   8 17941.9 696.091   1
  15 -11   8 23180.5 1688.28   1
 -11  -4   8 21315.8 1519.15   2
  11 -15   8 22615.5 1958.79   1
 -15   4   8 26583.2 1667.05   4
 -15   4   8 22481.6 1818.04   2
 -11  -4   8 23675.4 1562.86   4
 -11  -4   8 15166.5 715.721   3
   4  11   8 22495.9 1707.38   3
  -4  15   8 24147.8 1576.10   3
  15 -11  11 11413.6 1589.22   1
 -11  -4  11 11573.7 2007.76   1
 -15   4  11 13859.9 1687.47   2
 -11  -4  11 13500.4 1539.32   2
   4  11  11 13105.0 1662.41   3
  11 -15  11 16340.7 2077.18   1
  -4  15  11 12780.8 1494.90   3
 -15   5  -8 4373.96 411.571   4
 -15   5  -5 52492.9 1533.36   2
 -10  -5  -5 53618.2 2160.14   2
 -15   5  -5 51518.7 1522.94   4
  -5  15  -5 49783.0 1362.40   2
 -10  -5  -5 54204.6 1750.71   4
  15 -10  -5 50711.4 1439.52   3
 -10  -5  -5 49676.9 1700.71   1
  15 -10  -2 50119.1 1180.76   3
 -10  -5  -2 47507.7 1685.96   2
   5  10  -2 47862.1 1286.83   3
  -5  15  -2 48602.0 1729.34   3
 -10  -5  -2 49491.6 1348.85   1
 -15   5  -2 50825.3 1650.25   4
 -10  -5  -2 50555.9 1752.60   4
 -15   5  -2 47824.7 1313.88   2
  15 -10  -2 49398.4 1710.92   1
  -5  15  -2 51348.7 1425.25   2
  10 -15  -2 49662.6 1216.22   1
  -5  15   1 120260. 2286.22   3
 -10  -5   1 129648. 2131.03   3
  15 -10   1 131972. 2503.69   3
 -15   5   1 130599. 2803.40   4
  10 -15   1 119996. 2282.51   1
 -15   5   1 126392. 2495.60   2
 -10  -5   1 135275. 2901.53   4
 -10  -5   1 110290. 2336.70   2
  15 -10   1 123734. 2368.69   1
   5  10   1 128684. 2188.35   3
  -5  15   4 48278.8 1659.20   3
 -10  -5   4 47304.3 1721.44   2
 -15   5   4 49437.0 1907.29   4
  15 -10   4 47009.5 1744.67   1
 -15   5   4 47857.4 1981.17   2
 -10  -5   4 49357.6 1852.10   4
   5  10   4 49091.7 1832.31   3
  10 -15   4 51991.7 2113.31   1
   5  10   7 5513.80 531.843   1
 -15   5   7 5757.24 360.910   3
 -10  -5   7 5291.96 449.625   3
 -10  -5   7 6033.42 1025.02   2
  15 -10   7 7746.48 1186.41   1
 -15   5   7 9653.48 1183.24   4
 -10  -5   7 5725.37 969.582   4
 -15   5   7 6498.85 1224.25   2
  10 -15   7 7589.65 1468.25   1
   5  10   7 8669.36 1252.18   3
  -5  15   7 8120.73 1082.15   3
  10 -15  10 5041.40 1606.79   1
 -15   5  10 7756.86 1281.31   4
  -5  15  10 6736.98 1027.62   4
  15 -10  10 5115.34 1317.74   1
 -10  -5  10 5286.37 1634.34   1
 -10  -5  10 7776.60 1179.92   4
 -10  -5  10 7061.27 1176.13   2
 -15   5  10 10599.3 1629.45   2
   5  10  10 5573.07 1323.16   3
  -5  15  10 5518.04 1173.91   3
 -15   6  -6 15906.3 875.767   4
  -6  15  -6 13452.7 772.277   2
  -6  15  -6 14351.5 1010.19   4
  -9  -6  -6 15037.9 1164.93   1
  -9  -6  -6 15343.2 1028.89   4
  15  -9  -3 9598.17 1051.91   1
  -9  -6  -3 11071.0 744.679   1
  -9  -6  -3 10247.9 1096.78   2
   6   9  -3 9222.20 700.371   3
  -6  15  -3 8653.18 1042.88   3
  -9  -6  -3 9329.84 914.039   4
 -15   6  -3 9045.78 834.873   4
 -15   6  -3 9615.95 647.445   2
  -6  15  -3 10162.6 679.137   2
  15  -9  -3 9790.38 582.939   3
   9 -15  -3 10549.0 626.543   1
  15  -9   0 21979.2 1292.63   2
  -6  15   0 22361.4 1184.22   3
   6   9   0 22840.7 937.790   3
  -6  15   0 20794.5 1170.33   2
  15  -9   0 22982.9 1036.84   3
   9 -15   0 23513.9 1006.68   1
  15  -9   0 22257.0 1184.66   1
  -9  -6   0 21977.7 1096.60   1
  -6  15   0 21787.4 1275.10   1
 -15   6   0 24502.7 1320.88   4
  -9  -6   0 24029.3 1338.71   4
 -15   6   0 19950.3 1063.68   2
  -9  -6   0 23130.7 1163.55   3
  -9  -6   0 22437.1 1211.59   2
  15  -9   3 13740.7 805.761   2
  -6  15   3 12810.8 961.680   3
   9 -15   3 12747.8 1209.92   1
 -15   6   3 15086.2 1247.30   2
  15  -9   3 14197.4 1046.89   1
  -9  -6   3 16269.1 1175.76   4
  -9  -6   3 14601.7 640.414   3
 -15   6   3 15362.4 1210.80   4
  -9  -6   3 13630.3 1015.64   2
   6   9   3 13988.6 1026.16   3
 -15   6   6 18374.1 584.807   3
 -15   6   6 20468.2 1585.21   2
  15  -9   6 21259.2 1447.28   1
  -9  -6   6 23649.0 1401.13   2
   6   9   6 19071.3 836.575   1
   6   9   6 21359.7 1578.22   3
  -9  -6   6 20064.2 691.852   3
  -9  -6   6 21673.5 1378.18   4
 -15   6   6 22893.8 1435.44   4
   9 -15   6 20210.2 1740.07   1
  -6  15   6 20364.6 1294.54   3
   9 -15   9 6425.85 1520.93   1
 -15   6   9 4937.68 1102.75   4
   6   9   9 5430.03 1255.50   3
  15  -9   9 5054.18 1197.64   1
 -15   6   9 4947.94 1281.27   2
  -9  -6   9 4899.72 1044.61   4
   6   9   9 5414.56 714.988   1
  -9  -6   9 5179.19 845.974   3
  -9  -6   9 5317.10 1070.02   2
  -6  15   9 4565.57 1082.09   3
  -7  15  -7 24118.3 1152.02   4
 -15   7  -7 26491.9 917.629   4
  -8  -7  -4 54736.6 1438.80   1
   7   8  -4 52782.0 1393.40   3
  -8  -7  -4 52524.5 2118.31   2
  -7  15  -4 51864.9 2138.94   3
  -7  15  -4 52979.1 1183.16   2
 -15   7  -4 51793.5 1546.77   4
  -7  15  -4 49893.6 1683.04   4
  -8  -7  -4 53204.3 1785.26   4
  15  -8  -4 49240.0 1102.61   3
 -15   7  -4 55295.1 1229.26   2
  -8  -7  -1 126741. 2607.68   2
   7   8  -1 122601. 1774.61   3
  15  -8  -1 127071. 1842.30   3
  -7  15  -1 123917. 2535.81   3
  15  -8  -1 130914. 2928.67   2
 -15   7  -1 126349. 2136.19   2
  -7  15  -1 129294. 2902.87   1
 -15   7  -1 128008. 2622.33   4
   8 -15  -1 125364. 1771.69   1
  -8  -7  -1 131788. 2760.14   4
  -7  15  -1 125212. 2291.80   2
  -8  -7  -1 121795. 2037.51   1
  -8  -7  -1 129881. 2681.54   3
  15  -8  -1 122328. 2530.87   1
  -7  15   2 58823.3 1673.01   3
  15  -8   2 58230.9 1951.88   3
  15  -8   2 60818.0 1668.21   2
 -15   7   2 60325.3 2018.35   4
  -7  15   2 56730.2 1340.25   1
 -15   7   2 58627.1 1944.15   2
  -8  -7   2 58705.8 1941.40   4
  15  -8   2 58937.7 1733.82   1
  -8  -7   2 57163.0 1742.22   2
  -8  -7   2 57312.2 1315.01   3
   8 -15   2 61691.9 1979.13   1
   7   8   2 59804.6 1697.93   3
  15  -8   5 37686.5 1628.00   1
 -15   7   5 34556.1 839.734   3
   7   8   5 39647.9 1171.81   1
  15  -8   5 29388.8 840.489   2
 -15   7   5 39814.3 1744.61   4
  -8  -7   5 35608.0 1615.34   4
 -15   7   5 40812.2 1980.97   2
   7   8   5 38387.2 1827.15   3
  -8  -7   5 38458.6 1576.52   2
   8 -15   5 34346.1 2002.67   1
  -8  -7   5 37564.2 925.992   3
  -7  15   5 37501.5 1521.76   3
 -15   7   8 17531.1 825.873   3
  15  -8   8 15748.6 1429.71   1
 -15   7   8 17582.3 1424.65   4
 -15   7   8 15297.9 1584.62   2
  -8  -7   8 16417.4 1315.44   2
  -8  -7   8 17716.2 1347.16   4
  -7  15   8 12395.2 691.144   1
   8 -15   8 19895.3 2021.71   1
   7   8   8 15850.1 966.411   1
   7   8   8 17498.7 1629.68   3
  -7  15   8 17205.5 1362.71   3
  -8  -7  11 12614.2 2218.78   1
  15  -8  11 15124.1 1692.57   1
  -7  15  11 18088.6 2284.22   2
   7   8  11 17374.9 1880.73   3
 -15   7  11 17101.5 1892.21   2
  -8  -7  11 15898.1 1495.42   2
   8 -15  11 18726.8 2300.28   1
  -7  15  11 15677.1 1546.23   3
  -7  -8  -5 44010.5 1638.83   4
 -15   8  -5 42530.2 1362.13   4
  -8  15  -5 39367.6 1494.23   4
  -7  -8  -5 41314.7 1324.58   1
 -15   8  -2 61064.5 1797.43   4
  -8  15  -2 61700.4 1480.33   2
  15  -7  -2 63463.1 1094.73   3
   8   7  -2 60176.2 1206.24   3
  -7  -8  -2 58202.3 1961.07   2
   7 -15  -2 64607.4 1090.25   1
  -8  15  -2 59276.1 2009.79   3
  -8  15  -2 57981.8 2285.89   1
  15  -7  -2 60719.2 1995.95   1
  -7  -8  -2 66256.3 2028.64   4
 -15   8  -2 59279.4 1324.93   2
  -7  -8  -2 58649.0 1289.19   1
  -8  15   1 124860. 2381.87   3
  15  -7   1 126005. 2471.35   1
  -7  -8   1 128525. 2157.76   3
  15  -7   1 133923. 2589.13   2
 -15   8   1 129063. 2794.06   4
  -8  15   1 118361. 2775.54   2
  -7  -8   1 120349. 2544.66   1
  15  -7   1 130410. 2752.05   4
  15  -7   1 131486. 2571.06   3
 -15   8   1 119414. 2525.19   2
   8   7   1 130940. 2199.73   3
  -8  15   1 128564. 2344.26   1
  -7  -8   1 130350. 2777.12   4
   7 -15   1 129718. 2482.50   1
  -7  -8   1 119760. 2470.43   2
 -15   8   4 48631.1 1100.49   3
   8   7   4 48527.9 1869.44   3
   8   7   4 48101.0 1364.86   1
 -15   8   4 50303.7 1947.90   4
 -15   8   4 51844.0 2117.06   2
  15  -7   4 48625.7 1728.78   1
  -7  -8   4 50489.7 1840.54   4
  15  -7   4 47321.6 1259.43   2
   7 -15   4 54406.7 2238.94   1
  -7  -8   4 48423.1 1681.38   2
  -8  15   4 51646.8 1637.23   3
  -7  -8   4 47556.6 1088.72   3
 -15   8   7 29647.5 991.015   3
  -7  -8   7 26310.3 1036.22   3
  -7  -8   7 29255.3 1523.81   2
  15  -7   7 30748.3 1738.96   1
 -15   8   7 30352.4 1715.92   4
  -8  15   7 21346.0 924.670   1
 -15   8   7 28432.4 1920.01   2
   8   7   7 25407.3 1402.53   4
  -7  -8   7 28323.3 1502.42   4
   7 -15   7 29808.7 2195.14   1
  -8  15   7 22609.1 721.119   1
   8   7   7 29121.3 1860.49   3
   8   7   7 29090.9 1170.05   1
  -8  15   7 27878.9 1484.38   3
  -8  15  10 25282.8 1539.00   4
   7 -15  10 28304.1 2469.85   1
  15  -7  10 23515.6 1791.24   1
  -7  -8  10 24810.0 1538.93   4
  -7  -8  10 27540.4 1676.22   2
 -15   8  10 31382.1 1901.44   4
 -15   8  10 27006.4 2062.75   2
  -7  -8  10 25323.1 2562.43   1
   8   7  10 29457.5 2098.84   3
  -8  15  10 26069.6 1692.90   3
  -6  -9  -6 18543.5 1076.28   1
 -15   9  -6 20338.1 953.793   4
  -9  15  -6 19691.8 1112.57   4
 -15   9  -3 16123.1 641.800   2
  -6  -9  -3 16904.5 1352.09   2
  -9  15  -3 16422.0 1334.95   3
  -6  -9  -3 15763.4 699.947   1
  -6  -9  -3 16243.3 1157.62   4
  -9  15  -3 15444.9 1079.32   4
   9   6  -3 15863.9 659.770   3
 -15   9  -3 15124.4 970.165   4
  15  -6  -3 13914.9 470.845   3
  -9  15  -3 17451.4 739.555   2
  15  -6   0 23934.5 1340.27   2
   6 -15   0 23734.4 1051.66   1
  -6  -9   0 23091.6 1283.39   2
  -9  15   0 22238.8 1240.09   3
  15  -6   0 25977.9 1086.70   3
  -9  15   0 20520.4 1208.02   2
 -15   9   0 24710.7 1367.38   4
 -15   9   0 21923.5 1113.85   2
  15  -6   0 22554.5 1242.47   1
  -9  15   0 23505.3 1300.62   1
  -6  -9   0 23877.5 1136.49   3
  -6  -9   0 27324.5 1437.56   4
  -6  -9   0 21763.1 1077.52   1
   9   6   0 24759.0 931.514   3
  -9  15   3 10820.9 886.745   3
   9   6   3 9472.61 800.172   1
 -15   9   3 9847.21 684.388   3
 -15   9   3 9545.27 1090.46   2
  15  -6   3 10407.1 945.924   4
 -15   9   3 10948.0 1082.95   4
  15  -6   3 9928.71 794.077   2
  -6  -9   3 10314.3 1055.91   4
   6 -15   3 10643.1 1190.78   1
  15  -6   3 11037.5 915.691   1
   9   6   3 9951.79 1030.26   3
  -6  -9   3 10365.3 904.212   2
  -6  -9   3 9213.14 612.651   3
  -9  15   3 11048.4 687.656   1
   9   6   6 19380.8 1012.35   1
 -15   9   6 18977.0 852.005   3
  -6  -9   6 15634.9 848.497   3
   6 -15   6 15403.7 867.836   2
 -15   9   6 18986.8 1397.13   4
  15  -6   6 16267.3 777.831   2
  -9  15   6 15144.8 651.415   1
  -6  -9   6 19321.6 1317.22   4
   6 -15   6 20343.2 1898.18   1
 -15   9   6 16548.3 1556.96   2
  -6  -9   6 17353.9 1175.88   2
  15  -6   6 19461.4 1345.55   1
   9   6   6 17726.6 1535.51   3
   9   6   6 17780.1 1192.94   4
  -9  15   6 15735.9 1135.36   3
   9   6   9 1761.09 1138.28   3
  -9  15   9 1384.68 849.681   3
   9   6   9 716.326 750.778   1
  -9  15   9 657.523 836.893   4
 -15   9   9 1255.18 904.930   4
  -6  -9   9-89.2488 1613.10   1
 -15   9   9 1023.14 1179.76   2
  15  -6   9 1573.59 1059.95   1
 -15   9   9 651.385 573.268   3
  -6  -9   9 1045.21 881.570   4
  -6  -9   9 1287.55 851.777   2
   6 -15   9 1904.27 1440.08   1
 -15  10  -7 10149.5 671.248   4
 -10  15  -7 8682.68 798.483   4
 -15  10  -4 50172.2 1578.49   4
  -5 -10  -4 52401.1 1844.39   4
 -10  15  -4 49039.9 1671.32   4
 -10  15  -4 50624.5 907.766   2
  -5 -10  -4 48596.4 1075.49   1
 -15  10  -4 46276.2 847.528   2
  -5 -10  -1 128667. 2003.94   1
  -5 -10  -1 116493. 2699.47   2
 -15  10  -1 134084. 2199.47   2
  15  -5  -1 143382. 1885.45   3
 -10  15  -1 137530. 2823.60   3
 -15  10  -1 146978. 2875.99   4
 -10  15  -1 132753. 2441.10   2
  15  -5  -1 129665. 2767.03   1
 -10  15  -1 134538. 2972.89   1
  -5 -10  -1 141196. 2964.25   4
  -5 -10  -1 131950. 2627.10   3
  10   5  -1 139023. 1683.90   3
   5 -15  -1 141392. 1797.08   1
  15  -5   2 48412.4 1610.63   1
 -10  15   2 47263.2 1524.06   3
 -15  10   2 47090.4 1391.94   3
   5 -15   2 47786.8 1722.79   2
 -15  10   2 48096.9 1852.76   4
 -15  10   2 49021.8 1869.85   2
  10   5   2 47186.1 1599.31   1
   5 -15   2 50950.1 1982.58   1
  10   5   2 51993.5 1685.10   3
  15  -5   2 47909.7 1706.44   4
  -5 -10   2 47444.0 1624.67   2
  -5 -10   2 48448.3 1866.14   4
  15  -5   2 51544.0 1601.01   2
 -10  15   2 50442.0 1414.16   1
  -5 -10   2 47659.5 1278.16   3
 -15  10   5 53277.4 1343.06   3
  10   5   5 51793.5 1509.57   1
  10   5   5 50501.4 1787.89   4
  -5 -10   5 51642.7 1730.25   2
 -15  10   5 54954.1 2067.07   4
 -10  15   5 49710.3 1131.54   1
  15  -5   5 52829.8 1832.92   1
   5 -15   5 52265.7 2425.37   1
  15  -5   5 52276.4 1384.97   2
  -5 -10   5 54600.3 1957.43   4
  10   5   5 54300.2 2178.80   3
 -15  10   5 55795.0 2342.59   2
  -5 -10   5 51303.4 1331.65   3
 -10  15   5 55068.0 1714.87   3
   5 -15   5 51420.0 1494.57   2
 -15  10   8 6267.87 717.620   3
   5 -15   8 5434.28 672.038   2
 -10  15   8 5595.38 1006.94   1
  -5 -10   8 6866.02 1070.38   4
 -15  10   8 8409.86 1439.98   2
  15  -5   8 7797.92 1117.67   1
  -5 -10   8 7914.59 1812.67   1
 -15  10   8 5113.27 1006.27   4
  -5 -10   8 5589.38 931.847   2
 -10  15   8 6654.56 1086.06   4
   5 -15   8 6073.84 1588.97   1
  10   5   8 7637.61 944.718   1
  10   5   8 4563.28 1221.31   3
 -10  15   8 6697.88 1006.71   3
  15  -5  11 7184.71 1319.08   1
  15  -5  11 10114.6 2136.68   3
 -10  15  11 11457.8 1983.03   2
 -15  10  11 10216.8 1761.77   2
  -5 -10  11 11723.2 2293.89   1
  -5 -10  11 9259.74 1142.84   2
  10   5  11 10973.0 1678.27   3
   5 -15  11 9890.04 1942.07   1
 -10  15  11 7335.64 1207.96   3
 -15  11  -8 17775.5 575.895   4
 -11  15  -8 19749.1 919.428   4
 -11  15  -5 96354.8 2190.50   4
 -15  11  -5 112533. 2213.29   4
  11   4  -2 30435.6 693.022   3
  15  -4  -2 29945.9 629.005   3
  15  -4  -2 28574.1 1575.91   1
 -11  15  -2 30838.8 1096.59   2
  -4 -11  -2 29675.0 854.704   1
  -4 -11  -2 27482.6 1625.41   2
 -11  15  -2 30806.2 1641.55   3
   4 -15  -2 29974.4 637.019   1
 -15  11  -2 30742.8 1389.00   4
 -15  11  -2 29311.0 976.105   2
  -4 -11  -2 27849.9 1463.24   4
 -11  15   1 23218.2 1202.69   3
  11   4   1 21934.2 1319.63   1
  -4 -11   1 24672.4 1053.37   3
 -15  11   1 25280.9 1231.88   3
   4 -15   1 24196.7 1398.74   2
 -15  11   1 24502.9 1386.06   2
   4 -15   1 22600.2 1333.43   1
  15  -4   1 23360.5 1253.31   1
  15  -4   1 26076.9 1303.98   2
  -4 -11   1 23038.9 1269.25   2
 -15  11   1 27257.7 1444.08   4
  11   4   1 25711.9 1154.55   3
 -11  15   1 22286.5 1146.31   1
  -4 -11   1 26609.8 1483.43   4
  -4 -11   4 53832.3 1383.30   3
  15  -4   4 57316.5 1570.71   2
 -15  11   4 56081.3 1402.92   3
  15  -4   4 58476.7 1825.44   1
 -11  15   4 55426.6 1308.11   1
  11   4   4 56681.0 1628.82   1
  15  -4   4 59715.3 1882.83   4
 -15  11   4 61068.9 2142.74   4
 -15  11   4 57175.0 2312.42   2
 -11  15   4 54136.7 1653.70   3
   4 -15   4 64389.5 2557.35   1
  -4 -11   4 62269.2 2076.85   4
  11   4   4 54219.2 2095.01   3
   4 -15   4 56618.4 1670.45   2
  -4 -11   4 56298.7 1750.46   2
 -15  11   7 48260.3 1439.53   3
 -11  15   7 46145.0 2051.45   4
  15  -4   7 38261.6 1244.59   2
  -4 -11   7 46296.4 2880.11   1
 -15  11   7 48798.4 2075.72   4
  11   4   7 44419.8 1688.84   4
  15  -4   7 46492.6 1875.22   1
  11   4   7 49790.4 2332.26   3
   4 -15   7 51757.8 2803.70   1
  -4 -11   7 46657.8 1916.61   4
 -15  11   7 44505.3 2341.45   2
  11   4   7 48567.4 1668.38   1
  -4 -11   7 45662.8 1756.87   2
 -11  15   7 36501.4 1198.13   1
 -11  15   7 46924.5 1736.26   3
   4 -15   7 42446.8 1385.92   2
 -11  15  10 32474.2 2591.10   2
  -4 -11  10 31830.2 2975.97   1
  15  -4  10 29348.9 1805.66   1
 -15  11  10 28304.5 1878.42   4
 -15  11  10 28805.0 2220.74   2
 -11  15  10 26944.8 1681.31   4
  11   4  10 26644.7 2132.75   3
  -4 -11  10 25419.3 1564.34   2
  11   4  10 26570.7 1562.41   1
 -11  15  10 26701.8 1636.72   3
 -15  11  10 27053.2 1315.44   3
 -12  15  -6 4784.24 706.450   4
 -15  12  -6 5482.37 681.201   4
 -12  15  -3 32708.1 910.309   2
 -15  12  -3 27768.5 1291.67   4
 -12  15  -3 29393.1 1783.37   3
  -3 -12  -3 27348.6 642.903   1
 -15  12  -3 30319.0 795.568   2
  -3 -12  -3 28486.0 1532.51   4
  15  -3   0 37403.7 1601.21   1
  -3 -12   0 39838.9 1686.87   2
 -12  15   0 39874.0 1608.80   3
 -15  12   0 40498.1 1629.62   3
 -15  12   0 40211.3 1517.41   2
  -3 -12   0 32010.5 1573.53   4
   3 -15   0 39614.1 1439.22   1
 -15  12   0 38858.0 1619.15   4
 -12  15   0 33581.7 1472.66   1
  12   3   0 38633.8 1166.35   3
  -3 -12   0 36388.8 1371.92   3
  -3 -12   3 1194.72 497.758   3
  -3 -12   3 916.284 655.139   2
 -12  15   3 966.122 624.498   3
 -15  12   3 1166.20 583.071   3
   3 -15   3 1059.03 681.225   2
 -15  12   3 1561.55 926.452   2
  15  -3   3 1394.85 584.274   2
 -12  15   3 200.659 505.482   1
  15  -3   3 629.267 611.348   4
  15  -3   3 1282.93 661.439   1
   3 -15   3 1180.84 945.292   1
  -3 -12   3 1499.61 790.259   4
  12   3   3 214.949 659.981   1
  12   3   3 1882.17 773.094   3
 -15  12   3 1630.29 798.021   4
   3 -15   6 21047.2 1122.74   2
 -12  15   6 22721.8 1255.00   3
 -15  12   6 24699.3 1127.63   3
 -12  15   6 25532.7 1610.85   4
  12   3   6 20497.8 1267.04   4
   3 -15   6 23587.0 2031.67   1
  15  -3   6 24115.1 1300.13   4
  -3 -12   6 26267.9 2335.65   1
 -15  12   6 22512.6 1836.61   2
  15  -3   6 24347.4 1392.22   1
 -15  12   6 23056.5 1537.31   4
  -3 -12   6 24576.8 1440.13   4
  15  -3   6 19045.5 1042.03   2
  12   3   6 23422.4 1718.16   3
 -12  15   6 18862.3 944.501   1
  -3 -12   6 22306.5 1254.98   2
  12   3   6 23670.9 1281.68   1
 -12  15   9 1240.24 827.383   3
 -15  12   9 923.665 702.694   3
  12   3   9-405.134 829.890   1
  -3 -12   9 409.731 736.779   2
 -12  15   9 1126.88 1014.18   1
  -3 -12   9 1286.25 1823.08   1
 -15  12   9 1518.66 982.429   4
 -12  15   9 376.317 896.247   4
 -12  15   9 2707.32 1480.25   2
 -15  12   9 3018.38 1419.75   2
   3 -15   9 1548.23 678.408   2
  -3 -12   9 178.988 791.192   4
   3 -15   9 2329.50 1740.65   1
  15  -3   9 919.641 918.303   1
  12   3   9 357.638 1205.07   3
 -13  15  -7 30044.0 1201.70   4
 -15  13  -7 28776.3 1106.98   4
 -13  15  -7 27283.2 1173.49   4
 -15  13  -4 28076.1 1300.88   4
  -2 -13  -1 59656.2 2161.23   2
 -13  15  -1 62192.2 2134.78   3
  15  -2  -1 64554.6 1371.11   3
 -15  13  -1 59660.7 2116.80   3
  15  -2  -1 57842.4 2089.82   1
 -15  13  -1 59617.6 1953.29   4
 -15  13  -1 60301.3 1661.44   2
   2 -15  -1 63899.3 1488.48   1
  -2 -13  -1 62098.3 2130.40   4
  15  -2  -1 67534.3 1398.48   3
  13   2  -1 64411.9 1162.96   3
   2 -15   2 12110.0 1078.80   2
 -13  15   2 11260.9 944.490   3
   2 -15   2 13613.3 1285.51   1
 -15  13   2 11058.1 909.433   3
 -15  13   2 9513.83 1134.88   2
 -15  13   2 10239.0 1047.01   4
  15  -2   2 11873.1 1027.27   1
  -2 -13   2 10842.1 809.332   3
  13   2   2 12252.3 1052.25   3
 -13  15   2 10572.2 846.160   1
  -2 -13   2 11210.6 1027.87   2
  15  -2   2 11474.1 954.436   2
  -2 -13   2 13201.6 1152.76   4
  13   2   2 11357.5 999.336   1
   2 -15   5 5806.74 786.072   2
 -13  15   5 7185.23 869.520   3
 -15  13   5 4975.34 697.763   3
   2 -15   5 9033.58 1612.75   1
  -2 -13   5 9122.11 1678.70   1
 -15  13   5 6311.79 983.436   4
  15  -2   5 6486.69 898.015   4
 -15  13   5 5970.39 1237.02   2
 -13  15   5 5703.16 663.861   1
  -2 -13   5 6101.88 967.070   4
  15  -2   5 5431.32 760.832   2
  13   2   5 3844.75 789.244   1
  13   2   5 6215.75 1149.58   3
  15  -2   5 6688.12 911.540   1
  -2 -13   5 5556.35 792.252   2
 -15  13   8 6831.68 858.729   3
   2 -15   8 6750.73 1732.25   1
  15  -2   8 7518.37 1119.16   1
   2 -15   8 4967.70 774.673   2
 -13  15   8 6481.29 1130.80   4
 -15  13   8 7750.11 1482.38   2
 -15  13   8 6781.91 1103.55   4
  -2 -13   8 4930.71 1794.08   1
  13   2   8 6817.90 1021.90   1
  -2 -13   8 7216.90 1061.82   4
 -13  15   8 7121.34 1557.64   2
  15  -2   8 5948.41 1402.23   3
  13   2   8 5944.16 1375.03   3
  -2 -13   8 5911.90 899.402   2
 -13  15   8 6553.86 962.066   3
 -13  15  11 2912.66 981.424   3
  13   2  11 5015.13 1164.35   1
 -15  13  11 3432.18 1475.35   2
 -13  15  11 4121.89 1689.73   2
  -2 -13  11 4848.64 2083.31   1
  15  -2  11 6359.71 1813.03   3
   2 -15  11 6805.58 2233.52   1
  13   2  11 3242.34 1492.19   3
  15  -2  11 2715.66 1117.36   1
 -15  13  11 3488.28 1278.33   1
 -14  15  -8 14320.4 792.344   4
 -15  14  -8 13520.0 706.451   4
 -15  14  -5 55277.1 1708.70   4
  14   1  -2 37857.2 604.968   3
  15  -1  -2 37803.0 635.809   3
  -1 -14  -2 39047.6 2020.37   2
 -15  14  -2 46752.2 1764.69   4
 -14  15  -2 45330.8 2026.45   3
 -15  14  -2 38324.2 1887.05   3
   1 -15  -2 37902.6 870.240   1
   1 -15  -2 41657.5 861.744   1
 -14  15  -2 46977.2 1384.99   2
  -1 -14  -2 43052.3 917.238   1
  -1 -14  -2 48284.8 1988.78   4
 -15  14  -2 43818.1 1271.10   2
  15  -1  -2 35958.0 573.278   3
  -1 -14  -2 37564.0 1111.28   1
  -1 -14   1 79460.2 2280.83   2
 -14  15   1 71374.2 1935.46   1
   1 -15   1 77087.1 2292.89   2
 -14  15   1 75859.7 2074.01   3
  15  -1   1 80293.0 2238.68   1
 -15  14   1 82514.4 2131.97   3
   1 -15   1 75211.1 2294.35   1
 -15  14   1 76100.9 2237.34   2
  14   1   1 77552.4 2214.06   1
 -15  14   1 78503.3 2343.96   4
  -1 -14   1 81873.1 2439.22   1
  14   1   1 81485.9 2017.59   3
   1 -15   1 82877.1 2473.35   4
  -1 -14   1 77017.7 2360.70   4
   1 -15   4 50454.2 1705.32   2
 -14  15   4 49827.8 1597.80   3
 -15  14   4 46988.6 1497.32   3
  -1 -14   4 49170.8 2526.80   1
   1 -15   4 48508.2 2545.09   1
  14   1   4 48456.1 1711.68   1
  15  -1   4 45848.0 1670.02   1
 -14  15   4 49679.1 2051.81   4
 -15  14   4 49560.8 1980.53   4
 -15  14   4 48259.8 2242.45   2
  -1 -14   4 48014.4 1922.65   4
 -14  15   4 46172.0 1424.66   1
   1 -15   4 51840.2 1999.64   4
  14   1   4 48993.4 2108.94   3
  -1 -14   4 50983.6 1744.09   2
 -15  14   7 37721.9 1476.69   3
 -15  14   7 39584.8 1984.51   4
 -15  14   7 36749.8 2306.98   2
  -1 -14   7 40751.5 2840.93   1
   1 -15   7 31240.4 1368.77   2
   1 -15   7 39485.9 2711.85   1
  -1 -14   7 39146.7 1800.69   4
 -14  15   7 40448.2 1978.25   4
  15  -1   7 39245.8 1737.75   1
  15  -1   7 36604.9 2270.91   3
  14   1   7 36530.7 1660.97   1
  14   1   7 37333.9 2258.71   3
 -14  15   7 39355.7 2413.71   2
 -14  15   7 37355.0 1525.82   3
  -1 -14   7 34555.9 1507.77   2
 -15  14  10 5407.45 948.170   3
  14   1  10 4720.64 1118.97   1
 -14  15  10 7477.62 1806.77   2
 -15  14  10 6234.93 1171.80   4
 -14  15  10 4242.93 1040.88   4
 -15  14  10 4778.27 1593.30   2
   1 -15  10 9588.81 2183.34   1
  15  -1  10 5638.68 1170.01   1
  -1 -14  10 5413.71 1857.79   1
  15  -1  10 8176.43 1848.98   3
  14   1  10 5509.38 1614.68   3
  -1 -14  10 4591.84 957.578   2
 -14  15  10 7560.79 1069.21   3
 -15  15  -6 72274.1 1910.74   4
 -15  15  -3 483.864 399.554   2
   0 -15   0 105034. 2430.47   1
   0 -15   0 95197.8 2699.68   2
 -15  15   0 99796.7 2557.88   3
 -15  15   0 92655.4 2323.53   2
   0 -15   0 105383. 2841.23   4
  15   0   0 106259. 2020.72   3
  15   0   0 100110. 2663.07   1
  15   0   3-239.400 709.250   1
 -15  15   3-450.429 797.313   4
 -15  15   3 287.547 648.003   3
   0 -15   3 422.749 679.487   2
 -15  15   3 833.928 995.593   2
   0 -15   3 1829.83 1055.68   1
   0 -15   3 648.011 792.746   4
  15   0   3 125.895 809.861   3
 -15  15   3 1256.94 600.744   1
 -15  15   6 31391.5 1358.27   3
 -15  15   6 32568.6 1797.71   4
   0 -15   6 33210.9 2496.55   1
  15   0   6 31813.9 2057.13   3
 -15  15   6 30941.9 2152.84   2
   0 -15   6 33049.1 1712.23   4
  15   0   6 30774.8 1535.00   1
   0 -15   6 28966.3 1394.22   2
   0 -15   9 1473.83 778.242   2
 -15  15   9-578.008 778.153   3
  15   0   9 175.631 906.337   1
 -15  15   9 1736.09 1315.60   2
 -15  15   9-484.307 971.955   4
   0 -15   9 27.7275 1783.05   1
  15   0   9 711.258 1435.21   3
 -16   0  -7 465.799 686.735   4
 -16   0  -4 61959.6 2008.95   2
   0  16  -4 66931.6 2255.96   3
  16 -16  -4 59141.9 1996.01   1
 -16   0  -4 64771.1 2029.78   4
   0  16  -1 103.805 660.481   3
 -16   0  -1 592.756 595.884   2
 -16   0  -1 1665.24 813.026   4
  16 -16  -1-69.9759 614.907   1
 -16   0   2 110302. 2908.27   4
  16 -16   2 106114. 2474.40   1
 -16   0   2 109547. 2600.25   2
   0  16   2 104836. 2358.89   3
   0  16   5 1226.02 858.555   3
  16 -16   5 2150.22 1044.54   1
 -16   0   5-839.403 896.188   4
 -16   0   5 901.736 944.600   2
  16 -16   8 94312.1 3237.65   1
 -16   0   8 91855.0 3000.74   4
 -16   0   8 86226.9 3035.71   2
   0  16   8 86834.9 2856.20   3
 -16   0  11-1614.70 1271.39   2
  16 -16  11 187.372 1382.14   1
   0  16  11-435.688 1120.96   3
 -16   1  -8 4752.95 701.004   4
 -15  -1  -8 5256.61 758.673   4
 -16   1  -5 7110.36 1025.67   2
 -15  -1  -5 9073.00 1158.21   2
   1  15  -5 9503.22 1198.49   3
  -1  16  -5 8539.11 1249.71   3
 -16   1  -5 7979.90 898.069   4
 -15  -1  -5 8949.08 940.725   4
   1  15  -2 2463.75 717.262   3
  -1  16  -2 3375.45 796.400   3
  15 -16  -2 2990.04 692.502   1
 -15  -1  -2 3794.15 835.475   4
 -16   1  -2 3127.48 799.060   4
  16 -15  -2 3193.32 743.440   1
 -16   1  -2 3275.59 686.736   2
 -15  -1  -2 2782.94 712.331   2
   1  15   1 48126.5 1569.82   3
  -1  16   1 47453.0 1600.56   3
 -15  -1   1 51293.0 2020.93   4
 -16   1   1 47210.7 1912.92   4
  16 -15   1 48289.0 1628.56   1
 -15  -1   1 48217.6 1721.48   2
  15 -16   1 46948.2 1585.75   1
 -16   1   1 46702.6 1680.99   2
   1  15   4 2488.46 846.643   3
  -1  16   4 1575.47 764.685   3
  15 -16   4 2901.75 909.657   1
 -16   1   4 2800.88 908.591   2
 -16   1   4 2037.41 844.776   4
 -15  -1   4 2841.53 924.771   4
  16 -15   4 2218.03 881.847   1
 -15  -1   4 3792.27 860.511   2
  15 -16   7 8574.47 1405.08   1
 -16   1   7 7809.05 1233.81   2
  16 -15   7 4844.64 1213.30   1
 -15  -1   7 7397.96 1146.30   4
 -15  -1   7 7820.73 1182.27   2
 -16   1   7 9409.87 1231.47   4
   1  15   7 7295.29 1147.42   3
  -1  16   7 10380.2 1265.96   3
  16 -15  10 2820.55 1349.79   1
  15 -16  10 4775.77 1435.55   1
 -16   1  10 3651.57 1189.23   4
 -15  -1  10 3417.94 1126.62   4
 -15  -1  10 4113.24 1297.41   2
 -16   1  10 3775.80 1315.48   2
   1  15  10 1193.06 1127.72   3
  -1  16  10 3036.67 1166.39   3
 -14  -2  -6 16636.6 1145.37   4
 -16   2  -6 16508.7 1062.56   4
   2  14  -3 53971.7 1742.38   3
  -2  16  -3 50644.3 1873.61   3
 -14  -2  -3 50509.0 1821.24   4
  16 -14  -3 51469.2 1836.32   1
 -14  -2  -3 51427.1 1780.29   2
 -16   2  -3 52425.0 1801.16   4
  14 -16  -3 53792.2 1631.24   1
 -16   2  -3 50920.5 1596.12   2
  16 -14  -3 47681.8 1429.71   3
   2  14   0 7365.99 768.964   3
  -2  16   0 6362.46 818.052   3
 -16   2   0 9284.89 1028.42   4
 -14  -2   0 7776.57 987.976   4
  14 -16   0 6382.11 737.460   1
 -16   2   0 6643.53 787.378   2
 -14  -2   0 8271.63 891.792   2
  16 -14   0 7708.64 834.142   1
  16 -14   3 75477.3 2185.09   1
  14 -16   3 75798.8 2217.51   1
 -14  -2   3 75471.2 2204.46   2
 -16   2   3 80090.0 2349.99   2
 -14  -2   3 75545.3 2392.46   4
 -16   2   3 78363.1 2423.56   4
   2  14   3 74253.2 2057.49   3
  -2  16   3 75781.4 2067.60   3
  -2  16   6 7343.56 1054.07   3
  14 -16   6 8005.53 1344.49   1
  16 -14   6 7081.31 1195.69   1
 -14  -2   6 8135.86 1119.92   2
 -16   2   6 6856.37 1113.75   4
 -16   2   6 7001.49 1182.79   2
 -14  -2   6 7450.91 1108.55   4
   2  14   6 8300.52 1176.99   3
  14 -16   9 12643.0 1669.72   1
 -14  -2   9 11324.7 1365.54   2
  16 -14   9 12857.4 1596.82   1
 -16   2   9 13700.3 1505.81   4
 -14  -2   9 11473.4 1370.87   4
 -16   2   9 14348.4 1600.63   2
   2  14   9 15903.0 1620.12   3
  -2  16   9 11076.8 1367.76   3
 -16   3  -7 9979.95 833.511   4
 -13  -3  -7 9353.34 951.879   4
 -16   3  -4 116008. 2328.61   2
 -13  -3  -4 116182. 2795.45   2
  -3  16  -4 120410. 3015.46   3
 -13  -3  -4 122688. 2653.48   4
 -16   3  -4 120714. 2520.44   4
  -3  16  -4 116178. 2305.14   2
   3  13  -4 125556. 2673.96   3
  16 -13  -4 114655. 2176.20   3
  16 -13  -1 3593.61 581.086   3
   3  13  -1 3655.27 647.218   3
  -3  16  -1 3123.94 705.127   3
 -16   3  -1 3947.00 683.583   2
  16 -13  -1 4406.30 752.339   1
 -13  -3  -1 4262.06 830.960   4
 -16   3  -1 5927.92 880.356   4
  13 -16  -1 4398.53 650.636   1
 -13  -3  -1 4073.09 751.545   2
  16 -13   2 150317. 2826.50   1
  13 -16   2 156477. 2921.63   1
 -16   3   2 167383. 3380.99   4
  -3  16   2 155050. 2742.80   3
 -13  -3   2 165495. 3330.17   4
 -16   3   2 157151. 3035.64   2
   3  13   2 155844. 2724.53   3
 -16   3   5 10012.5 1172.86   4
  16 -13   5 8651.98 1173.33   1
 -16   3   5 10090.5 1244.60   2
 -13  -3   5 9331.20 1099.87   4
 -13  -3   5 9737.07 1125.11   2
   3  13   5 9429.04 1153.73   3
  13 -16   5 9990.02 1288.84   1
  -3  16   5 8633.57 1036.17   3
  -3  16   8 56368.3 2273.03   3
  16 -13   8 56278.0 2467.76   1
 -16   3   8 59841.3 2439.89   4
 -16   3   8 59193.5 2565.97   2
 -13  -3   8 51978.9 2264.86   2
 -13  -3   8 56860.5 2314.60   4
   3  13   8 60629.8 2499.09   3
  13 -16   8 56994.8 2673.39   1
  13 -16  11 3699.18 1524.53   1
 -13  -3  11 284.268 1393.43   1
  16 -13  11 601.303 1239.47   1
 -16   3  11 2085.98 1290.21   2
 -13  -3  11-725.593 1075.98   2
   3  13  11 965.593 1276.09   3
  -3  16  11-635.505 1201.65   3
 -16   4  -8 1041.96 446.967   4
 -16   4  -5 30670.1 1403.39   2
 -16   4  -5 31132.7 1309.31   4
 -12  -4  -5 32412.9 1815.95   2
   4  12  -5 31002.6 1531.61   3
  -4  16  -5 30619.0 1856.95   3
  -4  16  -5 28998.8 1218.63   2
 -12  -4  -5 30855.2 1435.74   4
  16 -12  -5 28669.9 1226.30   3
  16 -12  -2 15384.0 807.207   3
   4  12  -2 16488.7 929.217   3
  -4  16  -2 15810.5 1188.25   3
  12 -16  -2 17773.1 905.944   1
 -12  -4  -2 15543.0 901.481   1
 -16   4  -2 17283.3 1112.11   4
  -4  16  -2 15984.5 960.796   2
 -12  -4  -2 18704.3 1207.55   4
 -16   4  -2 16870.8 922.774   2
  16 -12  -2 17082.3 1165.74   1
 -12  -4  -2 17478.1 1150.00   2
  -4  16   1 66789.9 1827.09   3
 -16   4   1 67473.7 2197.16   4
  12 -16   1 66092.4 1796.86   1
 -12  -4   1 66586.9 2147.50   4
 -16   4   1 65119.2 1895.52   2
  16 -12   1 65142.0 1852.80   1
   4  12   1 65503.8 1695.77   3
 -12  -4   1 63994.8 1898.79   2
 -16   4   4 13233.6 1221.11   4
  16 -12   4 12218.5 1128.56   1
 -12  -4   4 11424.4 1105.84   4
 -16   4   4 12180.6 1191.90   2
 -12  -4   4 11158.6 1051.28   2
   4  12   4 13253.9 1094.75   3
  -4  16   4 12685.1 1091.84   3
  12 -16   4 10745.7 1230.22   1
  16 -12   7 28135.8 1760.51   1
 -12  -4   7 28784.1 1693.65   4
 -16   4   7 29021.0 1749.10   4
  -4  16   7 29416.2 1643.44   3
 -16   4   7 30270.1 1930.60   2
 -12  -4   7 26948.5 1609.68   2
   4  12   7 30594.9 1839.11   3
  12 -16   7 26236.9 1954.83   1
  12 -16  10 1574.07 1383.71   1
  16 -12  10 2518.47 1234.02   1
 -16   4  10 3931.66 1154.33   4
 -12  -4  10 2338.04 1120.28   4
  -4  16  10 2404.78 1119.85   3
 -16   4  10 2291.29 1274.56   2
 -12  -4  10 3377.77 1115.72   2
   4  12  10 2714.46 1269.66   3
  16 -11  -6 8663.24 900.500   3
  -5  16  -6 8700.13 780.575   2
 -16   5  -6 9795.68 814.148   4
 -11  -5  -6 10192.0 952.553   4
 -11  -5  -3 7824.55 1012.80   2
   5  11  -3 7360.26 774.625   3
  -5  16  -3 7721.01 1050.84   3
 -16   5  -3 5687.54 764.346   4
 -11  -5  -3 6858.94 724.575   1
 -11  -5  -3 5895.85 827.601   4
  -5  16  -3 6161.68 640.680   2
 -16   5  -3 6659.61 647.589   2
  16 -11  -3 8138.63 1033.01   1
  11 -16  -3 7237.42 645.809   1
  16 -11  -3 6843.81 602.444   3
  -5  16   0 5046.23 784.350   3
  16 -11   0 5633.01 699.775   3
  16 -11   0 5342.89 783.005   1
 -16   5   0 6415.62 764.883   2
  11 -16   0 5988.43 682.309   1
 -16   5   0 5686.95 843.155   4
 -11  -5   0 7397.07 961.689   4
 -11  -5   0 4854.95 783.019   2
   5  11   0 6258.32 677.418   3
 -16   5   3 14723.1 1202.26   4
 -11  -5   3 14801.7 1202.67   4
 -16   5   3 16336.2 1226.35   2
  -5  16   3 15010.5 1046.08   3
  16 -11   3 12839.7 1055.54   1
 -11  -5   3 11547.5 551.268   3
 -11  -5   3 13521.8 1046.22   2
   5  11   3 17211.2 1113.09   3
  11 -16   3 14058.6 1225.16   1
  -5  16   6 1552.99 833.888   3
   5  11   6-83.6253 368.278   1
  11 -16   6-683.969 1186.07   1
 -16   5   6-789.012 996.188   2
 -11  -5   6 66.1429 788.789   4
  16 -11   6 923.555 938.344   1
 -11  -5   6 747.719 779.694   2
 -16   5   6 823.841 841.543   4
   5  11   6 802.813 890.045   3
 -11  -5   6-73.4095 161.070   3
 -11  -5   6 332.485 186.889   3
  16 -11   9 14857.8 1531.02   1
 -11  -5   9 15434.4 1450.29   4
   5  11   9 16723.4 1652.46   3
 -16   5   9 16736.0 1550.22   4
 -16   5   9 15097.0 1870.59   2
 -11  -5   9 16280.8 1479.98   2
  -5  16   9 13748.3 1397.10   3
  11 -16   9 15295.2 1867.20   1
  -6  16  -7 1824.63 580.432   2
 -16   6  -7 3659.29 593.154   4
 -10  -6  -7 2380.89 752.807   4
 -10  -6  -4 82036.0 1891.97   1
 -10  -6  -4 77327.5 2471.71   2
   6  10  -4 83987.9 1948.57   3
 -16   6  -4 79337.7 1984.56   4
 -10  -6  -4 81861.0 2243.35   4
  -6  16  -4 79771.8 1651.13   2
  16 -10  -4 77753.8 1513.50   3
 -16   6  -4 78784.4 1652.61   2
 -10  -6  -1 826.648 514.616   1
 -16   6  -1 594.150 648.124   4
   6  10  -1 950.883 487.672   3
 -10  -6  -1 951.800 681.137   2
  16 -10  -1 1071.02 442.866   3
  -6  16  -1 483.299 733.170   3
 -10  -6  -1 1524.77 765.351   4
  -6  16  -1 299.897 778.303   1
  16 -10  -1 1798.84 693.994   1
  -6  16  -1 1020.98 560.517   2
 -16   6  -1 1273.48 544.035   2
  10 -16  -1 749.172 459.720   1
  -6  16   2 50840.2 1632.21   3
 -10  -6   2 54900.0 1977.40   4
  10 -16   2 54218.0 1815.45   1
 -16   6   2 52117.0 1831.75   2
 -16   6   2 54743.8 1972.72   4
  16 -10   2 48059.2 1649.97   1
 -10  -6   2 51662.5 1292.23   3
 -10  -6   2 52629.8 1742.01   2
   6  10   2 52724.8 1597.23   3
 -16   6   5 16730.7 1331.94   4
  16 -10   5 15826.9 1251.34   1
 -16   6   5 15029.0 1440.50   2
 -10  -6   5 14976.6 1183.84   2
 -10  -6   5 15566.3 1253.58   4
  -6  16   5 15468.6 1133.44   3
   6  10   5 16802.1 1344.67   3
  10 -16   5 16507.9 1581.37   1
   6  10   5 14507.1 766.252   1
 -10  -6   5 12565.5 496.745   3
   6  10   8 43146.4 1217.03   1
 -10  -6   8 50049.0 2068.38   4
  16 -10   8 49537.7 2224.48   1
   6  10   8 51253.4 2411.93   3
 -16   6   8 51029.2 2506.41   2
 -10  -6   8 47551.6 2054.93   2
  10 -16   8 49824.6 2678.89   1
 -16   6   8 43956.3 948.429   3
 -16   6   8 49905.7 2219.74   4
  -6  16   8 49341.3 2034.50   3
  10 -16  11 4426.75 1776.63   1
  16 -10  11 3879.03 1370.69   1
 -10  -6  11 3035.73 1696.60   1
 -10  -6  11 1600.81 1063.52   2
 -16   6  11 271.044 1309.42   2
   6  10  11 1250.60 1290.07   3
  -6  16  11 4804.19 1254.96   3
 -16   7  -8 14584.8 632.134   4
 -16   7  -5 53142.5 1364.19   2
 -16   7  -5 51588.4 1579.65   4
  -9  -7  -5 49503.2 1620.63   1
  -7  16  -5 48006.9 1206.60   2
  -9  -7  -5 52953.1 1804.88   4
  16  -9  -5 51516.6 1340.28   3
  16  -9  -2 79576.9 1398.68   3
   7   9  -2 83930.4 1559.70   3
  -7  16  -2 79381.4 2271.72   3
  -9  -7  -2 84042.4 2299.25   4
  16  -9  -2 78836.4 2225.80   1
  -9  -7  -2 78396.7 1637.39   1
   9 -16  -2 82768.1 1424.94   1
 -16   7  -2 80466.4 1624.52   2
  -9  -7  -2 81036.0 2258.34   2
  -7  16  -2 81440.5 1773.67   2
 -16   7  -2 81878.9 2131.97   4
   9 -16   1 22756.1 1160.29   1
  -7  16   1 24597.1 1222.55   3
  16  -9   1 25128.6 1303.08   2
  -7  16   1 25679.5 1194.56   1
  16  -9   1 25499.4 1259.94   3
 -16   7   1 27443.8 1445.97   4
 -16   7   1 24009.9 1258.40   2
  -9  -7   1 26980.7 1459.65   4
  16  -9   1 24115.5 1216.21   1
  -9  -7   1 27155.4 1127.37   3
  -9  -7   1 24712.0 1276.47   2
   7   9   1 24577.4 1067.13   3
 -16   7   4 33120.2 1660.46   4
 -16   7   4 33849.2 1804.62   2
  16  -9   4 32853.8 1515.91   1
   7   9   4 30601.7 1105.57   1
  -9  -7   4 35534.3 1664.73   4
  -9  -7   4 32862.8 1481.03   2
   9 -16   4 32061.8 1830.37   1
  16  -9   4 31145.3 1040.13   2
   7   9   4 34232.5 1641.05   3
  -9  -7   4 30924.3 842.064   3
  -7  16   4 31459.1 1387.58   3
  -9  -7   7 14343.3 707.822   3
   7   9   7 16262.7 882.872   1
 -16   7   7 17768.0 1655.35   2
  -9  -7   7 19532.5 1385.98   4
  16  -9   7 17887.5 1478.51   1
 -16   7   7 20406.8 1486.42   4
  -9  -7   7 16383.0 1309.35   2
   9 -16   7 23036.2 2018.91   1
   7   9   7 16208.1 1526.41   3
 -16   7   7 14616.2 634.738   3
  -7  16   7 16725.3 1305.06   3
  -7  16  10 10073.1 1164.70   4
   7   9  10 16004.4 1701.81   3
  16  -9  10 11275.0 1441.39   1
  -9  -7  10 13501.3 1401.87   4
  -9  -7  10 13489.3 2162.86   1
 -16   7  10 15149.5 1529.18   4
 -16   7  10 12405.9 1708.95   2
  -9  -7  10 11159.3 1287.44   2
   9 -16  10 15394.6 2108.03   1
  -7  16  10 10138.1 1288.51   3
  -8  -8  -6 6939.24 907.534   1
 -16   8  -6 8359.85 748.466   4
  -8  -8  -6 9255.93 1005.59   4
  -8  16  -6 5893.26 489.743   2
  -8  16  -6 7847.17 883.448   4
 -16   8  -3 2818.88 679.474   4
  -8  -8  -3 3252.10 786.132   4
   8   8  -3 2378.93 499.504   3
  -8  -8  -3 3390.60 930.890   2
  -8  16  -3 3078.07 963.698   3
 -16   8  -3 2458.80 457.404   2
   8 -16  -3 2463.49 374.364   1
  -8  -8  -3 2465.85 485.847   1
  -8  16  -3 2912.23 500.663   2
  16  -8  -3 1689.78 358.304   3
   8 -16   0 35169.6 1215.29   1
  -8  16   0 35978.1 1463.62   3
  -8  -8   0 34623.3 1589.84   4
  -8  16   0 34059.0 1458.49   2
  16  -8   0 35092.7 1253.54   3
  -8  -8   0 32998.0 1283.94   1
  16  -8   0 34966.5 1593.04   2
  16  -8   0 33817.0 1445.33   1
 -16   8   0 37110.5 1637.54   4
  -8  16   0 34194.9 1528.15   1
 -16   8   0 35255.8 1350.80   2
  -8  -8   0 36108.5 1420.65   3
   8   8   0 34790.9 1110.52   3
  -8  -8   0 28300.5 1402.45   2
  -8  16   3 3769.94 754.837   3
  16  -8   3 3027.06 756.716   1
  16  -8   3 3640.57 674.103   2
 -16   8   3 2929.44 548.191   3
 -16   8   3 4575.79 916.772   4
 -16   8   3 4009.77 933.080   2
   8   8   3 2592.77 627.063   1
  -8  16   3 3168.19 506.619   1
  -8  -8   3 5282.83 896.125   4
   8 -16   3 4421.99 1037.67   1
  -8  -8   3 2955.86 483.635   3
   8   8   3 2865.47 796.517   3
  -8  -8   3 2302.23 728.730   2
  -8  -8   6 7491.76 614.927   3
   8   8   6 10804.6 1300.08   3
 -16   8   6 8731.89 575.961   3
 -16   8   6 10873.8 1183.51   4
 -16   8   6 9624.34 1314.19   2
   8   8   6 9149.95 781.975   1
  16  -8   6 8241.97 1087.58   1
  16  -8   6 5031.41 416.625   2
  -8  -8   6 9032.38 1047.39   4
   8 -16   6 8585.84 1455.96   1
  -8  -8   6 9172.72 1063.49   2
  -8  16   6 9514.43 1035.23   3
  -8  16   9 1759.78 965.592   3
  -8  -8   9 198.268 1498.05   1
   8   8   9 1671.27 698.613   1
  -8  -8   9 210.612 891.802   4
 -16   8   9 1105.20 1184.86   2
  16  -8   9 1557.61 1036.76   1
  -8  -8   9 2808.14 967.461   2
 -16   8   9 932.984 968.052   4
   8   8   9 233.971 1051.80   3
   8 -16   9 718.636 1392.48   1
  -9  16  -7 15030.1 1033.42   4
 -16   9  -7 16785.7 840.358   4
  -7  -9  -7 14226.6 1135.32   1
  -7  -9  -4 32897.6 1076.25   1
 -16   9  -4 31451.1 876.097   2
  -7  -9  -4 29791.5 1806.81   2
   9   7  -4 27327.3 965.693   3
  -9  16  -4 30837.7 1839.33   3
 -16   9  -4 29835.1 1276.32   4
  -9  16  -4 30873.6 896.170   2
  -7  -9  -4 31689.5 1525.65   4
  16  -7  -4 24843.9 705.945   3
  -7  -9  -1 26361.2 1500.90   4
 -16   9  -1 22401.0 1032.84   2
  16  -7  -1 21590.8 1296.49   1
  -7  -9  -1 23445.6 1367.71   2
  16  -7  -1 23437.5 881.871   3
  -9  16  -1 21064.6 1099.33   2
  -9  16  -1 20687.7 1305.87   3
   7 -16  -1 21818.8 824.774   1
  -7  -9  -1 20659.1 939.025   1
 -16   9  -1 20879.0 1272.41   4
  -7  -9  -1 23069.3 1309.94   3
  -9  16  -1 19510.9 1401.55   1
   9   7  -1 23686.2 837.377   3
 -16   9   2 77558.9 2344.49   4
  -9  16   2 71529.9 1873.08   3
 -16   9   2 71887.5 1676.58   3
  16  -7   2 76594.5 1989.78   2
 -16   9   2 75847.4 2230.09   2
  -7  -9   2 80297.3 2304.28   4
   7 -16   2 74096.2 2207.49   1
   9   7   2 75136.4 1967.02   3
  -7  -9   2 76207.8 1618.10   3
  -7  -9   2 74770.8 2022.35   2
  -9  16   2 73546.7 1702.28   1
  16  -7   2 70803.6 1935.06   1
  -7  -9   5 51703.2 1957.63   4
 -16   9   5 51402.4 1203.43   3
 -16   9   5 50808.4 2210.81   2
   7 -16   5 53501.0 2406.44   1
 -16   9   5 51034.1 2067.60   4
  16  -7   5 45659.4 1265.70   2
   9   7   5 50347.2 1467.69   1
  16  -7   5 50367.8 1860.35   1
  -7  -9   5 52003.9 1828.20   2
   9   7   5 53538.4 2202.79   3
  -7  -9   5 48677.3 1196.85   3
  -9  16   5 55368.5 1814.68   3
 -16   9   8 14357.3 834.567   3
   7 -16   8 7607.02 550.775   2
  -7  -9   8 15444.2 1356.99   4
 -16   9   8 11744.4 1550.71   2
  16  -7   8 13410.7 1350.87   1
 -16   9   8 16337.7 1464.02   4
  -9  16   8 9408.04 746.708   1
  -7  -9   8 14617.7 1249.12   2
   7 -16   8 14090.2 1838.46   1
  -7  -9   8 13137.9 2031.90   1
   9   7   8 12499.0 1483.74   3
   9   7   8 12750.8 962.071   1
  -9  16   8 14583.8 1264.67   3
  16  -7  11 7798.09 1438.30   1
  -7  -9  11 9354.32 2187.90   1
  -9  16  11 7082.22 1850.34   2
 -16   9  11 9263.31 1395.74   4
 -16   9  11 10674.4 1766.96   2
   9   7  11 9270.17 1626.33   3
  -7  -9  11 5103.76 1092.85   2
  -9  16  11 10320.6 1312.98   3
   7 -16  11 8291.89 2114.80   1
 -16  10  -8 41560.1 923.594   4
  -6 -10  -5 14976.9 1195.14   4
 -16  10  -5 16620.6 1002.30   4
  -6 -10  -5 12317.5 764.060   1
  16  -6  -2 50182.6 1946.50   1
  10   6  -2 51546.3 1040.07   3
  16  -6  -2 55045.6 975.487   3
  -6 -10  -2 49387.3 1180.89   1
 -10  16  -2 52535.4 1414.16   2
  -6 -10  -2 48310.5 1951.05   2
 -10  16  -2 46460.0 1926.75   3
  -6 -10  -2 51987.1 1934.39   4
   6 -16  -2 53421.2 950.000   1
 -16  10  -2 50763.9 1272.73   2
 -16  10  -2 52482.7 1784.51   4
   6 -16   1 1058.14 711.374   1
  -6 -10   1 626.742 705.309   2
  16  -6   1 577.177 656.446   1
 -10  16   1 1293.54 682.467   3
 -16  10   1 1627.31 737.861   2
  16  -6   1 1046.61 700.946   3
 -16  10   1 650.621 616.647   3
 -16  10   1 758.481 752.133   4
  -6 -10   1 1921.96 825.609   4
  -6 -10   1 750.017 536.169   3
  10   6   1 846.331 566.700   3
 -10  16   1 1344.91 677.543   1
  16  -6   1 1552.27 709.668   2
 -10  16   4 76103.2 1998.21   3
 -10  16   4 74343.5 1416.92   1
 -16  10   4 74679.9 1538.61   3
   6 -16   4 72917.4 1898.14   2
  16  -6   4 85895.3 2265.07   4
  -6 -10   4 85658.5 2432.27   4
 -16  10   4 80825.7 2482.04   4
  16  -6   4 75548.0 1788.65   2
 -16  10   4 82106.8 2710.17   2
   6 -16   4 68836.5 2663.92   1
  16  -6   4 76194.8 2089.66   1
  -6 -10   4 76083.0 1539.60   3
  10   6   4 79452.5 1894.65   1
  10   6   4 79648.6 2440.95   3
  -6 -10   4 76086.6 2080.48   2
 -10  16   7 4320.83 899.024   3
 -16  10   7 4207.76 646.293   3
  10   6   7 3267.14 725.287   1
   6 -16   7 2981.07 633.953   2
 -16  10   7 4896.76 1062.26   4
  16  -6   7 3044.15 522.358   2
  -6 -10   7 5156.06 967.798   4
 -10  16   7 3124.55 474.221   1
  10   6   7 5825.95 1181.49   3
  16  -6   7 4306.40 1030.77   1
 -16  10   7 2692.43 1175.38   2
   6 -16   7 4333.31 1447.29   1
  -6 -10   7 4081.46 913.766   2
  -6 -10  10 20352.3 2457.13   1
   6 -16  10 24938.2 2532.31   1
  16  -6  10 17521.8 1548.55   1
 -10  16  10 18269.4 1465.41   4
 -16  10  10 20210.3 1663.08   4
 -16  10  10 18280.5 1958.12   2
  10   6  10 20452.9 1876.26   3
  -6 -10  10 18596.1 1419.53   4
  10   6  10 15977.1 1253.88   1
 -10  16  10 21794.2 2371.82   2
  -6 -10  10 15235.6 1335.51   2
 -10  16  10 21212.5 1534.60   3
  -5 -11  -6 423.984 474.645   1
 -16  11  -6 395.171 557.783   4
 -11  16  -6 166.056 610.563   4
  11   5  -3 12691.3 510.026   3
  -5 -11  -3 15596.5 1420.86   2
 -11  16  -3 15880.0 1444.70   3
  -5 -11  -3 14926.1 1194.99   4
 -16  11  -3 17009.5 1111.87   4
  -5 -11  -3 16162.8 659.746   1
 -16  11  -3 15627.9 651.038   2
 -11  16  -3 16526.8 745.862   2
 -16  11   0 4452.81 827.872   4
 -11  16   0 3701.39 829.139   3
  16  -5   0 5005.97 667.802   3
  -5 -11   0 4281.51 699.814   1
   5 -16   0 4674.60 702.284   1
  16  -5   0 3980.03 842.428   1
  -5 -11   0 4363.60 889.436   4
 -16  11   0 2868.25 633.878   2
  -5 -11   0 4145.69 713.931   3
  -5 -11   0 3856.32 885.772   2
  11   5   0 5302.06 578.817   3
 -11  16   0 3922.78 846.303   1
 -11  16   3 6016.01 824.468   3
  11   5   3 5886.31 818.946   1
 -16  11   3 6625.24 691.577   3
   5 -16   3 6641.54 898.515   2
 -16  11   3 5377.84 949.193   4
 -16  11   3 5284.81 1027.07   2
 -11  16   3 5923.31 652.022   1
  16  -5   3 6139.19 768.540   2
   5 -16   3 8880.07 1255.59   1
  -5 -11   3 7758.02 1001.28   4
  11   5   3 6300.63 940.680   3
  -5 -11   3 7097.82 873.410   2
  16  -5   3 5689.66 859.655   1
  -5 -11   3 6504.18 654.389   3
  -5 -11   6 9257.38 796.887   3
 -16  11   6 9691.20 775.468   3
   5 -16   6 9341.71 862.295   2
  11   5   6 11372.9 957.786   1
 -11  16   6 7821.82 635.334   1
 -16  11   6 11643.2 1251.02   4
 -16  11   6 11833.0 1490.85   2
  16  -5   6 11459.5 1119.93   1
   5 -16   6 10566.5 1687.65   1
  16  -5   6 9356.79 768.982   2
  -5 -11   6 11831.5 1183.63   4
  11   5   6 10918.3 1375.10   3
  -5 -11   6 10563.8 1057.98   2
 -11  16   6 11499.5 1057.26   3
 -11  16   9 2886.55 967.711   3
  11   5   9 3521.86 891.279   1
 -11  16   9 3870.14 1018.77   4
 -11  16   9 6310.89 1721.15   2
 -16  11   9 4092.82 1319.95   2
  -5 -11   9 3015.64 1635.57   1
 -16  11   9 3829.65 1082.08   4
  -5 -11   9 4932.41 1032.33   4
  16  -5   9 4223.45 1096.80   1
 -16  11   9 4388.13 752.097   3
   5 -16   9 5299.24 1696.19   1
  11   5   9 6083.20 1338.36   3
  -5 -11   9 4876.90 942.242   2
 -16  12  -7 25468.1 1047.83   4
 -12  16  -7 23091.9 1177.27   4
 -16  12  -4 13280.9 998.958   4
  -4 -12  -4 13401.3 1202.41   4
 -12  16  -4 13057.4 493.739   2
 -16  12  -4 10842.4 419.278   2
  -4 -12  -1 68483.6 2248.85   2
  16  -4  -1 72084.8 1458.38   3
 -12  16  -1 69622.8 2241.92   3
  -4 -12  -1 68588.6 1539.23   1
 -16  12  -1 64686.6 2047.95   4
 -16  12  -1 70037.0 1722.28   2
  -4 -12  -1 76605.7 2359.37   4
   4 -16  -1 73557.1 1436.83   1
  16  -4  -1 68543.4 2228.50   1
  12   4  -1 73916.4 1263.90   3
 -12  16   2 13867.9 1038.25   3
 -16  12   2 14182.0 958.589   3
   4 -16   2 12405.4 1124.13   2
  16  -4   2 14129.0 1075.10   1
 -16  12   2 12727.2 1138.30   4
 -16  12   2 15974.6 1277.53   2
  -4 -12   2 13063.9 834.256   3
  12   4   2 12701.0 1056.63   1
   4 -16   2 13880.3 1316.57   1
  16  -4   2 13396.8 1020.30   2
  -4 -12   2 14775.9 1230.21   4
  12   4   2 14261.8 1066.60   3
  -4 -12   2 16355.4 1149.80   2
 -12  16   2 13773.9 923.571   1
   4 -16   5 33173.1 2253.74   1
 -12  16   5 28910.1 1361.07   3
  -4 -12   5 27014.6 1104.69   3
   4 -16   5 29461.5 1319.22   2
 -16  12   5 33300.0 1200.32   3
  16  -4   5 27817.7 1201.88   2
  12   4   5 31566.7 1366.08   1
 -16  12   5 33363.2 1752.82   4
 -16  12   5 30317.4 1968.76   2
 -12  16   5 26410.8 1003.97   1
  16  -4   5 32011.0 1507.65   4
  16  -4   5 30782.4 1504.41   1
  12   4   5 30940.9 1804.46   3
  -4 -12   5 32164.0 1631.10   4
  -4 -12   5 30896.9 1459.31   2
  -4 -12   8 1753.22 884.987   4
 -12  16   8 908.589 777.917   3
 -16  12   8 586.154 643.299   3
 -16  12   8 1454.20 942.433   4
   4 -16   8 947.973 665.221   2
 -12  16   8 1490.15 909.343   4
  12   4   8 1909.50 799.293   1
 -16  12   8 2707.77 1233.03   2
  -4 -12   8 2061.48 1766.95   1
   4 -16   8 2471.82 1565.43   1
  12   4   8 914.345 1142.51   3
  16  -4   8 1822.86 941.107   1
  -4 -12   8 2801.96 851.757   2
 -12  16  11 2482.84 968.169   3
 -12  16  11 6682.05 1867.20   2
 -16  12  11 4901.43 1196.27   4
 -16  12  11 4433.90 1527.39   2
  -4 -12  11 7660.81 2167.98   1
  16  -4  11 5395.98 1741.33   3
  16  -4  11 3878.51 1180.52   1
  12   4  11 3650.29 1482.47   3
   4 -16  11 5895.96 1938.91   1
 -13  16  -8 52301.6 1447.76   4
 -16  13  -8 48533.6 1169.30   4
 -16  13  -5 8529.99 859.001   4
  13   3  -2 165198. 1452.52   3
   3 -16  -2 154994. 1458.92   1
  16  -3  -2 166813. 1382.51   3
  -3 -13  -2 153565. 3580.42   2
 -13  16  -2 166956. 2572.79   2
 -13  16  -2 171212. 3656.91   3
  -3 -13  -2 172488. 1925.86   1
 -16  13  -2 164760. 3083.84   4
  -3 -13  -2 173226. 3477.61   4
 -16  13  -2 168194. 2325.98   2
  13   3   1 2382.13 817.968   1
  16  -3   1 3055.22 797.962   1
  -3 -13   1 2629.12 793.501   2
 -13  16   1 4235.30 764.254   1
 -16  13   1 2964.55 798.474   4
 -13  16   1 2817.46 781.805   3
 -16  13   1 3615.38 784.192   3
   3 -16   1 2666.31 882.317   2
 -16  13   1 3524.05 849.808   2
  -3 -13   1 3989.62 948.604   4
   3 -16   1 3923.49 886.721   1
  13   3   1 4259.11 713.853   3
 -13  16   4 114862. 2394.72   3
 -16  13   4 123693. 3042.79   4
   3 -16   4 113874. 2478.57   2
 -16  13   4 114314. 2151.59   3
 -16  13   4 120219. 3309.37   2
  13   3   4 124266. 2545.54   1
   3 -16   4 122887. 3510.82   1
  13   3   4 122409. 3054.38   3
  16  -3   4 111007. 2345.41   2
  -3 -13   4 123137. 2944.65   4
 -13  16   4 104338. 1969.12   1
  -3 -13   4 116515. 2586.72   2
  16  -3   4 117937. 2605.02   1
 -13  16   7 10102.9 1032.78   3
  16  -3   7 10011.8 1221.35   1
 -16  13   7 10635.8 916.540   3
 -16  13   7 10824.4 1566.76   2
 -13  16   7 12907.5 1756.11   2
  -3 -13   7 10799.5 1951.19   1
 -16  13   7 11763.9 1311.61   4
   3 -16   7 12042.0 1884.40   1
   3 -16   7 9151.47 908.438   2
  -3 -13   7 9678.00 1166.06   4
  13   3   7 11234.1 1483.25   3
  -3 -13   7 9971.21 1078.30   2
  13   3   7 10126.4 1058.47   1
 -13  16   7 11506.5 1306.33   4
 -16  13  10 32330.8 1504.24   3
 -16  13  10 34921.3 2042.91   4
 -13  16  10 39215.9 2875.04   2
 -13  16  10 34105.5 1940.63   4
   3 -16  10 39436.5 3049.84   1
  -3 -13  10 40472.1 3208.24   1
 -16  13  10 35323.0 2558.52   2
  13   3  10 32536.2 1744.32   1
  16  -3  10 37731.2 2871.65   3
  13   3  10 42813.0 2698.69   3
  -3 -13  10 32126.2 1680.73   2
  16  -3  10 30993.3 1874.34   1
 -13  16  10 33835.6 1711.94   3
 -14  16  -6 7720.48 897.165   4
 -16  14  -6 6650.05 817.963   4
 -14  16  -6 5887.99 863.304   4
 -14  16  -3 75879.8 1446.14   2
 -14  16  -3 76170.5 1510.69   2
 -14  16  -3 74505.4 2730.47   3
 -16  14  -3 76480.7 2144.53   4
 -16  14  -3 75828.4 1313.32   2
  -2 -14  -3 78267.1 2487.10   4
  -2 -14   0 9503.63 1133.50   2
 -14  16   0 8636.99 1006.29   3
 -16  14   0 7465.50 1020.03   3
   2 -16   0 8402.52 1207.08   2
 -16  14   0 8015.16 901.161   2
 -16  14   0 8636.63 1021.54   4
  16  -2   0 7963.91 1054.31   1
   2 -16   0 7548.94 927.026   1
  14   2   0 7854.93 1102.85   1
  -2 -14   0 7936.86 1074.68   4
  14   2   0 7861.80 706.007   3
  -2 -14   3 53987.1 1868.48   2
  -2 -14   3 55253.0 2506.09   1
 -14  16   3 52664.2 1677.01   3
 -16  14   3 54133.7 2258.79   2
   2 -16   3 54416.6 1888.28   2
 -16  14   3 55322.5 1663.23   3
  -2 -14   3 58921.3 2143.22   4
 -16  14   3 55392.8 2087.86   4
  16  -2   3 52273.1 1810.81   1
 -14  16   3 51533.2 1577.31   1
   2 -16   3 60799.2 2450.49   1
  14   2   3 58564.3 1896.41   1
  14   2   3 57381.5 2091.00   3
   2 -16   6 13861.8 1071.98   2
  14   2   6 15448.8 1175.58   1
 -14  16   6 17510.8 1231.04   3
 -16  14   6 15071.6 1019.96   3
  16  -2   6 15916.4 1240.31   4
  -2 -14   6 15457.5 1159.84   2
 -14  16   6 16506.0 1793.56   2
 -14  16   6 16565.7 1448.58   4
 -16  14   6 16153.9 1408.53   4
 -16  14   6 15817.1 1673.26   2
  16  -2   6 15531.9 1195.49   1
  -2 -14   6 20017.3 2184.72   1
   2 -16   6 15012.4 1923.62   1
  -2 -14   6 15014.1 1270.98   4
 -14  16   6 11542.4 886.142   1
  14   2   6 16492.4 1622.85   3
 -16  14   9 12268.2 1055.11   3
 -16  14   9 16490.4 1976.83   2
  16  -2   9 14825.9 1399.40   1
  -2 -14   9 10622.4 1117.58   2
 -14  16   9 17157.6 2059.77   2
 -16  14   9 13424.4 1444.98   4
   2 -16   9 16503.9 2258.25   1
 -14  16   9 11165.4 1361.76   4
  -2 -14   9 14219.9 1351.88   4
  16  -2   9 16527.8 2021.26   3
  14   2   9 14236.6 1801.74   3
  -2 -14   9 16714.2 2394.66   1
  14   2   9 10125.2 1185.33   1
   2 -16   9 9198.04 965.657   2
 -14  16   9 13192.9 1190.69   3
 -15  16  -7 8889.80 850.679   4
 -16  15  -7 6083.48 775.794   4
 -16  15  -4 968.003 185.123   2
 -16  15  -4 2052.10 713.558   4
 -15  16  -4 1713.95 206.870   2
  16  -1  -1 44524.3 1986.80   1
 -16  15  -1 45699.2 1869.79   4
  -1 -15  -1 46597.7 2109.83   2
 -15  16  -1 48698.4 2056.53   3
 -16  15  -1 45699.0 2017.93   3
   1 -16  -1 49286.0 1455.30   1
 -15  16  -1 46772.2 1658.01   2
  16  -1  -1 51450.2 1221.54   3
 -16  15  -1 48233.8 1618.94   2
  -1 -15  -1 50465.6 2133.91   4
  -1 -15  -1 49290.9 1583.27   1
  15   1  -1 53107.0 1137.40   3
  -1 -15   2 4744.90 1144.55   1
   1 -16   2 3674.53 950.552   4
 -15  16   2 4091.12 751.777   1
 -16  15   2 3165.29 877.278   4
 -15  16   2 3034.11 791.748   3
  -1 -15   2 3074.96 879.516   2
 -16  15   2 2188.37 715.051   3
   1 -16   2 4427.89 922.618   2
   1 -16   2 5938.42 1233.60   1
  15   1   2 2925.58 843.763   1
  16  -1   2 3953.56 908.724   1
  -1 -15   2 5227.21 1028.61   4
 -16  15   2 2810.67 945.094   2
  15   1   2 3806.83 856.775   3
  16  -1   5 12417.5 1141.74   1
 -15  16   5 13784.4 1361.33   4
 -16  15   5 11231.0 997.917   3
  15   1   5 10244.4 1061.91   1
 -16  15   5 13231.1 1303.82   4
 -16  15   5 12676.0 1550.21   2
   1 -16   5 14355.7 1907.19   1
  -1 -15   5 13913.2 1820.13   1
   1 -16   5 13888.7 1297.65   4
 -15  16   5 13007.6 1566.81   2
 -15  16   5 11182.0 1000.03   3
  -1 -15   5 12175.8 1232.21   4
  15   1   5 11639.4 1415.94   3
   1 -16   5 11373.7 1037.10   2
  -1 -15   5 12234.6 1068.20   2
 -15  16   8 4279.11 1043.80   4
  -1 -15   8 3872.16 840.166   2
 -15  16   8 3881.14 902.829   3
 -16  15   8 4361.93 873.918   3
   1 -16   8 5436.41 873.031   2
 -16  15   8 5347.84 1105.02   4
 -15  16   8 3009.95 1430.18   2
 -16  15   8 6929.40 1512.76   2
  16  -1   8 5389.74 1088.47   1
  -1 -15   8 4808.31 1780.49   1
   1 -16   8 6257.00 1838.11   1
  15   1   8 6010.73 1050.35   1
  -1 -15   8 4621.75 1025.97   4
  15   1   8 5878.23 1440.48   3
  16  -1   8 5784.77 1466.90   3
 -15  16  11 1211.22 893.889   3
  16  -1  11 2501.50 1069.22   1
  15   1  11 2500.38 1103.26   1
 -15  16  11 4030.00 1692.99   2
 -16  15  11 3324.33 1612.91   2
   1 -16  11 4582.63 2051.80   1
  -1 -15  11 5471.62 2011.75   1
  16  -1  11 3698.87 1708.13   3
  15   1  11 2935.96 1560.63   3
 -16  16  -8 81346.6 1798.72   4
 -16  16  -5 19.9136 686.868   4
   0 -16  -2 95117.9 1593.07   1
   0 -16  -2 102033. 1432.46   1
 -16  16  -2 98666.8 3027.26   3
 -16  16  -2 105886. 2087.06   2
  16   0  -2 88325.8 1142.44   3
  16   0  -2 91870.8 947.372   3
 -16  16   1 1658.48 884.735   2
 -16  16   1 516.917 759.806   3
   0 -16   1-953.232 939.596   2
  16   0   1-419.090 795.775   1
   0 -16   1 1083.91 902.780   4
  16   0   1 78.2763 668.384   3
   0 -16   4 69760.2 2134.00   2
   0 -16   4 74968.7 3034.15   1
 -16  16   4 74476.3 2804.34   2
  16   0   4 70985.4 2168.27   1
 -16  16   4 69856.0 2488.26   4
  16   0   4 75012.0 2593.88   3
 -16  16   4 70532.2 1951.19   3
   0 -16   4 79548.0 2553.95   4
  16   0   7 659.435 870.966   1
   0 -16   7 827.905 755.019   2
 -16  16   7-511.429 762.326   3
 -16  16   7 186.558 978.804   4
 -16  16   7-243.460 1232.50   2
   0 -16   7 693.638 1603.22   1
   0 -16   7 869.413 948.215   4
  16   0   7 303.385 1188.36   3
 -16  16  10 32711.9 1676.35   3
 -16  16  10 36065.3 2788.85   2
   0 -16  10 42955.9 3331.71   1
  16   0  10 32578.1 1923.26   1
  16   0  10 41692.1 2857.50   3
 -16  16  10 38244.8 2156.47   4
 -17   0  -8 6821.36 858.806   4
 -17   0  -5 42.7815 885.188   2
 -17   0  -5-795.212 699.629   4
   0  17  -2 36762.0 1574.13   3
  17 -17  -2 36008.9 1534.98   1
 -17   0  -2 35861.1 1514.04   2
 -17   0  -2 39802.0 1766.62   4
  17 -17   1 217.484 674.227   1
   0  17   1-173.492 670.659   3
 -17   0   1-549.968 782.226   4
 -17   0   1-795.720 718.188   2
  17 -17   4 9795.46 1225.73   1
 -17   0   4 10121.6 1196.42   4
 -17   0   4 9652.08 1173.15   2
   0  17   4 9100.05 1099.22   3
 -17   0   7 1756.58 968.085   4
  17 -17   7 1242.36 1028.69   1
 -17   0   7-1358.51 1029.25   2
   0  17   7-1197.90 919.800   3
  17 -17  10 7171.81 1592.32   1
 -17   0  10 6045.12 1393.04   2
 -17   0  10 6026.93 1341.89   4
   0  17  10 6510.60 1347.18   3
 -17   1  -6 9760.78 1295.29   2
 -16  -1  -6 10224.8 1361.25   2
 -17   1  -6 9135.75 963.852   4
 -16  -1  -6 8776.68 964.721   4
  16 -17  -3 66982.9 1995.44   1
   1  16  -3 68192.7 2105.05   3
  -1  17  -3 64469.9 2146.71   3
  17 -16  -3 71652.3 2164.04   1
 -16  -1  -3 71226.8 2222.23   4
 -17   1  -3 68106.3 2139.42   4
 -17   1  -3 67406.8 1970.23   2
 -16  -1  -3 72219.3 2144.82   2
   1  16   0 13955.6 1026.09   3
 -17   1   0 14185.8 1257.12   4
 -16  -1   0 13126.0 1209.78   4
  -1  17   0 13869.8 1042.59   3
  16 -17   0 14172.7 1027.60   1
 -17   1   0 13033.8 1025.40   2
 -16  -1   0 13991.1 1070.78   2
  17 -16   0 12716.0 1003.78   1
  16 -17   3 31067.8 1620.97   1
  17 -16   3 28599.0 1508.83   1
 -17   1   3 29046.0 1698.12   4
 -16  -1   3 32433.2 1719.56   4
 -17   1   3 29004.5 1554.11   2
   1  16   3 32149.3 1507.39   3
  -1  17   3 31761.2 1492.91   3
  16 -17   6 23174.8 1708.22   1
 -16  -1   6 21031.6 1583.35   4
  17 -16   6 22379.8 1678.81   1
 -17   1   6 20269.1 1555.09   4
 -17   1   6 20949.2 1584.61   2
 -16  -1   6 21925.0 1606.61   2
   1  16   6 18301.4 1452.99   3
  -1  17   6 19648.2 1450.40   3
  16 -17   9 26004.3 2057.78   1
  17 -16   9 27068.9 2017.70   1
 -17   1   9 31225.8 2006.63   4
 -16  -1   9 29254.3 1958.57   4
 -17   1   9 27038.9 1991.04   2
 -16  -1   9 30781.5 2019.53   2
   1  16   9 25519.6 1885.28   3
  -1  17   9 27102.7 1871.44   3
 -17   2  -7 60978.4 1824.14   4
 -15  -2  -7 63240.9 1946.19   4
 -17   2  -4 7256.68 898.280   2
 -15  -2  -4 8591.63 1077.33   2
  15 -17  -4 6070.76 942.323   1
   2  15  -4 7744.42 1064.51   3
  -2  17  -4 7135.08 1163.93   3
 -17   2  -4 7691.13 912.247   4
 -15  -2  -4 9157.67 1024.03   4
  -2  17  -1 31093.5 1410.50   3
  17 -15  -1 31800.0 1410.55   1
 -17   2  -1 27879.2 1541.87   4
 -15  -2  -1 35603.6 1663.65   4
 -17   2  -1 31127.7 1337.43   2
 -15  -2  -1 33330.8 1461.24   2
  15 -17  -1 35529.1 1353.11   1
   2  15  -1 31588.0 1316.41   3
  -2  17   2 34228.5 1454.23   3
  15 -17   2 35580.3 1537.98   1
 -17   2   2 36521.9 1786.33   4
 -15  -2   2 39011.5 1846.18   4
  17 -15   2 36257.5 1571.23   1
 -17   2   2 37220.8 1625.26   2
 -15  -2   2 34840.7 1566.95   2
   2  15   2 36472.7 1469.10   3
  15 -17   5 61470.7 2406.22   1
 -17   2   5 62504.9 2394.95   4
 -15  -2   5 60048.4 2282.84   4
 -17   2   5 61404.7 2407.10   2
  17 -15   5 56025.6 2204.83   1
   2  15   5 65188.3 2222.23   3
 -15  -2   5 58547.4 2217.70   2
  -2  17   5 61384.2 2129.53   3
  15 -17   8 8748.51 1488.16   1
 -17   2   8 11197.3 1382.22   4
  17 -15   8 8081.98 1352.04   1
 -15  -2   8 11227.4 1440.92   4
  -2  17   8 7519.78 1227.84   3
 -17   2   8 7909.90 1375.44   2
 -15  -2   8 10479.3 1353.07   2
   2  15   8 8319.99 1291.29   3
  17 -15  11 12052.6 1825.91   1
 -17   2  11 7493.07 1603.56   2
  15 -17  11 8466.14 1781.78   1
 -15  -2  11 7405.89 1424.89   2
  -2  17  11 11130.8 1573.20   3
   2  15  11 7287.06 1491.08   3
 -17   3  -8 14559.4 912.089   4
 -14  -3  -8 14400.1 1057.95   4
 -14  -3  -5 2238.43 784.336   4
 -17   3  -5 1530.33 826.746   2
 -14  -3  -5 2334.04 1065.23   2
   3  14  -5 2491.00 934.003   3
  -3  17  -5 3692.54 1096.53   3
 -17   3  -5 3426.66 747.714   4
 -17   3  -2 11436.6 1069.96   4
   3  14  -2 9937.13 873.943   3
  -3  17  -2 9962.51 1021.56   3
  14 -17  -2 9382.62 844.924   1
 -14  -3  -2 11802.7 1102.69   4
  17 -14  -2 9763.14 997.891   1
 -17   3  -2 10087.4 840.385   2
 -14  -3  -2 10755.8 1006.55   2
   3  14   1 18170.3 1056.76   3
  -3  17   1 22143.6 1210.02   3
  14 -17   1 18726.1 1107.20   1
 -14  -3   1 21568.7 1442.15   4
 -14  -3   1 19359.3 1208.56   2
 -17   3   1 20055.5 1204.39   2
 -17   3   1 21357.8 1391.31   4
  17 -14   1 16792.0 1110.56   1
  14 -17   4 24206.3 1554.54   1
  17 -14   4 20806.6 1438.82   1
 -14  -3   4 24525.5 1549.80   4
 -17   3   4 23122.9 1525.78   2
 -14  -3   4 22933.3 1409.73   2
 -17   3   4 25263.2 1566.11   4
  -3  17   4 25226.7 1394.42   3
   3  14   4 22684.6 1376.52   3
 -14  -3   7 7390.58 1179.18   2
  17 -14   7 11499.3 1406.16   1
  14 -17   7 6845.30 1291.95   1
 -17   3   7 9711.53 1279.36   4
 -17   3   7 9883.14 1417.42   2
   3  14   7 8769.17 1270.81   3
 -14  -3   7 8771.54 1219.42   4
  -3  17   7 9738.55 1194.65   3
 -17   3  10 4736.75 1235.67   4
  14 -17  10 3310.36 1471.16   1
  17 -14  10 3093.68 1246.79   1
 -17   3  10 3341.87 1349.48   2
 -14  -3  10 4087.65 1225.53   4
 -14  -3  10 4647.77 1220.59   2
   3  14  10 2626.64 1266.72   3
  -3  17  10 3255.83 1207.44   3
 -17   4  -6 4569.30 717.677   4
  -4  17  -6 3335.57 712.767   2
 -13  -4  -6 5176.05 887.234   4
 -13  -4  -3 19267.6 1268.08   4
 -17   4  -3 18369.0 1182.80   4
 -13  -4  -3 20119.4 1319.60   2
   4  13  -3 18874.8 1111.61   3
  -4  17  -3 16627.8 1296.26   3
  17 -13  -3 18966.3 1339.76   1
  -4  17  -3 15947.3 1006.43   2
 -17   4  -3 16543.6 962.903   2
  13 -17  -3 17019.0 988.346   1
  17 -13  -3 17340.9 916.181   3
  17 -13   0 10736.5 968.737   1
  -4  17   0 13461.4 1037.25   3
   4  13   0 12556.1 876.730   3
  13 -17   0 12731.5 899.248   1
 -13  -4   0 13671.8 1190.86   4
 -17   4   0 11839.9 1119.18   4
 -17   4   0 11500.3 949.270   2
 -13  -4   0 11574.9 995.072   2
  -4  17   3 19033.9 1211.39   3
 -17   4   3 21350.5 1431.25   4
  13 -17   3 19021.4 1354.86   1
   4  13   3 22675.5 1261.10   3
  17 -13   3 21795.5 1318.19   1
 -13  -4   3 20577.9 1405.47   4
 -17   4   3 21403.0 1415.91   2
 -13  -4   3 19435.6 1254.77   2
  13 -17   6 3711.70 1248.57   1
 -17   4   6 3411.54 1008.24   4
  17 -13   6 3045.12 1043.78   1
 -13  -4   6 2787.76 888.349   4
 -17   4   6 5142.42 1153.20   2
 -13  -4   6 2953.69 933.473   2
   4  13   6 2871.09 964.216   3
  -4  17   6 4613.84 972.383   3
  13 -17   9 6872.18 1537.62   1
 -17   4   9 7113.51 1279.80   4
 -13  -4   9 6409.34 1161.43   4
 -17   4   9 4857.01 1338.34   2
  17 -13   9 4291.80 1190.08   1
 -13  -4   9 4834.09 1149.76   2
   4  13   9 6510.83 1283.46   3
  -4  17   9 3607.99 1130.02   3
 -17   5  -7 31801.1 1226.03   4
 -12  -5  -7 31645.9 1465.29   4
 -12  -5  -4 8482.67 982.626   4
 -12  -5  -4 7888.24 1092.06   2
   5  12  -4 7228.58 878.534   3
  -5  17  -4 7860.63 1225.14   3
 -17   5  -4 8235.09 887.638   4
  -5  17  -4 6025.87 697.049   2
  17 -12  -4 7829.44 705.849   3
 -17   5  -4 7746.61 783.201   2
   5  12  -1 62563.2 1562.77   3
  17 -12  -1 60203.9 1510.44   3
  -5  17  -1 62068.7 1905.20   3
  17 -12  -1 61913.4 1920.10   1
 -12  -5  -1 60929.5 2064.97   4
  12 -17  -1 62104.4 1518.32   1
 -17   5  -1 56749.9 1946.15   4
 -17   5  -1 60571.7 1649.08   2
 -12  -5  -1 62443.5 1940.17   2
  12 -17   2 14002.5 1095.19   1
  -5  17   2 14796.9 1037.40   3
 -12  -5   2 16647.6 1292.40   4
 -17   5   2 16368.3 1180.66   2
  17 -12   2 12663.3 1047.86   1
 -12  -5   2 15122.1 1129.62   2
 -17   5   2 16450.7 1280.12   4
   5  12   2 14977.3 1008.37   3
 -12  -5   5 54854.3 2135.33   4
 -17   5   5 60924.5 2423.12   2
  17 -12   5 52117.8 2040.26   1
 -17   5   5 54687.8 2210.10   4
   5  12   5 56925.8 2164.97   3
 -12  -5   5 52467.5 1977.49   2
  12 -17   5 57363.8 2413.07   1
  -5  17   5 54598.3 1946.70   3
  17 -12   8 13480.4 1441.38   1
 -17   5   8 13895.1 1465.90   4
 -17   5   8 12935.9 1532.38   2
 -12  -5   8 12726.1 1335.17   4
 -12  -5   8 11482.6 1264.50   2
   5  12   8 13248.8 1487.98   3
  12 -17   8 13307.2 1741.48   1
  -5  17   8 14045.8 1389.38   3
  17 -12  11 14663.2 1745.60   1
 -12  -5  11 16100.6 2217.37   1
 -17   5  11 15789.6 1881.59   2
 -12  -5  11 16948.4 1658.13   2
   5  12  11 19723.9 1946.89   3
  -5  17  11 13163.3 1580.81   3
  12 -17  11 14833.9 2081.07   1
 -17   6  -8 6503.07 606.625   4
 -17   6  -5 43483.2 1457.37   2
 -11  -6  -5 40563.9 2081.22   2
  -6  17  -5 36234.0 2052.33   3
 -17   6  -5 38999.1 1471.54   4
  -6  17  -5 36245.5 1240.99   2
 -11  -6  -5 42554.9 1721.68   4
  17 -11  -5 36645.7 1263.80   3
 -11  -6  -5 41401.1 1623.77   1
  17 -11  -2 22458.1 907.798   3
   6  11  -2 25454.7 1051.72   3
 -17   6  -2 24194.1 1294.82   4
 -11  -6  -2 24731.8 1386.70   4
  17 -11  -2 23777.2 1389.50   1
  -6  17  -2 24587.7 1402.07   3
 -11  -6  -2 23415.7 1366.63   2
  11 -17  -2 24888.7 949.327   1
 -17   6  -2 22333.4 1021.57   2
 -11  -6  -2 22893.6 1026.43   1
  -6  17  -2 25260.5 1141.00   2
 -17   6   1 47949.2 1904.44   4
  11 -17   1 51612.7 1609.06   1
  -6  17   1 44235.3 1587.46   3
   6  11   1 48380.9 1478.82   3
 -17   6   1 47478.7 1699.59   2
 -11  -6   1 50792.6 1959.58   4
 -11  -6   1 49790.2 1520.48   3
 -11  -6   1 42692.3 1622.21   2
  17 -11   1 45935.0 1645.93   1
 -17   6   4 28317.1 1657.69   2
 -17   6   4 31363.3 1693.54   4
  17 -11   4 26452.1 1420.39   1
 -11  -6   4 27854.7 1566.86   4
 -11  -6   4 28540.6 1465.84   2
   6  11   4 28649.0 1513.29   3
  11 -17   4 30949.4 1787.12   1
  -6  17   4 28995.9 1428.61   3
  17 -11   7 9410.94 1277.26   1
 -17   6   7 9508.65 1248.89   4
 -17   6   7 8878.33 1344.05   2
 -11  -6   7 8492.23 1152.37   2
 -11  -6   7 4294.81 426.084   3
  11 -17   7 11475.0 1576.24   1
   6  11   7 7911.31 1286.52   3
   6  11   7 4432.70 543.303   1
 -11  -6   7 8514.03 1159.86   4
  -6  17   7 9121.06 1132.83   3
  11 -17  10 7577.76 1831.29   1
  17 -11  10 7985.77 1446.16   1
 -11  -6  10 7087.76 1907.24   1
 -17   6  10 6365.46 1453.82   2
 -17   6  10 10352.9 1439.14   4
 -11  -6  10 9386.64 1360.47   4
 -11  -6  10 7468.92 1228.80   2
   6  11  10 7581.30 1431.26   3
  -6  17  10 7260.16 1218.94   3
 -10  -7  -6 16315.0 1163.60   4
  -7  17  -6 13758.7 797.016   2
 -17   7  -6 17776.0 1015.58   4
 -10  -7  -6 13038.5 1140.08   1
 -10  -7  -3 7242.20 1038.35   2
   7  10  -3 7922.22 714.513   3
  17 -10  -3 7472.59 1047.29   1
  -7  17  -3 8032.39 1202.95   3
 -10  -7  -3 6399.39 667.038   1
 -17   7  -3 7294.39 840.569   4
 -10  -7  -3 7234.07 939.166   4
  10 -17  -3 6237.81 589.747   1
 -17   7  -3 7226.60 640.520   2
  -7  17  -3 6499.53 646.819   2
  17 -10  -3 6966.65 566.917   3
  -7  17   0 10194.2 986.214   3
  17 -10   0 10851.4 821.117   3
  10 -17   0 11286.4 796.276   1
  17 -10   0 10807.5 1007.91   1
 -10  -7   0 10006.0 990.346   2
  17 -10   0 10303.1 1091.96   2
  -7  17   0 11352.2 1085.54   1
 -17   7   0 10963.5 1056.86   4
 -10  -7   0 12524.8 1153.96   4
 -17   7   0 12325.7 948.467   2
 -10  -7   0 11788.5 1019.18   3
   7  10   0 11871.7 790.936   3
  -7  17   3 3680.12 796.150   3
  17 -10   3 2542.08 633.285   2
 -17   7   3 3696.53 907.841   4
 -10  -7   3 4380.63 896.594   4
  17 -10   3 3792.05 842.397   1
 -17   7   3 2840.54 906.095   2
 -10  -7   3 2825.52 488.845   3
   7  10   3 3649.21 803.000   3
  10 -17   3 4881.04 1000.97   1
 -10  -7   3 3048.02 745.100   2
 -10  -7   6 1641.58 366.743   3
  -7  17   6 1512.87 830.454   3
  10 -17   6 3016.51 1290.18   1
 -17   7   6 965.531 249.608   3
   7  10   6 2055.77 572.645   1
 -17   7   6 425.413 846.159   4
 -17   7   6 1337.62 998.334   2
 -10  -7   6 2845.91 953.880   4
  17 -10   6 1425.11 936.879   1
 -10  -7   6 138.802 768.051   2
   7  10   6 1873.47 1054.39   3
  10 -17   9 9204.93 1741.40   1
 -10  -7   9 6952.51 1112.73   2
  17 -10   9 7110.89 1299.31   1
 -17   7   9 4953.37 1331.06   2
 -10  -7   9 10820.6 1320.91   4
 -17   7   9 6945.32 1269.37   4
   7  10   9 6924.86 1340.79   3
  -7  17   9 9207.39 1266.03   3
 -17   8  -7 13982.6 841.150   4
  -9  -8  -4 25590.6 1099.53   1
  -9  -8  -4 28834.4 1752.79   2
   8   9  -4 27109.1 1112.65   3
  -8  17  -4 27000.8 1770.77   3
 -17   8  -4 27486.2 1303.46   4
  -9  -8  -4 29148.4 1512.65   4
  -8  17  -4 29566.8 1028.58   2
  17  -9  -4 26317.4 846.369   3
 -17   8  -4 27358.9 973.640   2
   8   9  -1 56085.3 1319.43   3
  -9  -8  -1 54701.7 1923.85   2
  -8  17  -1 55479.5 1688.52   2
  17  -9  -1 58873.0 1393.25   3
  -8  17  -1 55780.9 1900.23   3
  -9  -8  -1 53276.3 1495.73   1
  -8  17  -1 56818.5 2174.78   1
 -17   8  -1 58873.1 1937.67   4
   9 -17  -1 58330.4 1338.35   1
  -9  -8  -1 58202.7 2018.47   4
 -17   8  -1 55027.9 1545.99   2
  -9  -8  -1 54593.4 1962.37   3
  17  -9  -1 53583.9 1873.55   1
  -8  17   2 26153.4 1270.53   3
  -8  17   2 25037.9 1084.91   1
  17  -9   2 26932.0 1315.90   2
 -17   8   2 25674.7 1525.30   4
  -9  -8   2 26518.9 1475.01   4
 -17   8   2 25869.7 1435.66   2
  -9  -8   2 24388.4 1035.91   3
  -9  -8   2 24083.4 1280.49   2
  17  -9   2 24299.1 1302.96   1
   8   9   2 25495.8 1248.33   3
   9 -17   2 27660.6 1472.59   1
  17  -9   5 60733.3 2082.89   1
   8   9   5 56652.2 1493.18   1
  17  -9   5 50190.9 1211.60   2
 -17   8   5 65370.7 2362.58   4
 -17   8   5 57574.6 2419.98   2
  -9  -8   5 66354.0 2244.52   4
   8   9   5 68493.7 2374.07   3
  -9  -8   5 62822.9 2066.03   2
   9 -17   5 64466.7 2577.25   1
  -9  -8   5 59023.5 1185.80   3
  -8  17   5 64581.1 2031.04   3
   9 -17   8 4022.33 1449.81   1
  -8  17   8 1781.21 943.653   3
 -17   8   8 1841.58 466.973   3
   8   9   8 2050.35 628.728   1
 -17   8   8 3830.89 1139.38   2
  -9  -8   8 3933.48 1007.75   4
  17  -9   8 2386.73 983.774   1
   8   9   8 2574.70 1123.82   3
  -9  -8   8 1591.32 894.823   2
 -17   8   8 4249.95 1071.92   4
  17  -9  11 10619.1 1520.09   1
 -17   8  11 12894.3 1587.77   4
 -17   8  11 9262.49 1716.54   2
  -9  -8  11 7102.92 1997.37   1
  -9  -8  11 11432.9 1384.84   2
   9 -17  11 11585.2 2106.24   1
   8   9  11 10829.7 1644.64   3
  -8  17  11 11594.3 1472.22   3
 -17   9  -8 1912.47 396.221   4
 -17   9  -5 59155.7 1251.21   2
  -9  17  -5 58197.7 1177.82   2
 -17   9  -5 62619.5 1776.52   4
  -8  -9  -5 59719.6 1612.34   1
  -9  17  -2 22985.5 1050.95   2
  17  -8  -2 22772.7 765.873   3
  -8  -9  -2 21773.7 1424.68   2
  -9  17  -2 20977.4 1422.07   3
 -17   9  -2 22487.6 1249.20   4
   9   8  -2 21233.3 830.121   3
  17  -8  -2 21346.4 1394.66   1
  -8  -9  -2 20479.5 1368.10   4
 -17   9  -2 22579.8 944.826   2
   8 -17  -2 24345.6 787.959   1
  -8  -9  -2 20418.4 890.420   1
  -9  17   1 54773.1 1763.05   3
  -8  -9   1 55208.4 2036.49   4
  17  -8   1 51231.5 1761.02   1
  17  -8   1 54044.8 1796.52   3
  -9  17   1 56757.8 1764.30   1
  17  -8   1 51396.4 1862.99   2
 -17   9   1 55073.1 2032.98   4
 -17   9   1 52464.4 1797.42   2
  -8  -9   1 53566.9 1586.93   3
   9   8   1 52202.2 1493.50   3
   8 -17   1 53726.6 1723.53   1
  -8  -9   1 52162.2 1828.67   2
  -9  17   4 24122.1 1300.42   3
 -17   9   4 22718.4 901.619   3
   9   8   4 23936.5 1145.16   1
  17  -8   4 24119.1 1103.57   2
 -17   9   4 25313.2 1567.21   4
  -8  -9   4 25753.2 1518.79   4
  17  -8   4 22547.4 1340.63   1
  -9  17   4 17877.9 718.787   1
   8 -17   4 25766.1 1723.31   1
  -8  -9   4 24361.5 1360.08   2
   9   8   4 23462.4 1486.39   3
 -17   9   4 23917.1 1630.97   2
  -8  -9   4 24400.5 909.905   3
 -17   9   7 11429.0 705.366   3
  -8  -9   7 11328.7 1211.83   4
   9   8   7 9647.74 861.000   1
  17  -8   7 10992.6 1271.55   1
 -17   9   7 13257.9 1356.98   4
 -17   9   7 12963.5 1502.17   2
  -9  17   7 10857.1 1159.43   3
   8 -17   7 15461.2 1829.70   1
   9   8   7 11239.5 1447.31   3
  -8  -9   7 12507.7 1186.41   2
   8 -17  10 8448.67 1858.36   1
  -9  17  10 5069.21 1185.17   3
  -9  17  10 4951.65 1047.16   4
 -17   9  10 6185.24 1573.61   2
  -8  -9  10 5824.13 1993.30   1
  17  -8  10 4542.71 1232.67   1
 -17   9  10 8759.03 1357.14   4
  -8  -9  10 5917.45 1154.05   4
  -8  -9  10 6329.83 1145.27   2
   9   8  10 6175.99 1337.17   3
 -17  10  -6 3435.25 649.011   4
  -7 -10  -6 2738.79 703.322   1
   7 -17  -3 2266.34 260.244   1
  -7 -10  -3 3813.38 871.812   4
  10   7  -3 3082.01 499.142   3
  -7 -10  -3 4357.42 1056.41   2
  -7 -10  -3 3148.62 504.053   1
 -10  17  -3 4391.58 1049.69   3
 -17  10  -3 2960.69 729.784   4
 -17  10  -3 3264.11 469.656   2
  17  -7  -3 3701.49 341.749   3
 -10  17  -3 3702.84 531.228   2
  -7 -10   0 9640.47 1046.68   2
 -10  17   0 12684.6 1062.17   3
  17  -7   0 11136.5 1067.12   1
  17  -7   0 12181.6 893.665   3
 -10  17   0 11832.0 1098.12   2
 -17  10   0 11570.1 1101.56   4
  -7 -10   0 11253.4 905.672   1
  -7 -10   0 10741.0 954.281   3
 -17  10   0 12161.1 936.788   2
 -10  17   0 11097.8 1145.49   1
  -7 -10   0 12819.3 1198.61   4
  10   7   0 11207.4 753.498   3
   7 -17   0 12130.3 848.440   1
 -10  17   3 8254.72 913.156   3
 -17  10   3 8328.99 758.718   3
 -17  10   3 8014.35 1075.29   4
  17  -7   3 8112.03 843.050   2
 -17  10   3 10425.7 1177.75   2
  -7 -10   3 8527.49 1066.45   4
   7 -17   3 8638.00 1197.01   1
 -10  17   3 9255.41 744.231   1
  10   7   3 8093.15 882.678   1
  10   7   3 9220.08 1018.39   3
  17  -7   3 8571.06 931.264   1
  -7 -10   3 8193.87 963.797   2
  -7 -10   3 7154.24 644.083   3
  -7 -10   6 13906.9 815.954   3
 -17  10   6 13963.3 786.888   3
 -10  17   6 11285.4 581.516   1
   7 -17   6 14904.3 986.199   2
  17  -7   6 11952.6 774.782   2
  10   7   6 14867.5 1006.66   1
 -17  10   6 16182.0 1375.30   4
 -17  10   6 18233.5 1607.92   2
  -7 -10   6 16792.2 1360.29   4
   7 -17   6 17368.2 1762.72   1
  -7 -10   6 14650.7 1186.22   2
  10   7   6 16118.1 1505.70   3
  17  -7   6 16633.3 1357.26   1
 -10  17   6 15783.2 1217.20   3
 -10  17   9-251.363 866.696   3
 -17  10   9-983.282 1127.77   2
 -17  10   9 795.881 1023.63   4
  -7 -10   9 262.693 1609.94   1
  10   7   9-121.361 703.656   1
 -10  17   9-606.891 909.249   4
  -7 -10   9 794.772 904.846   4
  17  -7   9 995.305 998.584   1
  10   7   9 162.772 1103.72   3
  -7 -10   9 1527.53 935.057   2
   7 -17   9 999.137 1435.05   1
 -17  11  -7 8962.03 769.420   4
 -11  17  -4 30738.0 857.334   2
 -11  17  -4 29654.2 1916.48   3
 -17  11  -4 29036.0 1359.41   4
  -6 -11  -4 29641.4 1578.29   4
 -17  11  -4 28482.3 782.188   2
  -6 -11  -4 28241.1 908.765   1
   6 -17  -1 59177.4 1297.04   1
  -6 -11  -1 47881.1 1944.31   2
  17  -6  -1 58030.2 1332.66   3
 -11  17  -1 58335.7 2053.29   3
 -11  17  -1 54350.3 1708.16   2
  17  -6  -1 54735.8 2014.51   1
 -17  11  -1 55035.2 1562.40   2
  -6 -11  -1 58139.3 2120.44   4
 -17  11  -1 55698.7 1973.71   4
  -6 -11  -1 52447.0 1433.85   1
  11   6  -1 58573.8 1211.12   3
  -6 -11   2 24648.4 1485.05   4
  17  -6   2 19502.7 1222.34   1
  11   6   2 19491.6 1235.88   1
 -17  11   2 21318.2 1111.82   3
 -11  17   2 21602.7 1211.03   3
   6 -17   2 23443.1 1491.25   1
 -17  11   2 20242.0 1330.32   2
  17  -6   2 20829.5 1208.45   2
 -17  11   2 22149.2 1458.83   4
 -11  17   2 20864.4 1134.46   1
  11   6   2 22805.8 1222.14   3
  -6 -11   2 19645.4 981.693   3
  -6 -11   2 21284.1 1277.70   2
 -11  17   5 36797.4 1563.08   3
 -17  11   5 40161.4 1254.46   3
 -11  17   5 34445.7 1042.08   1
 -17  11   5 42680.0 1980.28   4
   6 -17   5 36000.4 1452.77   2
  17  -6   5 45722.9 1828.12   4
   6 -17   5 39395.1 2314.39   1
 -17  11   5 40317.6 2132.12   2
  17  -6   5 35978.9 1301.13   2
  11   6   5 40766.8 1489.71   1
  -6 -11   5 44123.5 1951.42   4
  17  -6   5 38105.8 1681.53   1
  11   6   5 42703.0 2021.50   3
  -6 -11   5 40044.0 1650.98   2
  -6 -11   5 34591.0 1169.81   3
 -17  11   8 8890.21 826.195   3
   6 -17   8 7736.11 766.076   2
 -11  17   8 8781.93 1080.93   3
 -11  17   8 11764.3 1361.05   4
 -11  17   8 7494.36 909.172   1
 -17  11   8 10238.0 1282.48   4
  17  -6   8 8898.02 1255.84   1
 -17  11   8 10999.6 1513.39   2
  -6 -11   8 8765.42 1968.29   1
   6 -17   8 12255.9 1893.31   1
  -6 -11   8 10727.5 1257.88   4
  -6 -11   8 9923.51 1185.32   2
  11   6   8 10874.3 1490.41   3
  11   6   8 8713.73 947.176   1
 -11  17  11 3972.46 1728.63   2
 -17  11  11 5891.79 1289.31   4
  -6 -11  11 6683.59 2073.71   1
 -17  11  11 4000.37 1515.56   2
  17  -6  11 3572.70 1207.15   1
  11   6  11 7650.65 1664.94   3
  -6 -11  11 4358.17 1096.26   2
   6 -17  11 7043.85 2051.76   1
 -11  17  11 6374.62 1237.87   3
 -17  12  -8 10549.1 645.954   4
 -17  12  -5 48000.3 1623.88   4
  -5 -12  -5 29079.6 855.692   1
  12   5  -2 18076.4 640.741   3
  17  -5  -2 17305.9 580.418   3
 -12  17  -2 16441.7 943.212   2
 -17  12  -2 16658.0 1195.16   4
  -5 -12  -2 15735.4 1372.48   2
  -5 -12  -2 16971.3 745.953   1
 -12  17  -2 15740.6 1410.03   3
  17  -5  -2 14995.2 1317.33   1
   5 -17  -2 16134.6 558.259   1
 -17  12  -2 16757.9 850.185   2
  -5 -12  -2 17500.0 1332.36   4
  -5 -12   1 56998.1 1978.97   2
 -12  17   1 54939.3 1803.58   3
 -17  12   1 59150.6 2118.74   4
 -17  12   1 52259.0 1745.65   3
  17  -5   1 55556.4 1876.31   3
  17  -5   1 54830.7 1907.82   1
 -17  12   1 52160.5 1885.80   2
  -5 -12   1 60071.3 2172.30   4
   5 -17   1 55342.7 1867.60   1
 -12  17   1 55492.6 1841.43   1
  12   5   1 54476.9 1593.41   3
  -5 -12   1 51961.9 1593.85   3
  -5 -12   4 4400.05 825.883   2
 -12  17   4 3917.04 815.997   3
 -12  17   4 4289.73 629.616   1
 -17  12   4 5404.58 707.870   3
   5 -17   4 4377.04 888.014   2
 -17  12   4 6055.22 1067.94   4
 -17  12   4 6242.70 1201.09   2
  17  -5   4 5866.68 792.397   2
  -5 -12   4 6894.09 1028.62   4
  12   5   4 6724.03 875.602   1
  12   5   4 6317.25 1040.01   3
   5 -17   4 4520.35 1267.06   1
  17  -5   4 6370.84 940.671   1
  -5 -12   4 4777.85 647.844   3
 -12  17   7 38560.4 1671.15   3
 -17  12   7 37765.0 1331.09   3
  12   5   7 36999.9 1559.38   1
   5 -17   7 32171.6 1349.69   2
   5 -17   7 42830.8 2740.38   1
  -5 -12   7 36254.1 2842.77   1
 -17  12   7 40630.1 2044.29   4
  17  -5   7 37512.9 1832.88   1
  -5 -12   7 42283.7 1950.81   4
  12   5   7 35798.1 2103.13   3
  -5 -12   7 35515.5 1665.97   2
 -17  12   7 39389.0 2359.87   2
  12   5  10 4026.20 992.620   1
 -12  17  10 5311.80 1724.25   2
 -12  17  10 4170.14 1092.18   4
 -17  12  10 5913.94 1281.02   4
 -17  12  10 6891.40 1590.29   2
 -12  17  10 4870.01 1098.67   3
  17  -5  10 4111.70 1153.25   1
  -5 -12  10 4754.63 1977.60   1
  12   5  10 3749.13 1384.34   3
   5 -17  10 6632.10 1935.75   1
  -5 -12  10 2763.10 928.395   2
 -17  13  -6 4845.61 743.997   4
 -13  17  -3 18306.9 826.119   2
 -17  13  -3 18421.1 1238.86   4
  -4 -13  -3 17265.1 1587.79   2
 -13  17  -3 16374.2 1552.57   3
  -4 -13  -3 17815.9 628.560   1
 -17  13  -3 18769.0 734.038   2
  -4 -13  -3 19151.8 1387.03   4
 -17  13   0 12738.4 1177.13   4
  -4 -13   0 10183.8 1134.96   2
 -13  17   0 11949.7 1135.88   3
  17  -4   0 11318.7 901.828   3
 -17  13   0 12071.0 1131.81   3
  17  -4   0 10325.9 1136.56   1
 -17  13   0 11714.0 982.205   2
   4 -17   0 10734.2 930.704   1
 -13  17   0 10817.4 1143.48   1
  13   4   0 12812.5 785.354   3
  -4 -13   0 12488.0 1216.70   4
  13   4   3 18702.4 1227.94   1
 -17  13   3 17177.6 1461.49   2
 -13  17   3 19123.9 1172.56   3
 -13  17   3 15421.7 951.560   1
  17  -4   3 18426.0 1248.58   1
 -17  13   3 21356.6 1442.54   4
 -17  13   3 19456.1 1097.27   3
   4 -17   3 18710.9 1299.72   2
   4 -17   3 18452.4 1578.04   1
  17  -4   3 16831.5 1116.48   2
  -4 -13   3 23720.8 1517.67   4
  13   4   3 19197.5 1326.30   3
  -4 -13   3 18350.1 988.546   3
  -4 -13   3 19711.4 1277.97   2
  -4 -13   6 3355.37 827.141   2
 -17  13   6 3911.71 736.781   3
 -13  17   6 4233.39 831.825   3
  -4 -13   6 6502.01 1810.39   1
  13   4   6 5940.48 884.305   1
  17  -4   6 5000.65 983.172   1
   4 -17   6 3513.14 780.323   2
  17  -4   6 3316.84 904.181   4
   4 -17   6 5274.15 1644.78   1
 -17  13   6 2987.62 1228.82   2
  17  -4   6 3976.32 735.299   2
  -4 -13   6 4353.54 994.911   4
  13   4   6 3554.20 1168.83   3
 -13  17   6 3377.01 610.408   1
 -17  13   6 5088.69 1076.44   4
 -17  13   9 9172.30 962.403   3
  17  -4   9 9711.48 1267.06   1
 -13  17   9 10984.7 1928.95   2
 -13  17   9 12192.8 1414.72   4
  -4 -13   9 11956.2 2256.41   1
 -17  13   9 9238.71 1327.87   4
  -4 -13   9 10249.8 1222.33   4
  13   4   9 8523.56 1579.46   3
 -17  13   9 11980.9 1677.40   2
   4 -17   9 9728.22 1973.63   1
  -4 -13   9 9608.75 1126.75   2
  13   4   9 9478.89 1143.18   1
 -13  17   9 10933.8 1208.29   3
 -14  17  -7 11323.2 968.297   4
 -17  14  -7 8522.41 794.549   4
 -17  14  -4 26082.1 1351.68   4
 -14  17  -4 17622.3 628.919   2
 -17  14  -4 20732.0 538.499   2
 -14  17  -4 23162.9 632.550   2
  17  -3  -1 22374.1 1566.64   1
  -3 -14  -1 23215.1 1586.47   2
 -14  17  -1 22272.9 1513.31   3
  17  -3  -1 24777.2 967.289   3
 -17  14  -1 21655.5 1507.99   3
 -17  14  -1 23511.2 1418.78   4
 -17  14  -1 21108.4 1108.98   2
   3 -17  -1 22426.7 968.890   1
  -3 -14  -1 24393.9 1554.27   4
  -3 -14  -1 21778.2 985.941   1
  14   3  -1 25875.4 820.213   3
  -3 -14   2 9688.04 1051.23   2
 -14  17   2 9688.87 921.773   1
 -14  17   2 10597.0 990.825   3
   3 -17   2 11798.4 1216.98   2
 -17  14   2 10233.4 973.511   3
 -17  14   2 12074.2 1191.37   4
  14   3   2 12859.5 1141.39   1
 -17  14   2 10755.9 1217.76   2
  17  -3   2 11444.3 1100.86   1
   3 -17   2 10844.3 1256.29   1
  -3 -14   2 12207.1 1192.58   4
  14   3   2 11375.4 1045.81   3
  -3 -14   5 1668.07 777.805   2
 -14  17   5 3717.54 841.038   3
 -17  14   5 1958.71 699.664   3
  14   3   5 1719.99 798.055   1
   3 -17   5 4413.84 889.228   2
  -3 -14   5 2457.55 920.105   4
 -17  14   5 1980.04 891.037   4
 -17  14   5 2754.28 1192.06   2
  17  -3   5 1904.22 854.795   1
  -3 -14   5 3520.49 1500.60   1
   3 -17   5 3520.95 1396.57   1
  17  -3   5 1628.91 701.890   2
 -14  17   5 2822.16 627.512   1
  14   3   5 1457.78 939.260   3
 -14  17   8 11818.9 1171.18   3
   3 -17   8 9874.95 993.744   2
 -17  14   8 13289.0 1047.41   3
   3 -17   8 17876.9 2247.88   1
 -17  14   8 13861.0 1468.16   4
 -17  14   8 14586.0 1854.59   2
 -14  17   8 14728.4 1472.06   4
  -3 -14   8 15822.5 2350.03   1
 -14  17   8 15969.7 1978.87   2
  -3 -14   8 13534.0 1319.48   4
  17  -3   8 12934.3 1372.37   1
  14   3   8 17838.5 1811.76   3
  -3 -14   8 12388.6 1192.04   2
  14   3   8 12068.2 1166.90   1
 -14  17  11 1395.64 969.305   3
 -17  14  11 833.898 1436.91   2
  -3 -14  11 1942.55 1985.47   1
 -14  17  11 104.513 1656.23   2
 -17  14  11 1579.93 1026.68   4
  17  -3  11 1719.26 1798.01   3
  14   3  11 3224.85 1537.66   3
   3 -17  11-433.385 1987.97   1
  17  -3  11 1336.29 1023.54   1
 -17  15  -8 10161.9 757.615   4
 -15  17  -8 8577.90 828.770   4
 -17  15  -5 56215.0 1855.89   4
  17  -2  -2 34075.9 695.402   3
  -2 -15  -2 32892.1 1980.04   2
 -15  17  -2 32882.1 1914.92   3
  -2 -15  -2 34005.7 1219.97   1
 -15  17  -2 35845.4 1373.32   2
 -17  15  -2 35237.7 1640.87   4
 -17  15  -2 34458.8 1215.75   2
  -2 -15  -2 38413.2 984.299   1
  -2 -15  -2 38587.4 1920.13   4
   2 -17  -2 30033.1 788.645   1
  17  -2  -2 28005.3 635.155   3
  15   2  -2 34399.6 674.781   3
  17  -2   1 31280.6 1620.76   1
  -2 -15   1 34366.3 1714.59   2
 -15  17   1 33469.5 1563.48   3
   2 -17   1 35400.6 1839.22   2
 -17  15   1 34042.3 1620.03   3
 -17  15   1 33019.1 1729.44   4
   2 -17   1 36224.6 1712.41   1
  -2 -15   1 34726.5 1782.29   4
 -17  15   1 31428.0 1626.82   2
  15   2   1 30948.3 1358.39   3
  15   2   1 34964.6 1738.58   1
 -15  17   4 9303.14 960.716   3
   2 -17   4 12226.4 1145.47   2
 -17  15   4 9767.42 940.706   3
  17  -2   4 9898.73 1086.28   1
 -15  17   4 8070.17 812.856   1
  -2 -15   4 8784.69 1546.73   1
  15   2   4 8648.01 1036.42   1
   2 -17   4 8973.42 1504.65   1
  -2 -15   4 12478.0 1263.95   4
 -17  15   4 9766.35 1183.09   4
 -17  15   4 11609.5 1467.50   2
  15   2   4 11849.4 1307.51   3
  -2 -15   4 11058.6 1089.08   2
   2 -17   7 61761.6 1984.26   2
 -15  17   7 65075.4 2052.89   3
 -17  15   7 67922.0 1929.21   3
 -17  15   7 67767.1 2628.56   4
 -15  17   7 78843.3 3432.70   2
 -15  17   7 72446.0 2670.84   4
 -17  15   7 73921.7 3177.31   2
  -2 -15   7 75395.1 3681.93   1
   2 -17   7 78765.3 3582.16   1
  -2 -15   7 70162.9 2483.66   4
  17  -2   7 69129.2 3056.12   3
  17  -2   7 68912.4 2333.64   1
  15   2   7 74660.7 2968.44   3
  -2 -15   7 62019.5 2076.12   2
  15   2   7 71011.1 2243.47   1
 -15  17  10 5540.38 1096.15   3
  17  -2  10 6252.92 1259.17   1
  15   2  10 9933.26 1839.16   3
 -17  15  10 9763.50 1815.11   2
 -17  15  10 10859.2 1443.58   4
 -15  17  10 9662.58 1972.03   2
  -2 -15  10 8988.73 2156.10   1
 -15  17  10 7535.57 1308.60   4
  15   2  10 8388.28 1261.85   1
   2 -17  10 11126.5 2194.97   1
  17  -2  10 8999.59 1866.28   3
 -16  17  -6 22695.9 1284.35   4
 -17  16  -6 22341.7 1271.76   4
 -16  17  -3 28611.2 1069.17   2
 -16  17  -3 29426.6 1054.43   2
 -17  16  -3 32035.4 1580.43   4
 -17  16  -3 29373.9 976.184   2
 -17  16   0 14785.1 1292.89   4
  -1 -16   0 13719.1 1348.72   2
 -16  17   0 13652.4 1316.81   3
   1 -17   0 17164.7 1511.92   2
 -17  16   0 15084.5 1337.14   3
  16   1   0 10863.4 1313.74   1
 -16  17   0 15175.2 1228.84   2
  -1 -16   0 12954.3 1166.68   1
   1 -17   0 14767.6 1138.60   1
 -17  16   0 12063.1 1087.35   2
  -1 -16   0 15475.6 1402.39   4
  17  -1   0 14233.7 965.722   3
  16   1   0 15264.2 922.973   3
  17  -1   0 14728.6 1368.38   1
  -1 -16   3 63988.1 2153.08   2
   1 -17   3 64536.0 2170.21   2
 -16  17   3 68050.7 2000.85   3
 -17  16   3 69728.3 2006.79   3
 -16  17   3 71844.3 2700.14   2
 -17  16   3 67811.4 2432.68   4
 -17  16   3 73377.0 2664.27   2
  -1 -16   3 70947.1 2867.99   1
   1 -17   3 74449.2 2886.43   1
  17  -1   3 66989.0 2178.24   1
  16   1   3 70046.1 2224.76   1
  -1 -16   3 72699.8 2493.88   4
   1 -17   3 67463.3 2416.50   4
  17  -1   3 71580.5 2399.55   3
  16   1   3 71192.0 2448.51   3
   1 -17   6 10927.2 1080.68   2
 -16  17   6 11345.8 1075.26   3
 -17  16   6 10300.1 1013.77   3
  16   1   6 9343.76 1110.18   1
 -16  17   6 13294.4 1774.65   2
 -16  17   6 12007.3 1354.11   4
 -17  16   6 12238.2 1371.22   4
 -17  16   6 12693.3 1688.89   2
  -1 -16   6 13892.3 2080.85   1
   1 -17   6 14984.7 2034.44   1
  -1 -16   6 11160.6 1298.81   4
  17  -1   6 12552.3 1599.22   3
  16   1   6 10370.6 1507.43   3
  -1 -16   6 11208.3 1108.81   2
  17  -1   6 11834.9 1226.91   1
 -16  17   9 9260.58 1154.59   3
 -17  16   9 9576.22 1076.86   3
 -16  17   9 10628.7 1854.36   2
 -17  16   9 14647.1 1913.12   2
 -17  16   9 10217.1 1375.04   4
   1 -17   9 10954.4 2209.99   1
 -16  17   9 7415.58 1247.73   4
  -1 -16   9 14381.4 2306.80   1
  17  -1   9 7077.09 1177.09   1
  17  -1   9 14870.4 2029.48   3
  16   1   9 13431.3 1910.98   3
  16   1   9 8463.25 1241.11   1
  -1 -16   9 7999.95 1078.68   2
   1 -17   9 6999.62 996.738   2
 -17  17  -7 112.807 654.208   4
 -17  17  -4 8179.17 401.878   2
 -17  17  -4 8985.19 441.013   2
 -17  17  -1 221.369 956.603   3
   0 -17  -1 1448.64 1122.52   2
   0 -17  -1 115.532 689.199   1
 -17  17  -1 267.010 680.593   2
  17   0  -1-158.245 430.604   3
   0 -17   2 31695.5 1721.82   2
 -17  17   2 32830.3 1574.41   3
 -17  17   2 34109.5 1859.27   4
 -17  17   2 34503.9 1897.80   2
   0 -17   2 36556.0 2031.70   1
   0 -17   2 34973.3 1899.02   4
  17   0   2 37819.1 1729.88   3
  17   0   2 32504.9 1665.72   1
 -17  17   5 472.520 1280.15   2
 -17  17   5-551.339 732.974   3
   0 -17   5 292.540 780.511   2
 -17  17   5 55.5036 889.389   4
   0 -17   5-25.1987 1383.76   1
   0 -17   5-490.100 921.454   4
  17   0   5-448.788 1024.41   3
  17   0   5-757.852 813.463   1
 -17  17   8 5684.47 950.837   3
 -17  17   8 5550.09 1550.31   2
 -17  17   8 6123.33 1189.28   4
   0 -17   8 7983.33 1953.60   1
  17   0   8 7344.45 1617.97   3
  17   0   8 6427.82 1128.09   1
   0 -17   8 5296.06 973.975   2
 -18   0  -6 76118.9 2748.32   2
 -18   0  -6 77373.5 2274.61   4
 -18   0  -3-188.110 757.639   4
 -18   0  -3 395.660 748.734   2
   0  18  -3 187.415 848.649   3
  18 -18  -3 1312.82 821.326   1
   0  18   0 47162.3 1732.24   3
 -18   0   0 46958.9 2055.05   4
  18 -18   0 46603.6 1730.46   1
 -18   0   0 43297.8 1712.51   2
   0  18   3 322.454 763.259   3
 -18   0   3-15.9851 891.635   4
  18 -18   3 1661.18 874.162   1
 -18   0   3 1221.62 821.949   2
  18 -18   6 54653.6 2423.99   1
 -18   0   6 58809.2 2475.30   4
 -18   0   6 53340.9 2356.24   2
   0  18   6 56967.3 2244.11   3
 -18   0   9 478.349 1043.88   4
  18 -18   9-1782.86 1355.15   1
 -18   0   9-425.839 1061.44   2
   0  18   9 922.526 1101.00   3
 -18   1  -7 28633.5 1433.52   4
 -17  -1  -7 28775.4 1497.06   4
 -18   1  -4 5301.17 944.938   2
 -17  -1  -4 6553.94 1029.90   2
  17 -18  -4 5399.40 1013.14   1
  18 -17  -4 6884.85 1135.04   1
   1  17  -4 5657.57 1084.36   3
  -1  18  -4 3172.85 988.175   3
 -18   1  -4 6228.71 970.585   4
 -17  -1  -4 5405.91 966.227   4
  17 -18  -1 50020.6 1697.77   1
   1  17  -1 50209.6 1728.50   3
  -1  18  -1 47316.9 1745.16   3
  18 -17  -1 50590.3 1783.96   1
 -18   1  -1 53331.9 2110.16   4
 -17  -1  -1 49127.1 2015.68   4
 -18   1  -1 48365.2 1727.16   2
 -17  -1  -1 50775.0 1827.51   2
   1  17   2 13414.7 1090.50   3
  -1  18   2 13697.7 1144.29   3
 -18   1   2 14489.3 1319.21   4
  18 -17   2 13971.0 1164.77   1
 -17  -1   2 12593.9 1145.38   2
 -18   1   2 14230.5 1192.79   2
 -17  -1   2 14842.0 1340.01   4
  17 -18   2 13280.8 1145.99   1
  17 -18   5 38367.9 1992.92   1
  18 -17   5 37434.4 1973.45   1
 -18   1   5 34164.1 1926.46   4
 -17  -1   5 36954.8 1976.33   4
 -18   1   5 34225.1 1851.05   2
 -17  -1   5 36103.6 1884.38   2
   1  17   5 36502.0 1780.05   3
  -1  18   5 36099.7 1753.27   3
  17 -18   8 33362.7 2171.02   1
  18 -17   8 32104.1 2094.68   1
 -17  -1   8 35191.0 2081.36   4
 -18   1   8 33919.2 2059.68   4
 -18   1   8 33614.8 2113.33   2
 -17  -1   8 28218.3 1939.21   2
   1  17   8 30182.2 1950.86   3
  -1  18   8 30107.9 1880.09   3
 -18   2  -8 3270.28 733.953   4
 -16  -2  -8 2946.25 774.312   4
 -18   2  -5 8352.01 1097.82   2
 -16  -2  -5 8323.33 1253.34   2
 -16  -2  -5 8765.39 1038.90   4
   2  16  -5 9378.72 1256.06   3
  -2  18  -5 7165.06 1295.78   3
 -18   2  -5 9961.51 1007.45   4
   2  16  -2 25322.8 1283.40   3
  16 -18  -2 25039.8 1280.41   1
  -2  18  -2 24078.0 1394.56   3
 -18   2  -2 28235.1 1538.46   4
 -16  -2  -2 26107.4 1531.96   4
  18 -16  -2 26024.5 1423.35   1
 -18   2  -2 26999.9 1298.10   2
 -16  -2  -2 23923.4 1368.92   2
   2  16   1 1061.33 666.036   3
  -2  18   1 1348.07 731.397   3
  18 -16   1 1446.73 751.129   1
 -16  -2   1 1147.25 860.230   4
 -18   2   1 2467.31 870.451   4
 -18   2   1 1579.51 725.933   2
 -16  -2   1 854.563 712.746   2
  16 -18   1 1389.81 719.872   1
   2  16   4 3675.20 934.198   3
  -2  18   4 2370.40 864.749   3
 -18   2   4 1801.24 972.294   4
 -16  -2   4 1168.91 911.409   4
  18 -16   4 2452.26 975.807   1
 -18   2   4 2368.00 935.954   2
  16 -18   4 2319.42 879.025   1
 -16  -2   4 1746.28 888.396   2
  -2  18   7 1908.80 980.724   3
 -18   2   7 2498.47 1115.52   2
  16 -18   7 2670.50 1217.01   1
  18 -16   7 1783.01 1137.33   1
 -18   2   7 2427.81 1033.10   4
 -16  -2   7 1786.33 968.743   4
 -16  -2   7 2860.24 996.767   2
   2  16   7 2672.37 976.277   3
 -16  -2  10 3083.34 1216.89   4
  16 -18  10 2561.83 1416.60   1
  18 -16  10 4769.65 1426.28   1
 -18   2  10 5252.70 1318.97   4
 -18   2  10 2633.17 1222.36   2
 -16  -2  10 2128.84 1200.54   2
   2  16  10 4158.40 1288.11   3
  -2  18  10 3694.53 1211.57   3
 -18   3  -6 23582.0 1574.16   2
 -15  -3  -6 21994.0 1770.93   2
 -18   3  -6 22502.4 1263.05   4
 -15  -3  -6 24126.9 1446.59   4
 -15  -3  -3 7925.59 1039.19   2
   3  15  -3 6994.24 918.030   3
  -3  18  -3 8837.95 1094.88   3
  18 -15  -3 7615.92 1117.29   1
 -18   3  -3 9862.48 1059.06   4
 -15  -3  -3 8325.24 1036.00   4
 -18   3  -3 8980.75 879.320   2
  15 -18  -3 9408.44 981.303   1
  18 -15   0 56714.8 1826.45   1
   3  15   0 59685.4 1722.79   3
  -3  18   0 56097.3 1844.24   3
  15 -18   0 58683.9 1712.27   1
 -18   3   0 61151.1 2181.79   4
 -15  -3   0 63105.9 2249.15   4
 -18   3   0 56968.3 1835.75   2
 -15  -3   0 58546.0 1923.77   2
   3  15   3 1215.79 721.127   3
  -3  18   3 2395.51 847.036   3
 -18   3   3 1749.17 877.846   2
 -15  -3   3 1278.42 727.445   2
  15 -18   3 1027.51 874.015   1
 -18   3   3 1820.72 843.468   4
 -15  -3   3 1270.05 850.221   4
  18 -15   3 1000.40 784.149   1
  15 -18   6 34343.0 2047.18   1
  18 -15   6 36880.9 1990.12   1
 -18   3   6 38059.0 1987.59   4
 -15  -3   6 39370.0 1990.99   4
 -18   3   6 36756.2 2062.23   2
 -15  -3   6 36334.5 1877.37   2
   3  15   6 34153.6 1850.44   3
  -3  18   6 34194.7 1756.64   3
  15 -18   9 4344.70 1398.50   1
 -18   3   9 1473.32 1057.50   4
  18 -15   9 2223.96 1143.03   1
 -15  -3   9 1647.68 1080.81   4
 -18   3   9 949.538 1142.46   2
 -15  -3   9 2516.92 1087.09   2
   3  15   9 1493.20 1116.86   3
  -3  18   9 2690.64 1159.98   3
 -14  -4  -7 14645.6 1166.97   4
 -18   4  -7 14398.8 1039.95   4
 -14  -4  -4 32215.3 1587.27   4
 -14  -4  -4 29354.2 1676.85   2
   4  14  -4 32049.9 1542.35   3
  -4  18  -4 31627.4 1828.71   3
 -18   4  -4 32369.5 1528.79   4
 -18   4  -4 31646.4 1365.26   2
   4  14  -1 18147.0 1036.83   3
  -4  18  -1 17737.7 1204.03   3
 -18   4  -1 20029.5 1361.83   4
  18 -14  -1 19330.8 1243.08   1
 -14  -4  -1 18736.6 1336.51   4
 -18   4  -1 17680.1 1057.83   2
  14 -18  -1 19234.5 1009.48   1
 -14  -4  -1 18259.8 1219.61   2
  -4  18   2 35968.7 1533.22   3
  18 -14   2 33107.2 1530.11   1
 -18   4   2 35771.1 1789.53   4
  14 -18   2 37372.9 1617.34   1
 -18   4   2 36069.7 1664.03   2
 -14  -4   2 38031.9 1829.56   4
   4  14   2 32754.8 1438.37   3
  14 -18   5 10861.5 1398.45   1
 -18   4   5 15074.4 1422.00   4
  18 -14   5 14214.7 1321.25   1
 -14  -4   5 14337.9 1326.71   4
 -18   4   5 13765.2 1401.70   2
 -14  -4   5 14654.1 1296.49   2
   4  14   5 14678.5 1294.84   3
  -4  18   5 11901.1 1189.12   3
  18 -14   8 11443.4 1432.09   1
 -18   4   8 10794.2 1400.13   4
 -18   4   8 11877.1 1471.51   2
 -14  -4   8 11494.5 1370.48   4
 -14  -4   8 10121.4 1301.51   2
   4  14   8 12761.5 1491.96   3
  -4  18   8 12297.7 1350.87   3
  14 -18   8 12078.3 1668.95   1
 -18   5  -8 23106.0 1050.70   4
 -13  -5  -8 24106.6 1340.66   4
 -18   5  -5 7453.96 927.534   2
  -5  18  -5 7506.43 830.723   2
  -5  18  -5 9007.58 1364.72   3
 -13  -5  -5 4661.62 1215.13   2
   5  13  -5 7036.53 974.535   3
 -18   5  -5 8783.94 934.067   4
 -13  -5  -5 7983.64 1057.69   4
  18 -13  -5 4663.33 753.319   3
 -13  -5  -2 62944.5 2065.63   2
  18 -13  -2 63762.4 1543.00   3
   5  13  -2 63967.3 1684.32   3
  13 -18  -2 63947.8 1609.67   1
  -5  18  -2 63238.1 2107.62   3
 -18   5  -2 64747.7 2069.45   4
 -13  -5  -2 68488.8 2228.61   4
 -18   5  -2 63967.7 1705.86   2
  18 -13  -2 67373.3 2152.85   1
  -5  18   1 21928.5 1263.15   3
  13 -18   1 23422.5 1239.10   1
 -18   5   1 24650.5 1521.51   4
 -13  -5   1 20911.6 1442.18   4
 -13  -5   1 25123.1 1382.62   2
 -18   5   1 24813.9 1327.80   2
  18 -13   1 22933.6 1267.81   1
   5  13   1 24431.4 1172.72   3
  13 -18   4 28126.6 1708.24   1
 -13  -5   4 31727.9 1738.32   4
 -18   5   4 27582.0 1655.69   4
  18 -13   4 30478.2 1602.38   1
 -18   5   4 28482.3 1701.90   2
 -13  -5   4 26903.8 1521.03   2
   5  13   4 27944.3 1506.96   3
  -5  18   4 27493.0 1475.26   3
  18 -13   7 12701.6 1408.52   1
 -18   5   7 12844.0 1487.93   2
 -13  -5   7 12435.6 1338.05   4
 -13  -5   7 13294.9 1328.17   2
 -18   5   7 12872.8 1396.37   4
   5  13   7 10845.3 1359.24   3
  13 -18   7 11577.7 1582.15   1
  -5  18   7 12081.6 1298.21   3
  18 -13  10 11502.9 1589.09   1
 -18   5  10 16484.8 1692.49   4
 -18   5  10 16430.5 1841.98   2
 -13  -5  10 16452.2 1591.76   4
 -13  -5  10 12526.6 1477.66   2
   5  13  10 14532.3 1691.25   3
  -5  18  10 11693.5 1492.54   3
  13 -18  10 13353.8 1898.44   1
  -6  18  -6 17069.3 983.917   2
 -18   6  -6 22733.2 1197.20   4
 -12  -6  -6 21841.1 1332.57   4
  18 -12  -6 18940.9 1128.18   3
 -12  -6  -3 23663.2 1500.82   2
   6  12  -3 25339.3 1166.07   3
  -6  18  -3 27138.4 1644.53   3
  12 -18  -3 24378.1 1037.38   1
 -12  -6  -3 25332.8 1457.96   4
  -6  18  -3 24472.5 1142.32   2
 -18   6  -3 21847.4 1024.42   2
  18 -12  -3 25466.0 1582.79   1
  18 -12  -3 21625.1 952.665   3
 -18   6  -3 24903.9 1341.64   4
   6  12   0 29648.3 1162.43   3
  -6  18   0 29602.3 1440.31   3
  18 -12   0 29831.5 1428.14   1
 -18   6   0 31152.2 1596.26   4
 -12  -6   0 30683.4 1616.08   4
  12 -18   0 30103.0 1196.55   1
 -18   6   0 29084.5 1313.82   2
 -12  -6   0 30656.4 1480.94   2
  -6  18   3 12936.1 1074.30   3
  12 -18   3 11958.4 1190.15   1
  18 -12   3 10532.1 1096.23   1
 -12  -6   3 13343.5 1284.86   4
 -18   6   3 11465.6 1177.42   2
 -18   6   3 12511.5 1244.36   4
 -12  -6   3 11041.5 1070.77   2
   6  12   3 12202.4 1051.90   3
  -6  18   6 3483.33 955.997   3
 -12  -6   6 4039.86 971.520   4
 -18   6   6 4328.52 1032.25   4
 -18   6   6 4579.17 1169.16   2
  18 -12   6 4702.39 1011.42   1
 -12  -6   6 4334.41 974.623   2
  12 -18   6 5433.07 1353.89   1
   6  12   6 4210.18 1078.72   3
  18 -12   9 19659.2 1732.52   1
 -18   6   9 17190.7 1692.20   4
 -18   6   9 17092.5 1733.27   2
 -12  -6   9 17127.6 1541.86   4
 -12  -6   9 16151.7 1497.76   2
   6  12   9 16250.6 1692.44   3
  12 -18   9 15693.6 1907.37   1
  -6  18   9 15760.8 1477.78   3
 -11  -7  -7 18229.5 1296.05   4
 -18   7  -7 17881.8 1014.66   4
 -11  -7  -4 49179.2 2150.30   2
 -11  -7  -4 47953.2 1571.51   1
   7  11  -4 51905.6 1634.99   3
  -7  18  -4 51972.9 2281.38   3
 -11  -7  -4 54972.2 2010.06   4
 -18   7  -4 50825.5 1753.28   4
  -7  18  -4 50087.4 1451.20   2
  18 -11  -4 51537.9 1294.46   3
 -18   7  -4 52039.0 1435.29   2
   7  11  -1 37798.8 1221.69   3
  18 -11  -1 35504.4 1207.09   3
  -7  18  -1 34832.0 1595.46   3
 -18   7  -1 36219.7 1636.39   4
  11 -18  -1 36934.0 1184.02   1
 -11  -7  -1 38276.8 1759.43   4
  18 -11  -1 33932.7 1580.20   1
 -18   7  -1 35037.1 1331.21   2
 -11  -7  -1 36555.4 1643.50   2
  11 -18   2 68177.6 2079.92   1
  -7  18   2 65765.4 1949.26   3
 -18   7   2 70201.3 2376.87   4
 -18   7   2 65548.1 2117.28   2
 -11  -7   2 71643.7 2358.16   4
 -11  -7   2 65551.9 1610.26   3
 -11  -7   2 65962.2 2048.98   2
  18 -11   2 62801.8 1960.92   1
   7  11   2 69062.7 1919.17   3
 -18   7   5 18444.8 1474.06   4
  18 -11   5 20161.5 1426.59   1
 -18   7   5 18095.3 1537.63   2
 -11  -7   5 19548.2 1359.00   2
   7  11   5 20722.0 1500.28   3
  11 -18   5 18198.3 1653.63   1
 -11  -7   5 19692.0 1404.93   4
  -7  18   5 18588.0 1310.19   3
 -18   7   8 18050.1 1789.57   2
   7  11   8 15776.6 1582.90   3
  18 -11   8 12860.8 1479.18   1
 -18   7   8 17760.1 1610.58   4
 -11  -7   8 15347.5 1414.22   4
 -11  -7   8 14652.1 1376.21   2
  11 -18   8 19489.4 2001.04   1
  -7  18   8 17118.4 1450.55   3
  18 -11  11 15012.4 1779.54   1
 -18   7  11 14283.1 1638.04   4
 -18   7  11 11108.1 1778.75   2
 -11  -7  11 14143.2 2269.37   1
 -11  -7  11 11616.5 1410.87   2
   7  11  11 13670.6 1782.45   3
  11 -18  11 13723.5 2139.94   1
  -7  18  11 10119.4 1472.62   3
 -18   8  -8 38878.8 1160.68   4
 -18   8  -5 26820.5 1303.82   4
 -18   8  -5 27751.3 1082.49   2
 -10  -8  -5 26362.9 1843.06   2
  -8  18  -5 26406.3 1895.18   3
  -8  18  -5 25365.3 991.712   2
 -10  -8  -5 25714.1 1477.92   4
  18 -10  -5 22981.0 956.453   3
 -10  -8  -5 25598.1 1282.76   1
  18 -10  -2 57939.2 1296.47   3
 -10  -8  -2 57314.2 2106.17   2
   8  10  -2 58213.5 1433.47   3
  -8  18  -2 59765.0 2128.46   3
  18 -10  -2 58079.1 2093.82   1
 -18   8  -2 57014.2 1945.47   4
 -10  -8  -2 62284.0 2143.95   4
 -18   8  -2 58042.0 1501.06   2
  10 -18  -2 61453.1 1348.92   1
 -10  -8  -2 55059.2 1476.81   1
  -8  18  -2 57951.2 1639.19   2
  10 -18   1 62934.9 1809.49   1
  -8  18   1 59055.2 1885.85   3
  18 -10   1 56514.2 1874.87   1
 -18   8   1 65389.2 2223.43   4
  18 -10   1 62360.8 2051.79   2
 -18   8   1 62900.0 1959.43   2
 -10  -8   1 65144.1 2238.77   4
  -8  18   1 56386.7 1812.82   1
 -10  -8   1 60261.7 1749.26   3
 -10  -8   1 62166.0 1982.19   2
   8  10   1 61240.0 1651.74   3
  -8  18   4 54454.6 1871.81   3
  18 -10   4 48605.9 1446.74   2
 -18   8   4 55899.5 2209.75   4
 -18   8   4 53718.2 2245.16   2
 -10  -8   4 54110.7 2091.52   4
  18 -10   4 51100.7 1912.74   1
 -10  -8   4 53985.9 1938.55   2
 -10  -8   4 50630.2 1197.73   3
  10 -18   4 54512.0 2311.66   1
   8  10   4 54365.4 2041.12   3
 -18   8   7 37947.7 2226.13   2
 -10  -8   7 36211.8 1868.84   4
   8  10   7 29037.4 1124.24   1
 -10  -8   7 33224.5 1739.23   2
 -18   8   7 36845.2 2017.22   4
  18 -10   7 33850.4 1831.89   1
  10 -18   7 39390.6 2419.77   1
   8  10   7 42496.0 2205.10   3
  -8  18   7 36249.8 1759.06   3
  10 -18  10 14723.4 2047.22   1
 -18   8  10 12803.8 1576.05   4
  18 -10  10 12708.0 1549.14   1
  -8  18  10 8981.45 1191.53   4
 -10  -8  10 12347.3 2140.95   1
   8  10  10 11664.7 1663.86   3
 -10  -8  10 14219.5 1607.00   4
 -18   8  10 12213.6 1670.15   2
 -10  -8  10 9790.17 1319.68   2
  -8  18  10 10671.9 1393.57   3
  -9  -9  -6 7418.91 899.057   1
 -18   9  -6 8763.02 860.069   4
  -9  -9  -6 9113.82 1049.75   4
   9   9  -3 26928.3 1004.69   3
  -9  -9  -3 27596.1 1671.64   2
  18  -9  -3 24725.9 1616.59   1
  -9  18  -3 27017.9 1715.87   3
 -18   9  -3 29607.4 1434.89   4
  -9  -9  -3 28715.6 1084.23   1
  -9  -9  -3 28454.4 1558.88   4
   9 -18  -3 25460.7 797.065   1
 -18   9  -3 28601.3 1010.43   2
  -9  18  -3 27589.0 1070.61   2
  18  -9  -3 26382.2 837.139   3
   9   9   0-20.9918 484.039   3
  -9  -9   0 990.060 735.545   2
  -9  18   0-310.315 706.220   3
  18  -9   0 533.195 547.419   3
   9 -18   0 827.105 533.496   1
  18  -9   0 1360.03 774.830   1
  -9  18   0 372.574 813.333   1
  -9  -9   0 250.547 777.813   4
 -18   9   0-63.6117 591.250   2
 -18   9   0-429.601 770.586   4
  -9  -9   0 782.454 694.068   3
  -9  18   3 26205.7 1354.83   3
  -9  18   3 23076.0 964.917   1
 -18   9   3 26454.4 1626.85   2
 -18   9   3 29961.2 1697.55   4
  -9  -9   3 28965.2 1596.40   4
  18  -9   3 28690.3 1319.07   2
  -9  -9   3 25804.6 1037.21   3
  18  -9   3 24709.5 1364.84   1
   9 -18   3 27058.9 1675.40   1
  -9  -9   3 29037.0 1469.27   2
   9   9   3 29140.7 1461.00   3
 -18   9   6 8241.65 578.694   3
  18  -9   6 6694.71 512.186   2
 -18   9   6 12477.7 1308.97   4
 -18   9   6 10857.3 1404.11   2
  18  -9   6 9473.33 1172.84   1
  -9  -9   6 10332.0 1173.59   4
   9 -18   6 12433.7 1624.93   1
  -9  -9   6 13085.7 1237.76   2
   9   9   6 8814.49 821.508   1
   9   9   6 9672.31 1342.50   3
  -9  -9   6 9200.28 654.289   3
  -9  18   6 10637.3 1136.32   3
   9 -18   9 7940.45 1709.10   1
  18  -9   9 7628.08 1267.46   1
 -18   9   9 7138.95 1294.41   4
 -18   9   9 6514.23 1431.97   2
  -9  -9   9 7319.57 1268.40   4
  -9  -9   9 6074.38 1784.23   1
  -9  -9   9 6866.69 1133.44   2
   9   9   9 5646.88 1356.18   3
  -9  18   9 7875.42 1178.61   3
 -18  10  -7 39624.0 1340.80   4
  -8 -10  -4 48890.3 1350.87   1
  -8 -10  -4 48535.7 2296.90   2
  10   8  -4 49970.3 1293.42   3
 -10  18  -4 51049.5 2369.60   3
 -18  10  -4 50020.2 1728.97   4
  -8 -10  -4 53135.2 2037.51   4
 -10  18  -4 54351.7 1277.97   2
 -18  10  -4 51155.0 1181.19   2
  -8 -10  -1 60139.9 2137.47   2
  18  -8  -1 58012.9 2072.32   1
 -10  18  -1 56281.2 1766.32   2
  18  -8  -1 61301.8 1425.85   3
 -10  18  -1 59684.8 2099.33   3
   8 -18  -1 64911.4 1403.23   1
 -18  10  -1 61645.3 2079.96   4
  -8 -10  -1 57475.9 1575.11   1
 -18  10  -1 58927.6 1644.91   2
  -8 -10  -1 69071.9 2335.97   4
  10   8  -1 60997.7 1344.85   3
  18  -8   2 59059.7 1909.72   1
 -10  18   2 59546.0 1870.11   3
 -18  10   2 62963.9 2250.01   4
 -18  10   2 57840.2 2077.26   2
  18  -8   2 63268.1 2033.09   2
 -10  18   2 57217.7 1719.16   1
  -8 -10   2 63231.1 2234.96   4
  -8 -10   2 58021.6 1601.55   3
   8 -18   2 61881.5 2113.58   1
  10   8   2 60675.4 1844.69   3
  -8 -10   2 59655.4 1973.70   2
  10   8   5 26158.4 1226.50   1
 -10  18   5 24727.0 1411.73   3
 -18  10   5 28119.9 1702.32   4
 -18  10   5 28098.6 1852.72   2
 -18  10   5 23767.1 957.474   3
  18  -8   5 21877.8 1046.60   2
  18  -8   5 26336.5 1525.66   1
  -8 -10   5 27166.4 1586.99   4
   8 -18   5 33781.1 2103.63   1
  -8 -10   5 27867.6 1492.93   2
  10   8   5 26177.5 1687.04   3
  -8 -10   5 23063.8 930.872   3
 -18  10   8 41113.7 1225.46   3
  10   8   8 39817.4 1475.78   1
  18  -8   8 45217.7 2132.80   1
 -18  10   8 49870.4 2337.31   4
 -18  10   8 49246.1 2606.92   2
  -8 -10   8 51031.9 2295.89   4
  -8 -10   8 45647.0 2003.99   2
  10   8   8 50907.8 2489.83   3
   8 -18   8 49654.7 2876.62   1
 -10  18   8 46483.6 2009.02   3
 -10  18  11 4408.42 1135.56   3
   8 -18  11 4620.55 1912.48   1
 -10  18  11 5472.36 1937.64   2
  -8 -10  11 4527.62 1911.51   1
 -18  10  11 4815.76 1256.85   4
 -18  10  11 2876.32 1480.36   2
  18  -8  11 2755.42 1181.40   1
  -8 -10  11 3180.86 1075.36   2
  10   8  11 4461.60 1481.63   3
 -18  11  -5 10153.5 502.730   2
 -18  11  -5 16957.0 1107.56   4
 -11  18  -5 11422.2 512.987   2
  -7 -11  -5 11884.9 788.260   1
  -7 -11  -5 16484.1 1317.72   4
  18  -7  -2 65211.2 2354.53   1
  11   7  -2 68899.4 1300.83   3
  18  -7  -2 72939.8 1231.76   3
  -7 -11  -2 65274.7 1452.88   1
 -11  18  -2 68759.1 1742.33   2
  -7 -11  -2 62744.1 2313.48   2
 -11  18  -2 63101.6 2334.57   3
 -18  11  -2 68115.2 2131.85   4
   7 -18  -2 73353.7 1224.65   1
  -7 -11  -2 74836.8 2419.32   4
 -18  11  -2 71379.1 1614.41   2
 -11  18   1 36960.8 1576.99   3
  18  -7   1 36737.9 1585.90   3
  18  -7   1 34350.8 1575.24   1
 -18  11   1 38614.3 1815.97   4
 -18  11   1 38075.4 1617.70   2
 -11  18   1 37436.1 1632.94   1
  -7 -11   1 43124.1 1956.48   4
   7 -18   1 37180.9 1549.35   1
  -7 -11   1 34015.7 1389.55   3
  11   7   1 40527.3 1406.38   3
  -7 -11   1 37084.1 1635.09   2
 -11  18   4 52063.0 1819.27   3
 -18  11   4 49391.6 1424.10   3
  11   7   4 50258.9 1697.62   1
  -7 -11   4 56390.8 2162.31   4
 -18  11   4 54923.4 2191.28   4
 -18  11   4 51932.9 2278.00   2
  18  -7   4 47567.5 1605.31   2
   7 -18   4 53248.1 2385.75   1
  18  -7   4 45578.7 1801.83   1
 -11  18   4 47727.2 1332.96   1
  11   7   4 52746.1 2107.01   3
  -7 -11   4 50828.9 1881.12   2
  -7 -11   4 47410.8 1351.72   3
   7 -18   7 16257.8 1938.10   1
 -18  11   7 13561.9 862.371   3
   7 -18   7 12316.0 931.298   2
  11   7   7 14960.3 1084.33   1
 -18  11   7 18203.3 1563.12   4
 -18  11   7 14365.8 1658.00   2
  18  -7   7 14934.9 1348.00   1
  -7 -11   7 16153.3 1432.01   4
  -7 -11   7 15082.8 1277.73   2
  11   7   7 16835.5 1597.23   3
 -11  18   7 15178.8 1282.83   3
 -11  18  10 6358.68 1174.73   4
 -11  18  10 9070.14 2069.46   2
  18  -7  10 7385.48 1284.34   1
 -18  11  10 6866.77 1352.96   4
  -7 -11  10 5582.84 1960.66   1
 -18  11  10 6585.68 1526.26   2
  -7 -11  10 6784.48 1192.10   4
  11   7  10 3652.10 1354.42   3
  -7 -11  10 4729.20 1078.61   2
   7 -18  10 7972.42 1994.25   1
 -11  18  10 7850.22 1198.32   3
 -18  12  -6 6406.33 813.341   4
  -6 -12  -6 2669.94 512.756   1
  12   6  -3 9421.09 535.818   3
  -6 -12  -3 11545.8 1404.86   2
 -12  18  -3 9500.73 1307.95   3
 -18  12  -3 11321.9 1036.20   4
  -6 -12  -3 9769.08 636.391   1
 -18  12  -3 10450.7 626.935   2
  -6 -12  -3 11298.0 1155.83   4
 -12  18  -3 10971.9 744.807   2
  18  -6  -3 7739.75 326.823   3
  -6 -12   0 32312.4 1618.66   2
 -12  18   0 30154.7 1538.47   3
  18  -6   0 33830.0 1336.24   3
 -18  12   0 31677.9 1397.45   2
 -12  18   0 28758.4 1616.42   1
  -6 -12   0 34612.4 1762.68   4
 -18  12   0 35791.1 1715.77   4
   6 -18   0 31190.1 1268.16   1
  18  -6   0 29610.7 1566.48   1
  -6 -12   0 31138.7 1346.66   1
  12   6   0 32679.2 1124.46   3
  18  -6   3 24992.8 1399.40   1
 -18  12   3 28274.8 1745.71   2
 -12  18   3 27232.2 1369.58   3
 -18  12   3 27222.4 1216.88   3
 -18  12   3 27620.7 1642.09   4
  18  -6   3 24590.2 1327.60   2
  12   6   3 26655.6 1388.20   1
  -6 -12   3 28451.7 1646.90   4
   6 -18   3 28552.9 1793.60   1
  12   6   3 29638.1 1552.75   3
 -12  18   3 25017.3 1176.29   1
  -6 -12   3 23302.9 1075.95   3
  -6 -12   3 28987.5 1498.60   2
 -12  18   6 19466.4 1341.12   3
 -18  12   6 17706.0 982.661   3
   6 -18   6 17410.8 1163.14   2
 -12  18   6 13251.9 751.313   1
 -18  12   6 20613.7 1564.01   4
 -18  12   6 19728.2 1793.33   2
  18  -6   6 16476.1 998.557   2
   6 -18   6 23636.4 2088.59   1
  18  -6   6 21053.5 1464.70   1
  -6 -12   6 19350.1 1518.97   4
  12   6   6 18415.3 1195.37   1
  -6 -12   6 18465.0 1312.26   2
  12   6   6 24523.4 1734.17   3
 -18  12   9 9688.38 1377.94   4
 -12  18   9 6565.92 1200.12   4
  18  -6   9 6236.42 1275.00   1
 -18  12   9 6598.79 1477.06   2
  -6 -12   9 7843.31 1974.79   1
  -6 -12   9 8018.24 1243.10   4
  12   6   9 4670.72 928.890   1
  -6 -12   9 6859.15 1103.23   2
  12   6   9 7421.77 1464.02   3
   6 -18   9 7520.03 1862.89   1
 -12  18   9 6978.02 1143.32   3
 -18  13  -7 10112.1 849.055   4
 -13  18  -4 23221.8 1835.69   3
 -18  13  -4 28989.1 1433.68   4
  -5 -13  -4 27881.0 1651.57   4
 -18  13  -4 23329.5 675.290   2
 -13  18  -4 27290.5 797.188   2
  -5 -13  -4 20225.4 689.179   1
  -5 -13  -1 22960.0 1025.10   1
  -5 -13  -1 24345.5 1578.60   2
  18  -5  -1 26715.2 985.878   3
 -13  18  -1 22711.7 1531.24   3
 -13  18  -1 23804.8 1339.44   2
 -18  13  -1 26645.8 1501.52   4
 -18  13  -1 24690.2 1176.58   2
  18  -5  -1 21349.2 1494.96   1
  -5 -13  -1 26596.7 1636.27   4
   5 -18  -1 26641.3 976.369   1
  13   5  -1 26098.8 867.822   3
  13   5   2 67377.1 2168.69   1
 -18  13   2 64124.4 2261.45   2
 -13  18   2 64741.8 2004.54   3
 -18  13   2 61879.3 1861.34   3
  18  -5   2 61403.2 2040.53   1
 -18  13   2 68362.9 2373.45   4
   5 -18   2 67970.1 2346.19   1
  -5 -13   2 71277.0 2417.25   4
  13   5   2 71278.9 2072.40   3
 -13  18   2 61221.7 1871.48   1
  -5 -13   2 66570.6 2162.44   2
 -13  18   5 9174.40 1032.84   3
  13   5   5 9168.64 993.562   1
 -18  13   5 8718.86 843.320   3
   5 -18   5 8259.16 1021.27   2
   5 -18   5 8800.94 1593.39   1
 -13  18   5 7394.94 739.250   1
 -18  13   5 9175.59 1410.21   2
 -18  13   5 9485.01 1213.58   4
  18  -5   5 6862.77 839.543   2
  18  -5   5 7253.29 1043.02   1
  -5 -13   5 7904.14 1148.59   4
  13   5   5 10623.4 1341.94   3
  -5 -13   5 9046.38 1033.05   2
 -13  18   8 25302.4 1518.37   3
  13   5   8 24072.6 1418.94   1
 -18  13   8 21555.2 1171.02   3
   5 -18   8 17756.1 1146.28   2
  18  -5   8 23564.4 1621.79   1
   5 -18   8 24875.3 2404.99   1
 -13  18   8 24718.2 1765.38   4
  -5 -13   8 27529.9 2711.02   1
 -18  13   8 26105.9 1823.15   4
 -18  13   8 23874.1 2117.84   2
  -5 -13   8 24944.8 1670.92   4
  13   5   8 26055.1 1962.22   3
  -5 -13   8 21728.8 1472.71   2
 -13  18  11 236.905 1019.01   3
 -13  18  11 2898.63 1705.21   2
 -18  13  11 1468.14 1122.31   4
 -18  13  11-850.583 1475.52   2
  -5 -13  11-83.2944 1858.09   1
  13   5  11 702.596 1417.11   3
   5 -18  11-1874.51 1855.70   1
  18  -5  11 1418.74 1180.86   1
 -14  18  -8 12160.5 976.340   4
 -18  14  -5 16157.2 1147.60   4
  14   4  -2 36076.1 820.003   3
  18  -4  -2 37674.6 782.403   3
   4 -18  -2 37068.7 805.622   1
 -14  18  -2 34365.3 1360.35   2
  -4 -14  -2 30021.4 1861.88   2
 -14  18  -2 38150.3 2024.56   3
  -4 -14  -2 34494.5 1014.52   1
 -18  14  -2 37353.8 1690.36   4
 -18  14  -2 36396.0 1233.42   2
  -4 -14  -2 33926.4 1775.49   4
  18  -4  -2 31283.4 884.640   3
  -4 -14   1 17935.5 1356.64   2
 -14  18   1 16038.2 1237.38   3
 -18  14   1 17175.0 1240.27   3
 -18  14   1 16838.2 1339.85   4
 -18  14   1 17352.5 1306.08   2
  14   4   1 17421.3 1396.86   1
  -4 -14   1 17442.6 1395.89   4
   4 -18   1 17845.3 1321.21   1
  18  -4   1 15386.0 1260.76   1
  14   4   1 19046.3 1112.84   3
 -14  18   1 14722.9 1197.76   1
  18  -4   4 28880.8 1528.40   1
 -14  18   4 28954.5 1440.79   3
 -18  14   4 27677.7 1282.32   3
   4 -18   4 28848.7 1521.74   2
 -14  18   4 23139.4 1111.25   1
 -18  14   4 30246.5 1767.13   4
 -18  14   4 25754.3 1823.22   2
   4 -18   4 31394.1 2042.59   1
  -4 -14   4 29023.7 1672.53   4
  14   4   4 29094.8 1483.85   1
  14   4   4 29331.5 1699.16   3
  -4 -14   4 26956.9 1500.48   2
 -14  18   7 14564.1 1231.86   3
 -18  14   7 15783.2 1087.41   3
   4 -18   7 13601.2 1105.17   2
  14   4   7 16899.9 1268.93   1
  -4 -14   7 17799.5 2258.88   1
 -14  18   7 18415.0 1600.24   4
 -18  14   7 17363.9 1559.21   4
 -18  14   7 15503.9 1779.91   2
   4 -18   7 19984.9 2198.57   1
  -4 -14   7 18882.3 1522.21   4
  18  -4   7 14584.3 1333.07   1
  14   4   7 18903.7 1773.48   3
  -4 -14   7 15254.1 1254.36   2
 -14  18  10 9902.27 1278.02   3
 -14  18  10 14077.3 2222.91   2
 -14  18  10 13079.9 1471.27   4
 -18  14  10 12386.6 1471.96   4
  -4 -14  10 14621.2 2506.62   1
 -18  14  10 10404.8 1777.49   2
   4 -18  10 13815.8 2361.79   1
  18  -4  10 9802.56 1383.82   1
  18  -4  10 10929.0 2164.82   3
  14   4  10 14965.5 1867.13   3
  -4 -14  10 9010.97 1196.51   2
  14   4  10 10247.7 1292.43   1
 -18  15  -6 35425.8 1487.52   4
 -15  18  -3 2443.43 611.592   2
 -15  18  -3 1579.27 533.283   2
 -15  18  -3 3463.15 1296.22   3
 -18  15  -3 1574.21 781.298   4
 -18  15  -3 2017.78 456.620   2
  -3 -15  -3 801.363 950.510   4
  -3 -15  -3 1310.03 300.044   1
  -3 -15   0 59155.7 2257.03   2
  18  -3   0 50438.4 2058.44   1
 -15  18   0 51345.1 2035.12   3
 -18  15   0 51251.8 2050.22   3
 -18  15   0 50636.2 2046.92   4
 -18  15   0 56354.4 1926.43   2
   3 -18   0 56041.5 1820.95   1
  -3 -15   0 53893.9 2186.72   4
  15   3   0 62167.7 1557.34   3
  -3 -15   3 7996.23 1047.43   2
  15   3   3 6805.98 1011.41   1
 -15  18   3 9431.85 1004.26   3
 -15  18   3 8683.17 920.386   1
   3 -18   3 8527.93 1157.84   2
 -18  15   3 7397.14 909.308   3
  18  -3   3 8021.95 1083.53   1
 -18  15   3 8086.99 1140.71   4
  -3 -15   3 9646.92 1169.02   4
  15   3   3 9059.13 1101.92   3
 -18  15   3 9142.97 1282.19   2
   3 -18   3 11308.2 1459.80   1
 -15  18   6 28476.2 1460.59   3
   3 -18   6 28580.0 1490.98   2
 -18  15   6 25247.6 1297.61   3
  15   3   6 29911.3 1585.73   1
 -18  15   6 31128.0 1865.55   4
   3 -18   6 33222.0 2492.92   1
  -3 -15   6 32288.4 2533.08   1
  -3 -15   6 31548.5 1777.81   4
 -18  15   6 34944.8 2254.28   2
 -15  18   6 28563.1 1887.16   4
  15   3   6 31381.7 2017.87   3
  18  -3   6 27676.7 1636.60   1
  -3 -15   6 26923.9 1528.37   2
 -15  18   9 2026.70 1082.54   4
  -3 -15   9 2712.65 941.081   2
 -15  18   9-66.4431 875.806   3
 -18  15   9 1060.90 791.533   3
  18  -3   9 975.276 976.283   1
 -15  18   9 558.453 1480.32   2
 -18  15   9 2280.60 1129.47   4
  -3 -15   9 2879.75 1902.46   1
  -3 -15   9 1465.47 1033.30   4
  18  -3   9 2421.44 1572.04   3
   3 -18   9 1409.58 1673.42   1
  15   3   9 2547.54 1311.85   3
  15   3   9 1898.06 936.982   1
 -18  15   9 2418.80 1451.14   2
 -16  18  -7 2663.22 740.857   4
 -18  16  -7 1837.16 682.016   4
 -18  16  -4 2558.90 354.941   2
 -18  16  -4 3349.20 296.684   2
 -16  18  -4 3375.03 363.161   2
 -16  18  -4 3308.32 344.062   2
 -16  18  -1 1440.63 960.457   3
 -16  18  -1 2277.23 814.521   2
  -2 -16  -1 2733.50 1133.80   2
  18  -2  -1 3098.10 612.224   3
 -18  16  -1 3097.51 1050.18   3
  -2 -16  -1 2267.60 586.084   1
 -18  16  -1 1935.01 884.505   4
  -2 -16  -1 1960.99 940.060   4
 -18  16  -1 1394.78 714.686   2
   2 -18  -1 2509.10 647.194   1
  18  -2  -1 2195.34 561.449   3
  18  -2  -1 3095.64 1102.98   1
  16   2  -1 2227.82 457.740   3
  -2 -16  -1 2317.17 814.109   1
  -2 -16   2 21981.2 1480.12   2
 -16  18   2 20073.6 1294.66   3
   2 -18   2 24260.7 1597.89   2
 -18  16   2 22143.8 1355.44   3
  16   2   2 25291.3 1582.77   1
  -2 -16   2 24232.9 1793.22   1
 -18  16   2 26584.9 1640.88   4
 -18  16   2 26910.9 1728.07   2
   2 -18   2 25537.4 1749.53   1
  -2 -16   2 23572.6 1573.74   4
  18  -2   2 23871.3 1539.05   1
  16   2   2 23943.1 1392.48   3
 -16  18   5 8293.61 1034.09   3
   2 -18   5 7533.51 1024.13   2
  18  -2   5 9588.13 1173.95   1
 -18  16   5 7455.38 929.494   3
 -18  16   5 5927.87 1112.55   4
 -16  18   5 10224.2 1583.50   2
 -16  18   5 9448.96 1305.13   4
  16   2   5 6923.41 1024.62   1
 -18  16   5 7860.67 1439.68   2
  -2 -16   5 6343.52 1638.23   1
   2 -18   5 9213.41 1652.67   1
  -2 -16   5 9884.28 1207.47   4
  16   2   5 9401.94 1332.69   3
  -2 -16   5 6788.34 1004.23   2
 -18  16   8 1906.57 1401.40   2
  -2 -16   8 307.060 859.867   2
 -16  18   8 2280.57 907.455   3
 -18  16   8 2053.11 825.626   3
   2 -18   8 2333.45 868.768   2
 -16  18   8 2770.09 1101.28   4
  18  -2   8 2787.73 952.276   1
 -16  18   8 2365.22 1385.45   2
  -2 -16   8 1874.37 1708.54   1
  16   2   8 1231.09 897.797   1
   2 -18   8 2943.72 1641.21   1
  -2 -16   8 2657.40 1060.80   4
 -18  16   8 1403.54 1073.70   4
  18  -2   8 2838.42 1429.79   3
  16   2   8 2100.03 1262.28   3
 -17  18  -8 29138.6 1340.45   4
 -18  17  -5 36881.9 1663.61   4
 -17  18  -5 39007.9 1765.21   4
  18  -1  -2 11948.6 479.317   3
  17   1  -2 10759.2 548.642   3
 -17  18  -2 12938.1 1582.47   3
 -17  18  -2 13324.1 996.798   2
  -1 -17  -2 11113.8 829.699   1
   1 -18  -2 11917.1 658.940   1
 -18  17  -2 11868.6 903.740   2
 -18  17  -2 10885.5 1201.97   4
  -1 -17  -2 12389.0 656.702   1
   1 -18  -2 11959.5 625.986   1
  18  -1  -2 11601.6 406.773   3
  17   1  -2 11882.1 430.901   3
  -1 -17   1 55101.4 2280.19   2
 -17  18   1 54140.1 2064.52   3
   1 -18   1 55998.1 2315.90   2
 -18  17   1 55434.9 2125.34   3
  18  -1   1 50734.1 2123.31   1
   1 -18   1 59064.4 2245.11   1
 -17  18   1 56897.6 2239.10   2
 -18  17   1 58573.7 2333.16   4
 -18  17   1 56451.4 2199.55   2
  -1 -17   1 61407.6 2313.76   1
  -1 -17   1 59767.3 2415.14   4
  17   1   1 55730.4 2247.74   1
  18  -1   1 59261.6 1924.24   3
  17   1   1 61813.9 1915.81   3
 -17  18   4 6447.43 1198.06   4
  -1 -17   4 6577.52 1024.90   2
   1 -18   4 6649.44 1083.60   2
 -17  18   4 6126.71 985.560   3
 -18  17   4 6370.74 956.505   3
 -17  18   4 7107.29 1413.78   2
  18  -1   4 5572.12 1041.17   1
 -18  17   4 5358.03 1111.13   4
  -1 -17   4 6673.21 1682.68   1
 -18  17   4 4158.96 1240.03   2
  17   1   4 6125.74 1074.78   1
   1 -18   4 6131.97 1454.43   1
  -1 -17   4 6962.37 1140.73   4
  18  -1   4 6497.36 1255.38   3
  17   1   4 7574.65 1196.40   3
   1 -18   4 6789.20 1167.29   4
   1 -18   7 24322.9 1482.04   2
 -17  18   7 26329.2 1491.12   3
 -18  17   7 26205.7 1458.53   3
  17   1   7 25979.6 1615.55   1
 -17  18   7 28554.6 1890.52   4
 -17  18   7 28755.1 2354.58   2
 -18  17   7 27753.7 1910.63   4
 -18  17   7 25436.1 2228.32   2
  -1 -17   7 35846.2 2976.60   1
   1 -18   7 33039.1 2670.10   1
  -1 -17   7 30600.6 1845.96   4
  18  -1   7 34768.1 2360.63   3
  17   1   7 28302.9 2136.00   3
  -1 -17   7 25203.8 1505.11   2
  18  -1   7 27838.5 1685.26   1
 -17  18  10 5184.31 1091.00   3
  18  -1  10 7377.53 1284.95   1
 -17  18  10 8915.47 1435.30   4
 -18  17  10 5480.58 1308.71   4
  17   1  10 6337.13 1246.06   1
 -17  18  10 6432.94 1923.84   2
 -18  17  10 9262.58 1908.13   2
  -1 -17  10 10375.7 2317.47   1
   1 -18  10 11092.5 2301.61   1
  18  -1  10 9994.02 1979.03   3
  17   1  10 7653.98 1698.96   3
 -18  18  -6 55695.8 1969.94   4
 -18  18  -3 431.090 806.323   4
 -18  18  -3 287.137 488.200   2
   0 -18   0 51389.9 2363.03   2
  18   0   0 46240.3 2170.22   1
 -18  18   0 51576.0 2226.64   3
 -18  18   0 54605.8 2255.93   4
 -18  18   0 52493.2 2026.03   2
   0 -18   0 55878.9 2075.84   1
   0 -18   0 54285.4 2408.84   4
  18   0   0 58127.0 1679.00   3
 -18  18   3 167.555 928.190   4
  18   0   3-378.294 898.293   1
 -18  18   3-1103.01 1083.27   2
   0 -18   3 447.228 960.911   4
 -18  18   3 749.263 837.385   3
   0 -18   3 797.299 915.126   2
   0 -18   3-781.283 1205.74   1
  18   0   3-329.238 894.111   3
   0 -18   6 82332.8 2498.37   2
 -18  18   6 81794.7 2355.04   3
   0 -18   6 97220.5 3974.38   1
  18   0   6 77629.8 2516.56   1
 -18  18   6 86204.0 3522.86   2
  18   0   6 93938.7 3348.30   3
 -18  18   6 84356.6 2962.23   4
   0 -18   6 84267.3 2864.50   4
 -18  18   9 1459.94 928.932   3
   0 -18   9-293.678 852.644   2
 -18  18   9 1003.84 1451.55   2
 -18  18   9 1027.49 1110.57   4
   0 -18   9 3458.64 2060.96   1
  18   0   9-54.1008 1406.99   3
  18   0   9 768.586 978.505   1
 -19   0  -7 90.9740 742.464   4
 -19   0  -4 2718.11 927.904   2
  19 -19  -4 2069.13 1010.01   1
   0  19  -4 1690.03 1005.94   3
 -19   0  -4 2484.16 856.835   4
   0  19  -1-411.887 777.299   3
 -19   0  -1 2230.29 963.894   4
  19 -19  -1-57.5013 785.696   1
 -19   0  -1 1179.32 759.672   2
   0  19   2 55371.3 1962.55   3
 -19   0   2 61202.5 2484.07   4
  19 -19   2 58002.7 2072.46   1
 -19   0   2 56571.5 2126.00   2
   0  19   5-327.331 894.009   3
 -19   0   5-609.366 931.767   4
  19 -19   5-1111.98 1058.92   1
 -19   0   5-290.188 903.309   2
  19 -19   8 27805.8 2004.06   1
 -19   0   8 30860.4 2065.70   4
 -19   0   8 27763.7 1986.14   2
   0  19   8 31844.5 1968.16   3
 -19   1  -8 2549.77 766.155   4
 -18  -1  -8 2473.10 783.361   4
 -19   1  -5 866.635 873.662   2
 -18  -1  -5-300.828 940.100   2
   1  18  -5 1589.70 1015.59   3
  -1  19  -5 983.331 1052.23   3
 -19   1  -5 541.623 779.801   4
 -18  -1  -5 963.219 774.804   4
  18 -19  -2 7554.26 965.207   1
   1  18  -2 7244.46 1031.63   3
  -1  19  -2 4253.34 929.178   3
 -19   1  -2 7204.66 1103.74   4
 -18  -1  -2 6075.70 1040.71   4
  19 -18  -2 5920.92 973.852   1
 -19   1  -2 7476.91 966.426   2
 -18  -1  -2 6404.05 914.950   2
 -18  -1   1 11896.6 1281.36   4
   1  18   1 10902.2 1075.24   3
  -1  19   1 10718.7 1078.73   3
  19 -18   1 10752.3 1074.72   1
 -19   1   1 11794.5 1333.05   4
  18 -19   1 10121.5 1029.48   1
 -19   1   1 10405.4 1075.03   2
 -18  -1   1 10927.9 1119.81   2
  18 -19   4 14312.3 1394.88   1
  19 -18   4 12231.7 1319.25   1
 -19   1   4 13165.7 1389.53   4
 -18  -1   4 13225.8 1385.09   4
 -19   1   4 9978.77 1229.10   2
 -18  -1   4 12583.1 1284.31   2
   1  18   4 11748.2 1198.45   3
  -1  19   4 12311.9 1188.51   3
  -1  19   7 1735.31 991.161   3
  18 -19   7 1966.00 1119.91   1
  19 -18   7 3699.67 1232.87   1
 -19   1   7 1088.03 1013.16   4
 -18  -1   7 2730.93 1075.08   4
 -19   1   7 2009.08 1111.24   2
 -18  -1   7 3008.25 1059.64   2
   1  18   7 1650.27 988.656   3
  18 -19  10 3604.17 1492.17   1
  19 -18  10 4194.31 1437.05   1
 -18  -1  10 4141.95 1366.82   4
 -19   1  10 5216.72 1410.02   4
 -19   1  10 2350.57 1287.00   2
 -18  -1  10 3199.62 1310.33   2
   1  18  10 2470.00 1246.20   3
  -1  19  10 4378.74 1304.58   3
 -19   2  -6 11956.2 1376.30   2
 -17  -2  -6 15671.5 1638.96   2
 -19   2  -6 14665.4 1162.22   4
 -17  -2  -6 15312.5 1257.25   4
 -17  -2  -3 15916.1 1272.97   2
   2  17  -3 18878.0 1337.73   3
  -2  19  -3 17775.6 1464.95   3
  19 -17  -3 15374.7 1328.97   1
 -19   2  -3 18424.6 1367.31   4
 -17  -2  -3 17529.2 1356.49   4
 -19   2  -3 20034.4 1237.07   2
  17 -19  -3 19268.3 1280.09   1
  19 -17   0 12752.5 1113.91   1
   2  17   0 12840.1 1047.38   3
  -2  19   0 12800.2 1105.36   3
 -19   2   0 11322.4 1217.42   4
 -17  -2   0 12743.1 1302.55   4
  17 -19   0 11895.3 1013.04   1
 -19   2   0 12484.0 1083.47   2
 -17  -2   0 13520.7 1150.95   2
  -2  19   3 18528.3 1313.39   3
  17 -19   3 21297.3 1496.61   1
  19 -17   3 19695.8 1399.43   1
 -19   2   3 20855.1 1582.67   4
 -17  -2   3 17930.2 1355.95   2
 -17  -2   3 22338.1 1569.21   4
 -19   2   3 19813.5 1451.40   2
   2  17   3 19297.8 1308.04   3
 -17  -2   6 13675.8 1447.01   4
  17 -19   6 12889.0 1492.00   1
  19 -17   6 15400.6 1500.35   1
 -19   2   6 16378.2 1524.95   4
 -19   2   6 15508.9 1570.57   2
 -17  -2   6 15661.3 1488.53   2
   2  17   6 15206.5 1404.34   3
  -2  19   6 13407.0 1356.28   3
  17 -19   9 14491.6 1836.59   1
  19 -17   9 15073.9 1696.94   1
 -17  -2   9 17986.0 1721.60   4
  -2  19   9 16392.6 1695.65   3
 -19   2   9 19326.1 1854.43   2
 -19   2   9 16640.8 1724.97   4
 -17  -2   9 16271.3 1721.70   2
   2  17   9 17209.0 1682.72   3
 -19   3  -7 8543.82 923.004   4
 -16  -3  -7 7328.66 958.375   4
 -19   3  -4 23879.8 1338.67   2
  16 -19  -4 25394.7 1367.17   1
 -16  -3  -4 24266.2 1549.95   2
 -16  -3  -4 26421.9 1514.01   4
   3  16  -4 22133.9 1487.48   3
  -3  19  -4 21799.1 1649.85   3
  19 -16  -4 24057.8 1628.86   1
 -19   3  -4 26277.7 1453.00   4
   3  16  -1 9953.44 947.655   3
  -3  19  -1 10063.2 1061.91   3
 -19   3  -1 10678.6 1158.43   4
  19 -16  -1 13046.1 1154.67   1
 -16  -3  -1 10559.6 1166.76   4
 -19   3  -1 11025.6 995.904   2
 -16  -3  -1 9317.02 1013.68   2
  16 -19  -1 11674.7 954.586   1
  -3  19   2 35433.9 1592.34   3
  16 -19   2 36921.2 1630.20   1
 -19   3   2 38399.4 1961.50   4
 -16  -3   2 41079.8 1990.74   4
  19 -16   2 35473.7 1652.89   1
 -19   3   2 36458.2 1749.31   2
 -16  -3   2 39787.1 1759.21   2
   3  16   2 36886.6 1563.61   3
 -19   3   5 7851.71 1182.78   4
  16 -19   5 8052.65 1259.20   1
  19 -16   5 7419.98 1181.16   1
 -16  -3   5 8797.44 1194.82   4
 -19   3   5 9319.75 1285.34   2
 -16  -3   5 6991.62 1093.10   2
   3  16   5 7079.88 1101.75   3
  -3  19   5 8485.85 1098.60   3
  16 -19   8 40525.0 2403.34   1
  19 -16   8 39494.9 2260.53   1
 -19   3   8 36999.1 2197.63   4
 -16  -3   8 38669.9 2161.36   4
 -19   3   8 35708.3 2235.45   2
 -16  -3   8 34284.5 2012.74   2
   3  16   8 34533.9 2063.33   3
  -3  19   8 35149.0 1970.56   3
 -19   4  -8 829.045 614.648   4
 -15  -4  -8 763.719 716.775   4
 -19   4  -5 26412.1 1457.15   2
 -15  -4  -5 27379.0 1829.44   2
   4  15  -5 26615.5 1624.64   3
  -4  19  -5 23881.9 1776.94   3
 -15  -4  -5 27648.9 1565.56   4
 -19   4  -5 27307.9 1424.24   4
   4  15  -2 24509.7 1253.08   3
  -4  19  -2 25130.3 1481.21   3
  15 -19  -2 24075.6 1201.92   1
 -19   4  -2 23543.4 1457.05   4
  19 -15  -2 25739.4 1481.60   1
 -19   4  -2 22196.4 1183.93   2
 -15  -4  -2 24551.0 1501.05   4
 -15  -4  -2 25519.9 1470.89   2
   4  15   1 11702.8 991.476   3
  -4  19   1 11463.3 1062.47   3
  15 -19   1 11637.1 987.622   1
 -19   4   1 13735.1 1320.15   4
 -15  -4   1 13565.3 1284.32   4
 -19   4   1 13889.1 1130.30   2
 -15  -4   1 12321.8 1130.75   2
  19 -15   1 11372.8 1064.53   1
  -4  19   4 1046.95 843.684   3
 -15  -4   4 1077.83 908.776   4
 -19   4   4 471.389 887.391   4
  15 -19   4 1411.95 999.028   1
 -19   4   4 716.206 923.995   2
  19 -15   4 349.629 861.308   1
 -15  -4   4 1358.04 858.575   2
   4  15   4 262.883 781.623   3
  15 -19   7 12388.9 1597.01   1
  19 -15   7 12505.5 1497.15   1
 -19   4   7 13196.8 1444.26   4
 -15  -4   7 12714.3 1403.64   4
 -19   4   7 14439.7 1582.05   2
 -15  -4   7 12197.1 1347.23   2
   4  15   7 11612.5 1399.06   3
  -4  19   7 13506.8 1356.15   3
  -4  19  10-105.646 1137.39   3
  15 -19  10-91.7660 1403.29   1
  19 -15  10-686.014 1244.72   1
 -19   4  10 1772.06 1284.73   2
 -15  -4  10 818.377 1157.70   2
 -19   4  10 1177.93 1184.88   4
 -15  -4  10 366.148 1105.29   4
   4  15  10 956.482 1242.13   3
 -19   5  -6 3004.04 938.477   2
 -19   5  -6 3488.69 804.697   4
 -14  -5  -6 5263.07 940.961   4
 -14  -5  -3 50494.8 2045.68   2
   5  14  -3 46079.9 1621.31   3
  -5  19  -3 49829.8 2091.69   3
 -19   5  -3 51206.4 1910.75   4
 -14  -5  -3 47736.9 1929.49   4
  19 -14  -3 50333.8 2125.78   1
  14 -19  -3 49328.4 1598.14   1
 -19   5  -3 46011.8 1526.09   2
  -5  19   0 6727.98 988.320   3
 -19   5   0 7420.33 1065.01   4
  14 -19   0 5326.24 762.206   1
 -14  -5   0 5579.03 1011.49   4
   5  14   0 4928.29 738.894   3
 -19   5   0 5126.94 805.162   2
 -14  -5   0 4449.32 891.018   2
  19 -14   0 3217.40 853.210   1
  -5  19   3 43234.5 1753.68   3
  14 -19   3 43812.4 1870.72   1
 -14  -5   3 43593.2 2016.60   4
 -19   5   3 44902.8 2062.11   4
  19 -14   3 41625.6 1785.09   1
 -14  -5   3 41009.2 1793.38   2
 -19   5   3 43717.5 1947.92   2
   5  14   3 42145.7 1688.62   3
  -5  19   6 1968.04 925.428   3
  14 -19   6 1173.17 1131.07   1
 -19   5   6 721.983 921.409   4
 -14  -5   6 656.789 917.267   2
 -14  -5   6 437.177 947.062   4
 -19   5   6 1882.07 1118.92   2
  19 -14   6-201.752 974.845   1
   5  14   6-1087.27 986.157   3
  19 -14   9 12830.4 1578.67   1
 -19   5   9 13683.8 1586.23   4
 -19   5   9 12796.5 1708.03   2
 -14  -5   9 15015.4 1589.51   4
 -14  -5   9 15200.1 1551.17   2
   5  14   9 13814.2 1626.82   3
  -5  19   9 14415.0 1511.94   3
  14 -19   9 12991.5 1844.15   1
 -19   6  -7 15461.4 1021.62   4
 -13  -6  -7 14880.5 1215.74   4
 -13  -6  -4 29929.7 1779.10   2
   6  13  -4 26336.4 1413.01   3
  -6  19  -4 23805.5 1745.05   3
 -19   6  -4 26075.4 1410.16   4
 -13  -6  -4 29096.5 1572.02   4
  -6  19  -4 22556.5 1178.74   2
  19 -13  -4 24166.9 1068.33   3
 -19   6  -4 27187.3 1219.46   2
   6  13  -1 15355.0 937.044   3
  -6  19  -1 13534.0 1175.83   3
 -19   6  -1 16314.3 1261.75   4
  19 -13  -1 13066.3 1148.01   1
 -13  -6  -1 15924.6 1317.22   4
  13 -19  -1 13455.2 885.488   1
 -19   6  -1 14864.2 1007.87   2
 -13  -6  -1 14279.9 1189.13   2
  -6  19   2 69190.2 2066.01   3
  13 -19   2 71234.9 2116.78   1
 -13  -6   2 76183.2 2527.88   4
 -19   6   2 70457.3 2261.11   2
 -19   6   2 74402.1 2531.64   4
  19 -13   2 70883.8 2142.33   1
 -13  -6   2 72704.8 2234.79   2
   6  13   2 71149.9 1991.45   3
 -13  -6   5 5624.26 1051.86   4
 -19   6   5 5731.54 1160.90   2
 -19   6   5 5422.40 1105.78   4
  19 -13   5 7893.68 1148.08   1
 -13  -6   5 6419.31 1053.25   2
   6  13   5 6997.21 1080.30   3
  13 -19   5 6295.36 1297.08   1
  -6  19   5 6870.27 1035.10   3
  19 -13   8 27654.0 1853.45   1
 -19   6   8 25030.1 1837.56   4
 -19   6   8 27202.8 1994.21   2
 -13  -6   8 27543.7 1851.50   4
 -13  -6   8 24742.6 1704.09   2
   6  13   8 24704.9 1851.92   3
  13 -19   8 25672.0 2146.06   1
  -6  19   8 23222.7 1657.02   3
 -19   7  -5 33916.7 1380.52   2
 -12  -7  -5 31479.5 1968.12   2
   7  12  -5 33086.8 1494.04   3
  -7  19  -5 34640.9 2070.17   3
  -7  19  -5 31609.9 1226.91   2
 -12  -7  -5 36229.3 1728.10   4
  19 -12  -5 30836.9 1184.19   3
 -19   7  -5 37005.4 1543.44   4
  12 -19  -2 5950.42 663.816   1
  19 -12  -2 5644.38 611.293   3
   7  12  -2 6858.69 732.813   3
  19 -12  -2 6020.81 1013.05   1
 -12  -7  -2 5939.79 978.742   2
  -7  19  -2 3685.36 947.919   3
 -19   7  -2 5402.01 920.144   4
 -19   7  -2 5198.19 667.138   2
 -12  -7  -2 6017.26 1013.51   4
  19 -12   1 27108.6 1413.79   1
  -7  19   1 25448.4 1386.02   3
  12 -19   1 28202.4 1307.16   1
 -19   7   1 27896.7 1594.71   4
 -19   7   1 28085.3 1437.68   2
 -12  -7   1 28710.0 1653.60   4
 -12  -7   1 26035.1 1463.50   2
   7  12   1 27548.0 1252.74   3
 -19   7   4 10997.1 1303.94   2
  -7  19   4 10043.9 1067.64   3
 -12  -7   4 12020.1 1288.43   4
 -19   7   4 12165.9 1317.68   4
  19 -12   4 10599.7 1160.46   1
 -12  -7   4 8345.05 540.463   3
 -12  -7   4 9752.33 1120.74   2
   7  12   4 13767.2 1234.11   3
  12 -19   4 10309.4 1334.65   1
  12 -19   7 8879.70 1500.41   1
 -12  -7   7 7157.39 1156.06   4
 -19   7   7 7981.51 1224.88   4
 -19   7   7 5622.85 1303.13   2
 -12  -7   7 6224.27 1107.54   2
  19 -12   7 6733.95 1182.31   1
   7  12   7 7097.02 1329.44   3
  -7  19   7 7502.33 1179.41   3
  -7  19  10 5114.03 1234.46   3
  12 -19  10 6719.25 1730.52   1
 -19   7  10 6006.51 1359.03   4
 -12  -7  10 9482.46 1400.77   4
 -19   7  10 7348.48 1510.56   2
  19 -12  10 6535.12 1384.84   1
 -12  -7  10 6174.44 1204.13   2
 -12  -7  10 7996.60 1845.57   1
   7  12  10 3928.31 1316.30   3
 -19   8  -6 1604.86 681.691   4
  -8  19  -6 1546.66 551.142   2
 -11  -8  -6 2553.75 877.021   4
  19 -11  -6 867.273 619.761   3
  19 -11  -3 13052.7 1396.24   1
 -11  -8  -3 14234.2 1347.40   2
   8  11  -3 15157.0 937.470   3
  -8  19  -3 14438.1 1413.89   3
 -19   8  -3 16687.1 1189.24   4
 -19   8  -3 15331.7 880.001   2
 -11  -8  -3 14358.2 915.645   1
  11 -19  -3 15409.6 812.684   1
 -11  -8  -3 17428.1 1350.73   4
  -8  19  -3 14294.7 922.512   2
  19 -11  -3 16176.8 790.814   3
  -8  19   0 5454.77 938.763   3
  19 -11   0 5889.57 746.161   3
  11 -19   0 5700.47 720.953   1
  19 -11   0 5844.07 909.220   1
  -8  19   0 5427.97 985.835   1
 -19   8   0 6481.38 1034.07   4
 -11  -8   0 5234.15 992.686   4
 -19   8   0 4787.46 786.036   2
 -11  -8   0 5452.40 889.146   3
 -11  -8   0 6223.57 933.346   2
   8  11   0 4819.83 662.801   3
  -8  19   3 20110.3 1286.17   3
 -19   8   3 24804.7 1590.67   4
 -19   8   3 21732.4 1543.27   2
 -11  -8   3 25010.5 1588.03   4
  19 -11   3 19329.3 1294.65   1
 -11  -8   3 21142.6 951.841   3
 -11  -8   3 20244.7 1348.89   2
   8  11   3 23356.7 1363.15   3
  11 -19   3 22295.2 1545.70   1
  -8  19   6 278.844 802.700   3
  11 -19   6-354.914 1155.09   1
 -19   8   6 750.702 950.836   4
 -19   8   6 2078.48 1069.20   2
 -11  -8   6 1531.67 944.404   4
  19 -11   6 702.206 892.786   1
 -11  -8   6 1112.33 868.183   2
   8  11   6 823.147 914.935   3
 -19   8   9 15580.1 1643.36   4
  19 -11   9 11119.5 1455.40   1
  11 -19   9 18105.3 2110.78   1
 -19   8   9 15506.9 1757.37   2
 -11  -8   9 16126.7 1602.62   4
 -11  -8   9 15691.8 1474.55   2
   8  11   9 15221.1 1668.84   3
  -8  19   9 13509.7 1399.51   3
 -19   9  -7 18087.1 1031.81   4
 -10  -9  -7 18109.7 1355.32   4
 -10  -9  -4 19552.6 1049.31   1
 -10  -9  -4 17796.2 1561.43   2
   9  10  -4 20943.3 1056.86   3
  -9  19  -4 20961.5 1756.27   3
 -19   9  -4 19007.7 1225.63   4
 -10  -9  -4 20904.4 1458.03   4
  -9  19  -4 19837.5 978.698   2
  19 -10  -4 15767.2 738.593   3
 -19   9  -4 20006.7 936.330   2
   9  10  -1 21379.1 960.968   3
 -10  -9  -1 22225.0 1442.10   2
  19 -10  -1 21820.7 970.682   3
  -9  19  -1 22330.0 1412.79   3
  10 -19  -1 21801.1 948.769   1
 -19   9  -1 21427.0 1400.41   4
 -10  -9  -1 24417.3 1517.55   4
 -19   9  -1 22846.5 1147.09   2
  19 -10  -1 20860.7 1412.24   1
  19 -10   2 47725.0 1817.47   1
  -9  19   2 50945.2 1815.87   3
  19 -10   2 51825.3 1880.81   2
  -9  19   2 46809.1 1542.59   1
 -19   9   2 52146.2 2111.51   4
 -19   9   2 46242.9 1896.95   2
 -10  -9   2 49225.0 1540.28   3
 -10  -9   2 52608.1 2119.17   4
 -10  -9   2 51057.3 1892.54   2
   9  10   2 49471.5 1668.55   3
  10 -19   2 49291.6 1897.22   1
  -9  19   5 8013.87 1054.91   3
 -19   9   5 4522.19 489.275   3
  19 -10   5 5480.61 672.441   2
 -19   9   5 9409.24 1357.58   2
  19 -10   5 8329.31 1122.79   1
 -10  -9   5 7725.01 1128.22   4
 -19   9   5 8076.23 1219.68   4
 -10  -9   5 5881.44 1003.86   2
  10 -19   5 8132.13 1421.33   1
   9  10   5 8578.67 1197.26   3
 -10  -9   5 5706.63 592.822   3
   9  10   5 8052.24 875.862   1
  -9  19   8 3840.42 1010.98   3
  10 -19   8 3443.44 1476.13   1
 -19   9   8 4279.97 1148.71   4
 -19   9   8 7340.12 1461.72   2
 -10  -9   8 5602.42 1126.02   4
  19 -10   8 3129.05 1098.42   1
 -10  -9   8 4082.33 1033.44   2
   9  10   8 3833.41 1276.01   3
 -19  10  -5 6401.92 630.926   2
 -19  10  -5 7943.88 886.565   4
  -9 -10  -5 8280.74 1106.68   4
  19  -9  -5 5794.05 501.894   3
 -10  19  -5 5661.84 570.020   2
  -9 -10  -5 5690.06 778.849   1
 -10  19  -2 48835.0 1552.83   2
  19  -9  -2 53635.5 1218.48   3
  10   9  -2 55568.8 1334.22   3
  -9 -10  -2 50458.7 2079.63   2
 -10  19  -2 54182.7 2169.57   3
   9 -19  -2 54492.6 1207.26   1
  19  -9  -2 48595.4 2053.49   1
  -9 -10  -2 59684.5 2223.43   4
 -19  10  -2 56627.1 1508.13   2
 -19  10  -2 53118.6 1937.23   4
  -9 -10  -2 50493.4 1408.09   1
 -10  19   1 23621.1 1339.19   3
 -10  19   1 24550.7 1410.16   1
  19  -9   1 21147.7 1323.34   1
 -19  10   1 26256.3 1401.15   2
 -19  10   1 24859.4 1561.22   4
  -9 -10   1 26389.6 1592.37   4
  -9 -10   1 22853.3 1240.97   3
  10   9   1 25362.1 1181.72   3
  -9 -10   1 22450.0 1389.91   2
   9 -19   1 26718.4 1319.09   1
 -10  19   4 18871.7 1304.03   3
  10   9   4 16912.1 1137.23   1
 -19  10   4 15522.3 884.042   3
  19  -9   4 16433.7 1098.41   2
 -19  10   4 18812.9 1478.22   4
 -10  19   4 12398.9 708.000   1
  -9 -10   4 19747.5 1465.11   4
  19  -9   4 16533.6 1294.18   1
   9 -19   4 18469.6 1570.29   1
  -9 -10   4 18272.8 1282.86   2
  10   9   4 19496.9 1432.72   3
  -9 -10   4 15742.5 861.575   3
 -19  10   4 18484.3 1528.06   2
 -19  10   7 16699.9 789.006   3
  19  -9   7 21947.8 1598.79   1
 -19  10   7 21688.5 1681.04   4
 -19  10   7 21419.8 1799.31   2
  -9 -10   7 22547.3 1586.16   4
  10   9   7 17476.5 1096.51   1
   9 -19   7 22636.8 2076.90   1
  -9 -10   7 21952.0 1515.59   2
  10   9   7 24352.8 1850.42   3
 -10  19   7 20448.8 1458.51   3
 -10  19  10 8474.37 1268.82   4
  19  -9  10 9572.70 1422.13   1
 -19  10  10 12704.9 1557.38   4
 -19  10  10 12203.5 1809.78   2
  -9 -10  10 10660.6 2124.87   1
  -9 -10  10 13815.9 1524.25   4
  -9 -10  10 9579.36 1344.73   2
   9 -19  10 12061.3 2044.88   1
  10   9  10 10041.9 1596.95   3
 -10  19  10 8957.44 1295.02   3
 -19  11  -6 1446.01 650.412   4
 -11  19  -6 300.658 213.156   2
  -8 -11  -6 338.289 634.156   1
  -8 -11  -6 1096.74 867.344   4
  11   8  -3 20652.4 858.503   3
  -8 -11  -3 21396.7 1655.52   2
 -11  19  -3 21697.8 1698.08   3
 -19  11  -3 20892.6 1342.96   4
  -8 -11  -3 20102.2 896.885   1
   8 -19  -3 16570.4 567.347   1
  -8 -11  -3 20772.9 1483.49   4
 -19  11  -3 21986.3 919.051   2
 -11  19  -3 20093.8 969.674   2
  19  -8  -3 20392.1 670.978   3
  -8 -11   0 6857.51 1047.44   2
   8 -19   0 7589.13 797.565   1
 -19  11   0 8562.39 1074.23   4
 -11  19   0 7412.64 998.175   3
 -19  11   0 6112.63 844.958   2
  19  -8   0 8597.60 829.969   3
 -11  19   0 6573.46 1105.79   1
  -8 -11   0 8653.98 1131.65   4
  19  -8   0 6933.77 1024.79   1
  11   8   0 7075.13 692.591   3
 -19  11   3 17104.0 1431.56   2
 -11  19   3 13631.7 989.441   1
 -11  19   3 15632.4 1166.86   3
 -19  11   3 14431.4 978.174   3
 -19  11   3 16916.3 1451.31   4
  19  -8   3 14548.3 1111.63   2
  -8 -11   3 16967.0 1375.20   4
   8 -19   3 16293.7 1449.92   1
  11   8   3 16909.2 1260.44   3
  -8 -11   3 17347.4 989.304   3
  -8 -11   3 16515.7 1229.15   2
  19  -8   3 14805.2 1202.45   1
 -11  19   6 521.875 814.638   3
  19  -8   6 1394.47 943.061   1
 -19  11   6 974.716 565.588   3
  11   8   6 1666.17 735.710   1
 -19  11   6 2455.84 1008.63   4
 -19  11   6 1751.98 1116.97   2
  -8 -11   6 1669.76 987.787   4
  11   8   6 1741.64 1017.44   3
  -8 -11   6 3208.76 932.647   2
   8 -19   6 3124.83 1328.84   1
 -11  19   9 12082.3 1454.42   4
  -8 -11   9 16277.2 2411.73   1
 -19  11   9 10790.0 1489.98   4
 -19  11   9 12991.1 1706.79   2
  -8 -11   9 10236.1 1358.45   4
  19  -8   9 9191.52 1368.08   1
   8 -19   9 17992.4 2178.40   1
  -8 -11   9 11275.3 1287.84   2
  11   8   9 13212.7 1639.62   3
 -11  19   9 11053.9 1290.49   3
 -19  12  -7 5905.15 777.339   4
  -7 -12  -4 9331.14 686.367   1
  -7 -12  -4 10068.5 1461.21   2
 -12  19  -4 9352.91 1486.63   3
 -19  12  -4 9111.79 983.697   4
  -7 -12  -4 11708.4 1203.71   4
 -12  19  -4 11361.6 681.617   2
 -19  12  -4 9694.60 592.234   2
  -7 -12  -1 22545.7 1536.81   2
   7 -19  -1 27709.5 973.941   1
  19  -7  -1 25633.7 1004.82   3
 -12  19  -1 23931.7 1300.24   2
 -12  19  -1 25127.0 1559.58   3
  19  -7  -1 22637.6 1524.36   1
 -19  12  -1 25185.0 1523.29   4
 -19  12  -1 24112.7 1172.18   2
  -7 -12  -1 26175.5 1630.77   4
  -7 -12  -1 21423.2 1065.94   1
  12   7  -1 26746.2 932.051   3
 -12  19   2 6200.97 950.888   3
  19  -7   2 5869.08 918.220   1
 -19  12   2 5359.71 867.009   3
 -19  12   2 6837.84 1081.95   4
  -7 -12   2 6511.99 1104.98   4
 -12  19   2 5296.63 915.432   1
 -19  12   2 7635.18 1080.37   2
  12   7   2 7070.41 886.968   3
  -7 -12   2 6023.05 773.575   3
  -7 -12   2 6331.78 986.822   2
   7 -19   2 4266.68 1005.92   1
 -12  19   5 35689.5 1634.72   3
  -7 -12   5 38972.5 1952.94   4
 -19  12   5 32384.0 1247.06   3
 -19  12   5 36752.0 1955.06   4
  19  -7   5 26951.0 1289.16   2
 -19  12   5 34480.4 2035.71   2
   7 -19   5 35385.8 2244.44   1
  19  -7   5 33796.1 1705.31   1
  12   7   5 37352.1 1979.50   3
  -7 -12   5 35423.7 1700.98   2
 -12  19   5 27626.6 1053.13   1
  -7 -12   5 31356.1 1180.08   3
  12   7   5 33367.0 1476.97   1
 -12  19   8 5580.36 1087.27   3
 -19  12   8 5270.64 750.037   3
  12   7   8 4821.11 869.162   1
  -7 -12   8 10656.4 2164.18   1
 -19  12   8 5749.48 1224.54   4
 -19  12   8 6183.38 1375.89   2
   7 -19   8 10623.2 1868.88   1
  -7 -12   8 6473.13 1160.28   4
  12   7   8 7650.38 1446.50   3
  -7 -12   8 5954.58 1039.38   2
  19  -7   8 4110.58 1144.27   1
  -6 -13  -5 4526.71 1051.84   4
 -19  13  -5 4255.85 835.642   4
 -13  19  -5 2381.58 243.719   2
  -6 -13  -5 2015.78 434.722   1
  13   6  -2 69740.8 1248.46   3
  19  -6  -2 72480.4 1197.85   3
 -13  19  -2 65020.2 1760.94   2
  -6 -13  -2 63447.1 1422.03   1
  -6 -13  -2 62733.4 2489.94   2
 -13  19  -2 66409.8 2568.62   3
  19  -6  -2 65784.9 2505.80   1
   6 -19  -2 68006.9 1165.87   1
 -19  13  -2 67801.5 2243.55   4
 -19  13  -2 67105.5 1648.44   2
  -6 -13  -2 71149.9 2452.37   4
  -6 -13   1 12780.4 1196.45   2
 -13  19   1 14743.9 1223.65   3
  19  -6   1 12311.3 1136.92   3
 -19  13   1 11949.3 1116.93   3
 -19  13   1 13745.7 1286.46   4
 -19  13   1 13643.2 1173.04   2
  19  -6   1 12339.2 1170.12   1
  -6 -13   1 13525.4 1329.51   4
 -13  19   1 12720.4 1188.58   1
   6 -19   1 14035.3 1158.95   1
  13   6   1 14574.8 996.200   3
 -13  19   4 23354.3 1364.67   3
   6 -19   4 26364.1 1899.77   1
 -19  13   4 23479.5 1169.00   3
  13   6   4 21435.8 1341.93   1
   6 -19   4 21560.9 1424.83   2
  -6 -13   4 24518.9 1629.22   4
 -19  13   4 26597.6 1737.32   4
 -19  13   4 23770.6 1821.55   2
  19  -6   4 19365.6 1240.00   2
  13   6   4 24955.5 1599.36   3
  -6 -13   4 21951.9 1373.89   2
 -13  19   4 18942.5 1066.52   1
  -6 -13   4 21025.6 1067.45   3
  19  -6   4 22214.5 1419.51   1
 -13  19   7 13072.4 1249.63   3
 -19  13   7 12589.0 962.574   3
   6 -19   7 11230.5 1035.86   2
  13   6   7 13492.6 1157.82   1
 -19  13   7 16279.5 1543.96   4
 -19  13   7 17568.0 1801.30   2
  -6 -13   7 18063.0 2257.29   1
   6 -19   7 17329.7 2013.07   1
  19  -6   7 14300.1 1330.75   1
  -6 -13   7 17433.9 1491.00   4
  13   6   7 16567.7 1705.94   3
  -6 -13   7 13855.6 1273.22   2
  19  -6  10 17294.5 1665.59   1
 -13  19  10 27202.9 2749.93   2
 -13  19  10 19578.7 1669.32   4
  -6 -13  10 24753.1 2834.78   1
 -19  13  10 22692.5 1877.62   4
 -19  13  10 19166.6 2076.37   2
   6 -19  10 21876.3 2549.52   1
  13   6  10 22578.4 2105.80   3
  -6 -13  10 17027.4 1444.73   2
 -13  19  10 16075.9 1471.08   3
 -19  14  -6 441.239 636.681   4
 -14  19  -3 37757.4 1212.95   2
  -5 -14  -3 36052.8 2150.58   2
 -14  19  -3 38316.0 2164.40   3
 -19  14  -3 39810.1 1747.63   4
  -5 -14  -3 39829.7 1957.85   4
 -19  14  -3 37868.3 1091.03   2
  -5 -14  -3 32807.7 947.947   1
   5 -19   0 4875.35 808.238   1
  -5 -14   0 6379.53 1112.09   2
  19  -5   0 5934.54 1044.87   1
 -14  19   0 5606.29 1005.11   3
  -5 -14   0 5568.93 832.684   1
  19  -5   0 7172.75 847.966   3
 -19  14   0 5837.09 1003.93   4
 -19  14   0 6668.73 893.769   2
  -5 -14   0 7737.56 1112.86   4
  14   5   0 6011.10 661.937   3
 -14  19   3 45269.5 1748.34   3
 -19  14   3 49348.3 1695.45   3
  19  -5   3 45066.0 1850.48   1
   5 -19   3 47663.4 1997.58   2
 -19  14   3 47486.8 2133.26   4
 -19  14   3 51519.4 2275.04   2
  14   5   3 45634.1 1854.85   1
   5 -19   3 48620.8 2335.37   1
  -5 -14   3 49974.4 2174.32   4
  14   5   3 54956.6 2084.30   3
 -14  19   3 40629.0 1580.20   1
  -5 -14   3 45574.2 1883.23   2
  -5 -14   6 2160.52 890.177   2
 -14  19   6 25.0833 827.958   3
  14   5   6 3402.89 900.942   1
 -19  14   6 1984.66 705.307   3
   5 -19   6 1636.44 862.777   2
  19  -5   6 1258.01 920.764   1
 -19  14   6 3446.38 1100.71   4
  -5 -14   6 3523.10 1819.85   1
 -19  14   6 1919.17 1280.53   2
  -5 -14   6 2734.07 975.212   4
   5 -19   6 2497.55 1544.83   1
  14   5   6 2112.70 1130.18   3
 -14  19   9 6712.73 1151.71   3
 -14  19   9 11383.0 2112.20   2
  -5 -14   9 6268.24 2049.95   1
 -19  14   9 8905.22 1737.48   2
 -14  19   9 6855.76 1278.74   4
 -19  14   9 7019.20 1285.98   4
  19  -5   9 7137.75 1260.50   1
  -5 -14   9 10138.3 1337.73   4
  14   5   9 9430.78 1619.54   3
  14   5   9 5209.92 1026.35   1
  -5 -14   9 7059.28 1121.85   2
   5 -19   9 8256.93 1947.68   1
 -19  15  -7 12452.0 990.753   4
 -15  19  -4 1111.19 348.014   2
  -4 -15  -4 578.109 210.623   1
 -19  15  -4 944.409 758.994   4
 -15  19  -4 927.360 435.502   2
 -19  15  -4 960.324 281.346   2
  19  -4  -1 16435.8 1484.47   1
  -4 -15  -1 15425.5 1494.28   2
  19  -4  -1 17135.7 881.774   3
 -15  19  -1 13909.9 1430.68   3
  -4 -15  -1 15683.4 933.415   1
 -19  15  -1 15271.9 1269.09   4
 -19  15  -1 15645.0 1032.51   2
  -4 -15  -1 16664.7 1441.96   4
   4 -19  -1 16419.0 888.892   1
  15   4  -1 14884.4 715.306   3
  -4 -15   2 25972.0 1581.15   2
 -15  19   2 27037.1 1498.63   3
 -19  15   2 25309.6 1420.36   3
   4 -19   2 23794.2 1617.40   2
 -19  15   2 26954.9 1690.55   4
 -19  15   2 26372.0 1733.86   2
  19  -4   2 26565.3 1544.55   1
  -4 -15   2 29925.1 1752.04   4
   4 -19   2 28591.5 1739.12   1
  15   4   2 29839.0 1491.72   3
  15   4   2 27099.0 1647.21   1
  19  -4   5 26199.9 1565.62   1
 -15  19   5 24908.7 1430.85   3
 -19  15   5 26562.1 1304.23   3
   4 -19   5 24659.3 1493.33   2
 -15  19   5 18117.4 1050.74   1
 -19  15   5 30682.3 2094.55   2
  -4 -15   5 31327.2 2454.95   1
 -19  15   5 30009.5 1840.93   4
   4 -19   5 33118.0 2311.95   1
  15   4   5 26785.6 1525.42   1
  -4 -15   5 29431.2 1763.42   4
  15   4   5 31068.0 1863.56   3
  -4 -15   5 27152.3 1529.22   2
  -4 -15   8-764.695 808.124   2
 -15  19   8 1635.33 964.628   3
 -19  15   8 403.829 769.833   3
  19  -4   8 3145.79 1088.39   1
   4 -19   8 1052.36 813.137   2
 -15  19   8 2043.38 1485.18   2
 -19  15   8 1252.01 1245.48   2
  -4 -15   8-305.717 1779.27   1
  -4 -15   8 1307.45 1046.12   4
 -15  19   8 2439.60 1144.44   4
   4 -19   8 2961.86 1655.13   1
  15   4   8 2165.84 1216.62   3
 -19  15   8 1906.00 1060.57   4
  15   4   8 886.179 919.751   1
 -16  19  -8 33393.0 1456.74   4
 -19  16  -5 7633.92 996.583   4
  19  -3  -2 40513.4 807.987   3
  -3 -16  -2 39835.8 1098.41   1
 -16  19  -2 35314.6 1475.81   2
  -3 -16  -2 36154.5 2160.94   2
 -16  19  -2 36548.6 2130.33   3
 -16  19  -2 40403.4 1598.12   2
 -19  16  -2 42695.6 1880.35   4
 -19  16  -2 40860.8 1393.06   2
  -3 -16  -2 44764.1 2152.13   4
  19  -3  -2 34314.2 817.195   3
   3 -19  -2 36411.7 871.410   1
  16   3  -2 40928.0 825.832   3
  19  -3   1 9765.89 1212.03   1
  -3 -16   1 9475.42 1210.41   2
 -16  19   1 9918.41 1136.55   3
 -19  16   1 8789.75 1157.64   3
   3 -19   1 9468.15 1320.65   2
  16   3   1 9645.73 1273.42   1
   3 -19   1 12093.1 1275.99   1
 -19  16   1 9751.37 1177.40   2
  -3 -16   1 11697.0 1357.36   4
 -19  16   1 9084.42 1191.63   4
  16   3   1 11674.8 1004.14   3
  -3 -16   4 25060.0 1527.85   2
 -16  19   4 25237.3 1424.86   3
   3 -19   4 22561.1 1497.78   2
 -19  16   4 23096.0 1335.07   3
  19  -3   4 23392.6 1498.38   1
  -3 -16   4 28473.3 2293.96   1
 -19  16   4 25768.0 1712.72   4
 -19  16   4 23242.8 1868.22   2
   3 -19   4 27653.2 2088.38   1
  -3 -16   4 26760.5 1730.00   4
  16   3   4 23837.2 1703.02   3
  16   3   4 23646.7 1526.76   1
 -19  16   7 9409.98 1574.56   2
 -16  19   7 8726.99 1129.85   3
   3 -19   7 7613.72 1055.88   2
 -19  16   7 8287.07 967.120   3
  16   3   7 7386.45 1127.72   1
 -16  19   7 9203.67 1420.02   4
 -19  16   7 10202.5 1365.12   4
 -16  19   7 9381.69 1747.27   2
  -3 -16   7 10137.6 2073.86   1
   3 -19   7 12475.9 1985.39   1
  -3 -16   7 9071.81 1286.34   4
  16   3   7 9848.13 1604.46   3
  19  -3   7 11272.9 1284.35   1
  -3 -16   7 9220.61 1147.37   2
  16   3  10 8166.23 1289.49   1
 -16  19  10 11333.5 1307.36   3
 -16  19  10 14079.4 2288.85   2
 -16  19  10 12403.1 1551.37   4
 -19  16  10 10842.6 1941.92   2
   3 -19  10 18236.3 2658.74   1
  -3 -16  10 10425.4 2277.54   1
 -19  16  10 11551.4 1490.85   4
  19  -3  10 8919.21 1419.88   1
  19  -3  10 16405.1 2297.47   3
  16   3  10 13659.0 1915.40   3
 -17  19  -6 14633.8 1232.39   4
 -19  17  -6 13917.6 1161.00   4
 -17  19  -3 21540.0 1020.73   2
 -17  19  -3 22794.4 1919.67   3
 -17  19  -3 28111.2 1164.84   2
 -19  17  -3 25570.7 983.663   2
 -19  17  -3 22282.5 1464.78   4
  -2 -17   0 13533.3 1467.24   2
  -2 -17   0 13915.7 1319.23   1
 -17  19   0 13846.3 1387.27   3
 -19  17   0 11810.8 1345.22   3
 -17  19   0 15009.0 1366.46   2
 -19  17   0 14655.2 1348.42   4
 -19  17   0 14832.6 1259.49   2
   2 -19   0 14729.6 1187.69   1
  -2 -17   0 14369.9 1439.52   4
  19  -2   0 15206.9 1090.05   3
  19  -2   0 11598.6 1344.01   1
  17   2   0 15217.5 946.745   3
  17   2   3 16822.8 1380.87   1
  -2 -17   3 16761.6 1382.05   2
 -17  19   3 16405.8 1276.40   3
   2 -19   3 15088.1 1423.89   2
 -19  17   3 15234.3 1212.17   3
  -2 -17   3 15925.5 1783.47   1
 -19  17   3 17802.1 1621.98   2
 -19  17   3 16033.5 1487.04   4
   2 -19   3 19320.5 1784.18   1
  19  -2   3 18229.6 1448.45   1
  -2 -17   3 16642.3 1502.23   4
  17   2   3 16699.4 1418.26   3
  19  -2   6 14974.9 1353.17   1
 -17  19   6 16747.8 1317.39   3
   2 -19   6 13966.8 1251.21   2
 -19  17   6 17305.4 1230.74   3
 -17  19   6 18690.3 2059.53   2
  17   2   6 17031.7 1400.62   1
 -17  19   6 17439.3 1679.34   4
 -19  17   6 14127.0 1499.33   4
 -19  17   6 20572.6 1949.99   2
  -2 -17   6 19398.9 2349.37   1
   2 -19   6 17333.5 2049.33   1
  -2 -17   6 18854.7 1611.28   4
  19  -2   6 18798.2 1800.82   3
  17   2   6 19434.8 1829.32   3
  -2 -17   6 13829.9 1292.20   2
 -17  19   9 11078.2 1275.47   3
  17   2   9 11049.1 1378.54   1
 -19  17   9 9868.12 1122.80   3
 -17  19   9 15578.2 1646.10   4
  19  -2   9 12340.9 1473.36   1
 -19  17   9 11543.9 1531.61   4
 -19  17   9 15010.0 2019.96   2
  -2 -17   9 17584.1 2563.94   1
 -17  19   9 13130.3 2019.78   2
   2 -19   9 16518.0 2512.81   1
  19  -2   9 15027.9 2123.06   3
  17   2   9 15728.3 1942.08   3
  -2 -17   9 10980.1 1241.40   2
 -18  19  -7 3352.71 820.688   4
 -19  18  -7 2978.50 800.790   4
 -18  19  -4 10375.3 545.508   2
 -19  18  -4 8945.45 537.348   2
 -18  19  -4 10538.7 521.802   2
 -18  19  -4 13046.9 1296.69   4
 -19  18  -4 12777.2 1238.62   4
 -19  18  -4 9480.89 478.210   2
 -18  19  -1 12271.0 1128.48   2
  -1 -18  -1 11754.6 1571.78   2
 -18  19  -1 13918.7 1495.66   3
 -19  18  -1 11991.7 1443.14   3
 -19  18  -1 13391.2 1346.60   4
 -19  18  -1 12310.3 1112.74   2
  -1 -18  -1 13486.7 1138.53   1
   1 -19  -1 13694.3 1023.40   1
  -1 -18  -1 13215.7 1461.57   4
  19  -1  -1 14478.8 799.822   3
  18   1  -1 13843.0 729.077   3
  19  -1   2 6940.62 1229.41   1
  -1 -18   2 5815.91 1166.23   2
   1 -19   2 6473.45 1225.65   2
 -18  19   2 7444.87 1092.47   3
 -19  18   2 5545.95 1026.51   3
  18   1   2 6755.66 1210.23   1
 -18  19   2 5657.28 1262.22   2
 -19  18   2 5807.86 1064.76   4
  -1 -18   2 7406.60 1402.37   1
   1 -19   2 7533.56 1348.59   1
 -19  18   2 4636.92 1159.23   2
  -1 -18   2 6736.48 1236.71   4
  19  -1   2 8311.61 1138.88   3
  18   1   2 8026.18 1077.74   3
  18   1   5 2157.77 954.445   1
  19  -1   5 1955.89 922.329   1
 -18  19   5 431.039 806.917   3
  -1 -18   5 2116.52 978.086   2
 -19  18   5 832.288 810.401   3
   1 -19   5 2508.12 943.919   2
 -18  19   5 1861.44 1251.34   2
 -18  19   5-3.75852 986.307   4
 -19  18   5-971.008 962.253   4
 -19  18   5 840.302 1249.75   2
  -1 -18   5 2161.30 1504.37   1
   1 -19   5 543.621 1425.35   1
  -1 -18   5-1688.95 1038.64   4
  19  -1   5 1516.26 1206.46   3
  18   1   5 485.036 1115.06   3
  -1 -18   8 1686.20 948.280   2
 -18  19   8 2349.78 967.709   3
 -19  18   8 1959.30 887.506   3
   1 -19   8 2357.84 961.121   2
 -18  19   8 4010.39 1200.09   4
 -19  18   8 2197.81 1161.32   4
 -18  19   8 2798.46 1471.34   2
 -19  18   8 3688.85 1561.58   2
  19  -1   8 2746.33 1028.41   1
  -1 -18   8 4357.94 1808.50   1
   1 -19   8 1352.42 1657.21   1
  18   1   8 1163.58 984.485   1
  19  -1   8 1252.31 1315.54   3
  18   1   8 2210.31 1339.27   3
 -19  19  -5 391.727 796.713   4
  19   0  -2 50290.4 975.933   3
 -19  19  -2 51913.5 2544.28   3
 -19  19  -2 57134.5 2320.69   4
 -19  19  -2 56989.5 1806.39   2
   0 -19  -2 53087.7 1354.02   1
  19   0  -2 54836.4 831.962   3
   0 -19  -2 52282.0 1180.17   1
 -19  19   1 2058.51 995.843   3
   0 -19   1 1351.82 1100.48   2
 -19  19   1 1241.27 966.687   4
 -19  19   1-518.591 954.651   2
  19   0   1 315.105 1039.32   1
   0 -19   1 321.010 1055.37   1
   0 -19   1-572.769 1043.72   4
  19   0   1 575.336 778.911   3
 -19  19   4 4574.58 980.353   3
   0 -19   4 3418.54 1016.83   2
 -19  19   4 6346.50 1243.27   4
 -19  19   4 7699.32 1464.71   2
   0 -19   4 6685.57 1582.38   1
   0 -19   4 5917.15 1224.33   4
  19   0   4 4375.33 1061.79   1
  19   0   4 5284.86 1205.88   3
 -19  19   7 677.402 893.495   3
   0 -19   7-1514.86 923.325   2
 -19  19   7-94.6353 1346.72   2
 -19  19   7 570.108 1079.01   4
   0 -19   7-1065.97 1681.32   1
  19   0   7 601.203 1321.60   3
  19   0   7 578.954 984.199   1
 -19  19  10 15282.2 2271.31   2
 -19  19  10 16587.2 1742.75   4
  19   0  10 25005.3 2513.29   3
   0 -19  10 22626.6 2909.19   1
  19   0  10 11347.5 1445.50   1
 -20   0  -5-195.110 975.356   2
   0  20  -5-1219.54 1207.73   3
 -20   0  -5-171.537 810.645   4
   0  20  -2 7848.20 1123.64   3
  20 -20  -2 12762.2 1258.35   1
 -20   0  -2 10717.5 1251.02   4
 -20   0  -2 10934.4 1121.13   2
   0  20   1-675.490 859.735   3
  20 -20   1 310.644 781.173   1
 -20   0   1 2036.95 1012.24   4
 -20   0   1 1329.80 828.651   2
   0  20   4-427.876 885.574   3
 -20   0   4-22.0133 953.082   4
  20 -20   4 2513.49 988.679   1
 -20   0   4 1300.23 901.993   2
   0  20   7 1573.22 1058.64   3
 -20   0   7-294.456 1024.87   4
  20 -20   7-1474.89 1130.34   1
 -20   0   7 667.547 1060.73   2
 -20   1  -6 7293.56 1362.88   2
 -19  -1  -6 9688.98 1528.08   2
  -1  20  -6 11413.1 1574.78   3
   1  19  -6 9095.48 1455.50   3
 -20   1  -6 9601.45 1095.59   4
 -19  -1  -6 11689.6 1208.86   4
  19 -20  -3 21663.6 1451.76   1
   1  19  -3 23993.7 1531.62   3
  20 -19  -3 21462.7 1520.79   1
  -1  20  -3 21606.5 1565.84   3
 -20   1  -3 23137.2 1542.05   4
 -19  -1  -3 26335.1 1645.61   4
 -20   1  -3 21422.3 1376.59   2
 -19  -1  -3 23725.9 1524.65   2
   1  19   0 17522.7 1264.52   3
  -1  20   0 21588.0 1382.48   3
 -20   1   0 23459.6 1651.36   4
 -19  -1   0 23210.4 1647.01   4
 -20   1   0 20716.0 1396.54   2
 -19  -1   0 19941.9 1356.87   2
  19 -20   0 22525.4 1361.53   1
  20 -19   0 19898.3 1308.65   1
  -1  20   3 16376.1 1290.51   3
  19 -20   3 16299.2 1339.65   1
  20 -19   3 14985.9 1345.76   1
 -20   1   3 18088.9 1596.30   4
 -19  -1   3 18190.1 1555.88   4
 -20   1   3 16260.3 1400.64   2
 -19  -1   3 16496.0 1390.28   2
   1  19   3 16787.5 1303.67   3
   1  19   6 4447.87 1103.28   3
 -20   1   6 6074.58 1269.67   4
  19 -20   6 6143.23 1282.56   1
 -19  -1   6 5539.03 1229.07   4
  20 -19   6 5780.37 1289.57   1
 -20   1   6 6690.54 1241.91   2
 -19  -1   6 6721.33 1216.68   2
  -1  20   6 8377.94 1212.29   3
 -19  -1   9 22230.4 1937.31   4
  19 -20   9 19436.1 1947.79   1
  20 -19   9 17661.7 1851.22   1
 -20   1   9 23633.0 2006.42   4
 -20   1   9 18470.6 1818.78   2
 -19  -1   9 21739.0 1942.83   2
   1  19   9 18929.0 1743.30   3
  -1  20   9 21096.9 1779.77   3
 -20   2  -7 9280.63 1042.49   4
 -18  -2  -7 9763.32 1135.79   4
 -20   2  -4-55.6147 812.289   2
 -18  -2  -4-618.217 933.359   2
   2  18  -4 1654.60 1010.69   3
  -2  20  -4 1664.69 1081.86   3
  20 -18  -4 1462.19 1037.42   1
 -20   2  -4 488.107 804.135   4
 -18  -2  -4-321.129 804.560   4
  18 -20  -4 1400.83 904.812   1
  18 -20  -1 46081.2 1738.95   1
   2  18  -1 44314.4 1717.00   3
  -2  20  -1 41236.2 1766.65   3
  20 -18  -1 43821.9 1809.52   1
 -20   2  -1 50296.8 2143.10   4
 -18  -2  -1 46471.6 2080.64   4
 -20   2  -1 44416.7 1751.38   2
 -18  -2  -1 41701.3 1782.13   2
  -2  20   2 5554.95 1010.74   3
   2  18   2 5709.82 906.761   3
 -20   2   2 5999.11 1151.11   4
 -18  -2   2 6599.68 1150.91   4
 -18  -2   2 5643.46 1030.21   2
 -20   2   2 4670.05 925.344   2
  18 -20   2 5458.39 932.636   1
  20 -18   2 7116.58 1034.67   1
  18 -20   5 30118.4 1871.07   1
  20 -18   5 27240.4 1756.13   1
 -20   2   5 29092.5 1876.27   4
 -18  -2   5 27141.1 1820.02   4
 -20   2   5 28041.3 1796.44   2
 -18  -2   5 26589.9 1739.86   2
   2  18   5 26747.8 1689.16   3
  -2  20   5 25055.4 1571.35   3
 -18  -2   8 5981.18 1267.76   4
  -2  20   8 6151.64 1273.70   3
  18 -20   8 6443.86 1377.98   1
 -20   2   8 6776.06 1359.71   4
  20 -18   8 6308.23 1354.25   1
 -20   2   8 5236.57 1373.25   2
 -18  -2   8 3418.81 1141.76   2
   2  18   8 5464.84 1244.92   3
 -17  -3  -8 7186.73 999.749   4
 -20   3  -5 4799.17 1029.70   2
 -17  -3  -5 3845.95 1203.54   2
   3  17  -5 4297.23 1096.34   3
  -3  20  -5 4926.82 1262.80   3
 -20   3  -5 3901.23 868.342   4
 -17  -3  -5 5269.78 986.061   4
   3  17  -2 4687.66 876.537   3
  17 -20  -2 3700.68 801.165   1
  -3  20  -2 4431.00 972.386   3
 -20   3  -2 4795.83 959.858   4
 -17  -3  -2 5177.16 1036.72   4
  20 -17  -2 5329.61 1073.33   1
 -20   3  -2 5528.60 877.900   2
 -17  -3  -2 6449.43 1006.29   2
   3  17   1 4269.73 828.949   3
  -3  20   1 4250.62 903.627   3
  20 -17   1 2511.34 824.519   1
 -20   3   1 6255.70 1126.22   4
 -17  -3   1 4466.91 1040.86   4
 -17  -3   1 7409.66 1041.58   2
 -20   3   1 5476.54 911.267   2
  17 -20   1 3735.99 814.881   1
  -3  20   4 13406.9 1235.33   3
  17 -20   4 14530.4 1383.06   1
  20 -17   4 13960.2 1313.26   1
 -20   3   4 13863.1 1447.18   4
 -17  -3   4 13766.1 1373.39   4
 -20   3   4 11547.8 1324.97   2
 -17  -3   4 13859.2 1322.91   2
   3  17   4 14491.0 1254.36   3
  -3  20   7 2479.87 1006.75   3
  17 -20   7 5628.65 1278.91   1
 -17  -3   7 6149.87 1205.39   4
 -20   3   7 6453.26 1257.99   4
  20 -17   7 5445.16 1236.48   1
 -20   3   7 3557.71 1160.49   2
 -17  -3   7 4684.91 1152.60   2
   3  17   7 5235.01 1194.45   3
  -3  20  10 6538.08 1394.41   3
  17 -20  10 10367.3 1789.27   1
  20 -17  10 7861.97 1592.35   1
 -20   3  10 9427.89 1607.21   4
 -17  -3  10 6583.70 1482.61   4
 -20   3  10 5639.12 1557.26   2
 -17  -3  10 7485.06 1446.34   2
   3  17  10 7942.02 1485.28   3
 -20   4  -6 28694.9 1678.05   2
 -16  -4  -6 27408.1 2009.29   2
 -20   4  -6 31834.9 1548.17   4
 -16  -4  -6 30165.3 1684.87   4
 -16  -4  -3 7842.63 1111.17   2
   4  16  -3 8265.96 1022.84   3
  -4  20  -3 7539.86 1201.07   3
 -20   4  -3 9288.81 1110.58   4
  20 -16  -3 8899.74 1216.64   1
 -16  -4  -3 7146.21 1086.30   4
  16 -20  -3 7256.92 944.040   1
 -20   4  -3 7164.17 875.170   2
   4  16   0 24343.9 1253.36   3
  -4  20   0 24812.8 1429.90   3
  20 -16   0 23115.9 1422.88   1
 -20   4   0 24279.5 1576.70   4
 -16  -4   0 22116.8 1552.08   4
  16 -20   0 23945.4 1252.38   1
 -20   4   0 24706.7 1351.00   2
 -16  -4   0 22452.7 1402.86   2
  -4  20   3 23982.8 1457.02   3
 -20   4   3 22160.3 1539.24   2
  16 -20   3 27009.1 1614.98   1
 -20   4   3 27538.9 1763.84   4
 -16  -4   3 25733.8 1725.75   4
  20 -16   3 24528.4 1528.82   1
 -16  -4   3 23709.0 1514.05   2
   4  16   3 25896.8 1487.65   3
  -4  20   6 6001.60 1063.45   3
  16 -20   6 5595.30 1295.95   1
  20 -16   6 5187.29 1195.30   1
 -16  -4   6 4281.33 1087.89   4
 -20   4   6 5196.12 1176.72   4
 -20   4   6 5211.61 1250.60   2
 -16  -4   6 3840.14 1066.55   2
   4  16   6 4094.22 1104.64   3
  16 -20   9 9708.71 1709.04   1
  20 -16   9 10565.8 1628.14   1
 -20   4   9 7425.33 1457.45   2
 -20   4   9 10062.5 1484.19   4
 -16  -4   9 10304.7 1544.95   4
 -16  -4   9 9350.13 1415.26   2
   4  16   9 10867.6 1496.09   3
  -4  20   9 8179.02 1360.44   3
 -15  -5  -7 22921.2 1449.93   4
 -20   5  -7 23081.6 1302.00   4
  15 -20  -4 16909.6 1093.45   1
 -15  -5  -4 17526.6 1514.40   2
   5  15  -4 18847.7 1299.74   3
  -5  20  -4 22505.7 1719.36   3
 -15  -5  -4 18329.8 1368.05   4
 -20   5  -4 21741.1 1384.57   4
 -20   5  -4 19828.6 1162.21   2
   5  15  -1 61043.8 1763.10   3
  -5  20  -1 58657.6 2071.17   3
  20 -15  -1 61438.9 2120.91   1
 -20   5  -1 60916.1 2224.92   4
 -15  -5  -1 62870.5 2313.85   4
 -20   5  -1 61368.5 1874.17   2
  15 -20  -1 65258.3 1781.01   1
 -15  -5  -1 58971.6 2104.69   2
  -5  20   2 6084.13 958.886   3
  20 -15   2 5163.95 955.142   1
 -20   5   2 7185.02 991.589   2
 -20   5   2 8411.38 1202.12   4
 -15  -5   2 9473.38 1207.76   4
  15 -20   2 6339.10 958.913   1
 -15  -5   2 7557.94 1028.21   2
   5  15   2 6510.38 921.679   3
  15 -20   5 46986.5 2262.65   1
  20 -15   5 45530.2 2055.20   1
 -20   5   5 45781.9 2198.28   4
 -15  -5   5 48654.8 2237.66   4
 -20   5   5 43093.8 2169.64   2
 -15  -5   5 45893.8 2051.08   2
   5  15   5 49585.8 2073.69   3
  -5  20   5 47983.5 1995.32   3
  -5  20   8 4409.84 1173.36   3
  15 -20   8 5020.09 1438.86   1
 -20   5   8 5076.35 1224.18   4
 -15  -5   8 6071.94 1251.63   4
  20 -15   8 3741.59 1194.38   1
 -20   5   8 4709.27 1334.54   2
 -15  -5   8 4791.34 1164.25   2
   5  15   8 4439.73 1211.31   3
 -14  -6  -8 1532.73 829.391   4
 -20   6  -5 13017.7 1086.35   2
 -14  -6  -5 11125.8 1449.08   2
   6  14  -5 17125.8 1333.75   3
  -6  20  -5 13073.7 1574.32   3
 -20   6  -5 13421.0 1130.58   4
 -14  -6  -5 15467.3 1320.01   4
 -14  -6  -2 45291.8 1928.48   2
  20 -14  -2 45349.2 1953.28   1
   6  14  -2 44509.9 1532.83   3
  14 -20  -2 44740.5 1463.71   1
  -6  20  -2 43591.1 1953.73   3
 -20   6  -2 46324.2 1923.67   4
 -14  -6  -2 45283.1 1973.43   4
 -20   6  -2 45524.4 1551.21   2
  20 -14   1 21171.1 1369.90   1
  -6  20   1 21539.1 1355.91   3
  14 -20   1 22351.5 1260.65   1
 -20   6   1 24725.8 1633.78   4
 -14  -6   1 23716.1 1626.00   4
 -20   6   1 22629.3 1351.22   2
 -14  -6   1 20874.8 1384.40   2
   6  14   1 23357.0 1219.95   3
  -6  20   4 9056.69 1109.13   3
  14 -20   4 10671.0 1304.16   1
 -20   6   4 10375.9 1296.10   4
 -14  -6   4 8497.68 1192.32   4
  20 -14   4 9032.83 1161.82   1
 -20   6   4 10038.1 1255.16   2
 -14  -6   4 9223.98 1130.27   2
   6  14   4 10179.3 1126.37   3
   6  14   7 18810.9 1645.16   3
  20 -14   7 15108.4 1546.25   1
 -20   6   7 14462.3 1514.98   4
 -20   6   7 13544.7 1609.16   2
 -14  -6   7 17505.8 1562.08   4
 -14  -6   7 14073.9 1397.33   2
  -6  20   7 14261.6 1364.46   3
  14 -20   7 17474.3 1766.90   1
  -6  20  10 3291.67 1230.50   3
  14 -20  10 3367.65 1579.81   1
 -20   6  10 3526.08 1338.54   4
 -14  -6  10 6311.08 1437.20   4
 -20   6  10 3479.56 1368.31   2
  20 -14  10 2022.84 1251.40   1
 -14  -6  10 1599.46 1094.55   2
   6  14  10 7208.86 1496.37   3
 -20   7  -6 31223.9 1467.87   2
 -13  -7  -6 30457.7 1635.10   4
 -13  -7  -3 7111.24 1142.64   2
 -20   7  -3 6884.30 976.670   4
   7  13  -3 5539.77 799.172   3
  -7  20  -3 5839.18 1155.10   3
 -13  -7  -3 6300.08 1080.38   4
  13 -20  -3 5917.48 740.402   1
  20 -13  -3 5763.56 1164.73   1
 -20   7  -3 5121.83 707.786   2
  20 -13  -3 4100.30 620.897   3
   7  13   0 25256.4 1169.33   3
  -7  20   0 27049.8 1495.84   3
  20 -13   0 24328.5 1439.82   1
  13 -20   0 26261.6 1221.34   1
 -20   7   0 31677.6 1705.44   4
 -13  -7   0 25419.8 1642.85   4
 -20   7   0 27369.9 1387.89   2
 -13  -7   0 27360.3 1549.85   2
  -7  20   3 9224.63 1096.87   3
  13 -20   3 10859.7 1242.79   1
 -20   7   3 11516.1 1292.47   4
 -13  -7   3 11099.1 1254.52   4
 -20   7   3 11416.5 1243.25   2
  20 -13   3 11480.4 1159.36   1
 -13  -7   3 9662.47 1093.69   2
   7  13   3 11398.5 1086.34   3
  -7  20   6 5765.96 1035.43   3
  13 -20   6 5494.76 1346.47   1
 -20   7   6 6551.74 1173.43   4
 -20   7   6 6603.43 1331.31   2
 -13  -7   6 5767.56 1100.49   4
 -13  -7   6 6169.36 1079.83   2
  20 -13   6 5465.68 1094.69   1
   7  13   6 6587.79 1184.67   3
  -7  20   9 5804.39 1217.98   3
  13 -20   9 5869.90 1649.28   1
 -20   7   9 4852.80 1304.45   4
 -20   7   9 4036.61 1328.25   2
 -13  -7   9 6548.01 1273.89   4
  20 -13   9 6276.52 1340.41   1
 -13  -7   9 4700.57 1162.79   2
   7  13   9 3294.07 1255.15   3
 -20   8  -7 24340.5 1241.51   4
 -12  -8  -7 23378.1 1488.98   4
 -12  -8  -4 6827.63 1266.26   2
   8  12  -4 7258.69 911.487   3
  -8  20  -4 7649.35 1397.98   3
 -20   8  -4 7798.31 972.975   4
 -12  -8  -4 7427.66 1098.82   4
  -8  20  -4 7198.33 796.430   2
  20 -12  -4 5608.51 631.936   3
 -20   8  -4 5945.09 722.409   2
   8  12  -1 35820.4 1282.66   3
  20 -12  -1 34132.6 1250.93   3
  -8  20  -1 33977.0 1680.14   3
 -12  -8  -1 40282.9 1921.72   4
 -20   8  -1 36971.5 1776.62   4
  12 -20  -1 34363.0 1220.27   1
 -20   8  -1 34993.4 1409.93   2
  20 -12  -1 34837.0 1719.80   1
 -12  -8  -1 38213.8 1790.03   2
  -8  20   2 14203.3 1190.82   3
  12 -20   2 15575.1 1203.51   1
 -20   8   2 16191.6 1418.62   4
 -20   8   2 13977.9 1208.11   2
 -12  -8   2 14453.4 1343.43   4
 -12  -8   2 12961.9 966.645   3
 -12  -8   2 14360.6 1183.36   2
   8  12   2 13894.9 1037.07   3
  20 -12   2 13957.9 1194.13   1
  -8  20   5 18321.6 1332.96   3
 -20   8   5 18627.5 1562.49   4
 -20   8   5 15501.3 1550.08   2
 -12  -8   5 19822.3 1550.13   4
 -12  -8   5 18450.5 1414.39   2
  20 -12   5 20485.3 1537.75   1
   8  12   5 18287.2 1472.78   3
  12 -20   5 17402.8 1687.01   1
  -8  20   8 4308.98 1127.18   3
  12 -20   8 6146.33 1528.53   1
 -12  -8   8 5781.80 1194.35   4
 -20   8   8 5975.30 1258.84   4
 -20   8   8 5364.56 1377.69   2
  20 -12   8 4454.45 1181.33   1
 -12  -8   8 2738.27 995.233   2
   8  12   8 4130.41 1273.38   3
 -20   9  -5 14654.0 924.428   2
 -11  -9  -5 16855.3 1676.60   2
  -9  20  -5 14782.4 1672.85   3
  -9  20  -5 14531.0 883.193   2
 -11  -9  -5 17244.4 1389.04   4
 -20   9  -5 17742.1 1203.08   4
  20 -11  -5 11706.1 758.960   3
 -11  -9  -5 13317.8 1070.26   1
  20 -11  -2 16992.9 858.027   3
 -11  -9  -2 15265.0 1351.77   2
   9  11  -2 15592.7 917.158   3
  -9  20  -2 19260.3 1486.23   3
  20 -11  -2 17835.1 1443.06   1
 -11  -9  -2 19064.8 1426.40   4
 -20   9  -2 16992.6 954.774   2
 -20   9  -2 18172.6 1328.19   4
  11 -20  -2 20024.8 911.518   1
  -9  20   1 34932.4 1626.79   3
  11 -20   1 40099.9 1553.45   1
  20 -11   1 35239.8 1641.05   1
  -9  20   1 34547.5 1609.38   1
 -20   9   1 39345.6 1907.65   4
 -20   9   1 37635.7 1685.70   2
 -11  -9   1 40459.4 1964.37   4
 -11  -9   1 37194.3 1588.04   3
 -11  -9   1 39597.2 1799.44   2
   9  11   1 39587.2 1438.85   3
  -9  20   4 16077.6 1266.74   3
 -20   9   4 19070.3 1549.61   4
 -20   9   4 17948.5 1569.71   2
 -11  -9   4 17314.7 1428.17   4
  20 -11   4 18640.6 1405.74   1
 -11  -9   4 14636.0 819.997   3
 -11  -9   4 15816.0 1299.63   2
   9  11   4 14967.0 1316.76   3
  11 -20   4 18301.2 1601.25   1
   9  11   7 11946.8 887.263   1
 -20   9   7 16559.2 1607.80   4
  20 -11   7 16968.5 1506.10   1
 -20   9   7 16250.1 1683.95   2
 -11  -9   7 20028.6 1602.44   4
 -11  -9   7 15360.2 1412.42   2
  11 -20   7 20630.2 2031.15   1
   9  11   7 19100.1 1674.93   3
  -9  20   7 17774.3 1473.82   3
  -9  20  10 868.151 1093.64   3
 -11  -9  10 876.498 1215.63   4
  11 -20  10 1803.93 1681.85   1
 -20   9  10 825.335 1366.78   2
  -9  20  10 582.500 959.681   4
 -20   9  10-603.803 1125.46   4
 -11  -9  10 2043.13 1789.93   1
  20 -11  10 795.081 1148.96   1
 -11  -9  10-320.994 1074.95   2
   9  11  10 616.310 1236.74   3
 -20  10  -6 12802.6 1053.58   4
 -10 -10  -6 13721.2 1284.50   4
  20 -10  -3 749.402 435.823   3
 -10  20  -3-683.253 571.788   2
  10  10  -3 355.721 560.265   3
 -10 -10  -3 716.422 977.639   2
 -10  20  -3 114.141 1001.71   3
 -20  10  -3 619.152 729.092   4
  20 -10  -3-898.335 1040.13   1
  10 -20  -3 243.582 408.773   1
 -10 -10  -3 336.942 859.903   4
 -20  10  -3 699.685 500.443   2
 -10 -10  -3-293.645 534.852   1
 -10  20   0 22596.6 1394.31   3
  20 -10   0 24051.1 1205.32   3
  10 -20   0 22935.9 1100.02   1
 -20  10   0 26893.6 1578.03   4
  20 -10   0 19733.3 1361.54   1
 -20  10   0 22377.8 1285.18   2
 -10 -10   0 27513.3 1672.63   4
 -10  20   0 25002.2 1635.89   1
  10  10   0 22443.0 1050.34   3
 -10 -10   0 21524.1 1450.39   2
 -10 -10   3 704.867 820.921   2
 -10  20   3 807.021 853.831   3
  10 -20   3-317.157 919.125   1
 -20  10   3 734.956 880.461   4
  20 -10   3 633.566 750.179   2
  20 -10   3 216.257 797.370   1
 -10  20   3 1003.07 629.859   1
 -20  10   3 66.7910 891.557   2
 -10 -10   3 1607.41 951.774   4
 -10 -10   3-784.228 585.100   3
  10  10   3 95.4619 748.213   3
 -10  20   6 15001.8 1323.41   3
 -20  10   6 8287.37 590.209   3
 -20  10   6 15718.2 1501.13   4
  10  10   6 11434.3 985.317   1
 -20  10   6 14219.3 1605.19   2
  20 -10   6 10821.6 1282.00   1
 -10 -10   6 14124.7 1397.73   4
  10 -20   6 15631.2 1794.48   1
 -10 -10   6 12737.3 1293.57   2
  10  10   6 15700.0 1507.49   3
 -10  20   9-97.3710 949.769   3
  10 -20   9 1697.83 1535.94   1
 -10 -10   9 985.636 1712.28   1
 -20  10   9 1481.29 1123.09   4
 -20  10   9 716.065 1231.84   2
 -10 -10   9-470.337 1108.39   4
  20 -10   9 1585.33 1119.66   1
 -10 -10   9 565.332 971.888   2
  10  10   9 1390.62 1174.21   3
 -20  11  -7 18483.5 1119.04   4
  -9 -11  -4 14914.7 911.409   1
  -9 -11  -4 16721.1 1665.58   2
  11   9  -4 15525.0 896.633   3
 -11  20  -4 14400.8 1611.79   3
 -20  11  -4 17150.2 1242.15   4
  -9 -11  -4 16421.5 1383.90   4
 -11  20  -4 15633.0 856.230   2
 -20  11  -4 14297.8 779.635   2
  11   9  -1 41148.3 1214.98   3
  -9 -11  -1 41299.2 1947.63   2
  20  -9  -1 41120.4 1263.59   3
  20  -9  -1 43541.7 1964.50   1
 -11  20  -1 40751.7 1916.84   3
   9 -20  -1 44118.3 1262.16   1
 -20  11  -1 42201.4 1886.29   4
 -20  11  -1 42999.9 1511.54   2
  -9 -11  -1 47443.9 2090.66   4
 -11  20   2 17812.1 1273.99   3
  20  -9   2 19568.5 1347.58   1
 -20  11   2 21889.6 1564.43   4
 -11  20   2 20209.0 1261.85   1
 -20  11   2 20256.6 1457.12   2
  -9 -11   2 24638.5 1627.56   4
  -9 -11   2 20282.6 1172.65   3
   9 -20   2 22678.7 1500.07   1
  11   9   2 19652.1 1202.57   3
  -9 -11   2 20348.6 1401.04   2
 -20  11   5 15613.1 1487.58   4
 -11  20   5 15126.1 1266.51   3
 -20  11   5 11721.8 827.527   3
  20  -9   5 12420.6 987.933   2
 -20  11   5 14351.7 1505.70   2
  11   9   5 12831.1 1086.00   1
  -9 -11   5 16298.6 1448.65   4
  20  -9   5 12363.8 1222.34   1
   9 -20   5 14171.9 1637.53   1
  -9 -11   5 12560.4 1205.01   2
  11   9   5 14135.3 1371.94   3
  -9 -11   5 12786.3 817.556   3
 -20  11   8 19086.7 1898.88   2
 -20  11   8 19173.6 1713.62   4
  20  -9   8 19229.5 1601.40   1
  11   9   8 15749.2 1130.60   1
   9 -20   8 21567.1 2194.15   1
  -9 -11   8 16052.6 1432.42   2
  11   9   8 20525.6 1850.27   3
 -11  20   8 18379.5 1509.55   3
 -20  12  -5 14103.9 668.103   2
 -12  20  -5 12752.0 633.421   2
 -20  12  -5 21755.4 1301.78   4
  -8 -12  -5 23863.2 1580.29   4
  -8 -12  -5 13155.5 877.716   1
  12   8  -2 13749.7 759.848   3
  20  -8  -2 12923.4 671.345   3
  -8 -12  -2 11058.9 784.073   1
 -12  20  -2 12140.7 927.653   2
  -8 -12  -2 13145.8 1404.38   2
 -20  12  -2 13943.0 1226.98   4
 -12  20  -2 13349.1 1400.69   3
   8 -20  -2 14290.9 687.091   1
 -20  12  -2 13126.0 867.224   2
  -8 -12  -2 12290.3 1312.11   4
  20  -8  -2 13635.2 1400.24   1
 -12  20   1 36198.2 1673.30   3
 -20  12   1 39690.8 1740.59   2
 -12  20   1 35353.5 1751.01   1
 -20  12   1 39910.8 1934.36   4
  -8 -12   1 43980.3 2115.06   4
  20  -8   1 39458.9 1770.44   1
   8 -20   1 41774.8 1656.01   1
  12   8   1 40831.8 1439.32   3
  -8 -12   1 41806.7 1880.52   2
 -12  20   4 8667.87 1072.35   3
 -20  12   4 7265.77 819.088   3
 -20  12   4 7218.57 1249.02   2
 -20  12   4 8184.84 1183.17   4
  20  -8   4 5224.07 872.896   2
  -8 -12   4 8770.57 1243.34   4
 -12  20   4 6545.26 832.581   1
   8 -20   4 7960.51 1356.82   1
  12   8   4 9237.99 1156.96   3
  -8 -12   4 6988.33 1061.28   2
  12   8   4 7196.76 989.644   1
  -8 -12   4 5877.97 733.174   3
  20  -8   4 6298.04 1043.81   1
 -12  20   7 19357.0 1452.28   3
 -20  12   7 17127.2 958.274   3
 -20  12   7 20640.4 1684.74   4
 -20  12   7 19721.9 1845.61   2
  20  -8   7 16906.5 1463.11   1
  -8 -12   7 22349.8 1697.03   4
  12   8   7 15912.9 1157.51   1
   8 -20   7 20025.0 2046.64   1
  12   8   7 24845.4 1873.26   3
  -8 -12   7 18207.2 1412.77   2
   8 -20  10 3204.65 1752.87   1
 -12  20  10 2620.09 1078.06   3
 -12  20  10 3852.28 1175.25   4
 -20  12  10 4359.00 1300.27   4
  -8 -12  10 4326.48 2016.08   1
 -12  20  10 7737.46 2107.96   2
 -20  12  10 5094.89 1613.78   2
  12   8  10 4619.83 1456.09   3
  -8 -12  10 3975.91 1067.88   2
  20  -8  10 1067.87 1168.12   1
 -20  13  -6 6547.48 855.821   4
  13   7  -3 9551.76 608.053   3
  -7 -13  -3 11942.4 1533.74   2
 -13  20  -3 9517.86 1408.71   3
 -20  13  -3 10309.4 1085.12   4
  -7 -13  -3 7950.37 663.708   1
 -20  13  -3 9653.74 683.625   2
  -7 -13  -3 10562.6 1246.33   4
  20  -7  -3 7012.51 380.308   3
 -13  20  -3 9936.78 802.066   2
  -7 -13   0 29397.8 1720.71   2
 -13  20   0 27040.2 1585.95   3
  20  -7   0 30811.5 1344.90   3
 -20  13   0 31096.6 1731.11   4
 -20  13   0 29609.5 1438.54   2
  -7 -13   0 34868.4 1871.22   4
  13   7   0 29079.8 1117.11   3
   7 -20   0 30149.4 1283.23   1
  20  -7   0 27342.2 1640.85   1
  -7 -13   3 3316.45 943.872   2
 -13  20   3 4887.87 983.582   3
 -20  13   3 4144.58 802.116   3
 -20  13   3 4859.39 1041.62   4
 -20  13   3 4461.70 1074.74   2
  -7 -13   3 6737.43 1165.34   4
  13   7   3 5083.63 1006.06   1
  20  -7   3 4205.42 957.626   1
  -7 -13   3 4313.40 770.965   3
  13   7   3 5018.79 988.070   3
   7 -20   3 5106.95 1192.17   1
 -13  20   3 4498.42 887.873   1
 -13  20   6 37096.7 1747.42   3
 -20  13   6 30586.4 1283.62   3
 -20  13   6 36040.0 2074.86   4
 -20  13   6 35527.9 2163.78   2
  -7 -13   6 35828.9 1979.91   4
   7 -20   6 38686.0 2491.61   1
  20  -7   6 34010.7 1817.01   1
  13   7   6 33255.5 1581.04   1
  13   7   6 39264.8 2136.16   3
  -7 -13   6 34576.9 1770.26   2
 -13  20   9 6300.76 1165.64   3
 -20  13   9 11021.9 1524.19   4
 -13  20   9 11223.2 1477.40   4
 -20  13   9 10084.5 1697.44   2
  -7 -13   9 10982.7 2244.03   1
  20  -7   9 7246.09 1287.96   1
  -7 -13   9 11594.0 1446.40   4
   7 -20   9 13555.8 2060.04   1
  13   7   9 10682.2 1620.50   3
  -7 -13   9 8855.22 1227.91   2
 -20  14  -7 14475.3 1050.88   4
  -6 -14  -4 6752.90 548.777   1
 -14  20  -4 9021.49 1542.89   3
 -20  14  -4 9444.15 1041.98   4
  -6 -14  -4 8716.23 1220.46   4
 -20  14  -4 7663.31 528.768   2
 -14  20  -4 9463.51 647.324   2
   6 -20  -1 27524.9 1028.18   1
  -6 -14  -1 26265.0 1724.45   2
  20  -6  -1 27014.6 1056.64   3
 -14  20  -1 24514.1 1682.22   3
 -20  14  -1 27053.6 1631.95   4
 -20  14  -1 26668.2 1294.89   2
  20  -6  -1 21789.0 1594.81   1
  -6 -14  -1 26132.8 1706.30   4
  -6 -14  -1 22129.6 1095.78   1
  14   6  -1 27084.1 942.199   3
  -6 -14   2 44177.4 1915.08   2
 -14  20   2 42104.1 1794.56   3
 -20  14   2 42001.8 1694.15   3
 -20  14   2 46845.2 2139.10   4
  20  -6   2 45551.1 1922.46   1
 -20  14   2 46471.8 2008.08   2
  -6 -14   2 48513.9 2190.74   4
   6 -20   2 50670.9 2115.82   1
 -14  20   2 39724.1 1736.66   1
  14   6   2 48495.1 1785.72   3
 -14  20   5 17278.8 1326.60   3
 -20  14   5 15003.8 1081.27   3
   6 -20   5 11893.0 1189.24   2
 -20  14   5 15149.5 1662.50   2
   6 -20   5 19520.5 1909.35   1
  -6 -14   5 15770.6 1473.78   4
 -20  14   5 15902.5 1510.45   4
  14   6   5 15095.7 1461.44   3
  -6 -14   5 16079.1 1335.62   2
  20  -6   5 13610.2 1283.73   1
  14   6   5 15158.8 1242.22   1
 -14  20   5 10344.2 879.219   1
 -14  20   8 5677.96 1092.75   3
  20  -6   8 2615.93 1017.18   1
 -20  14   8 1943.11 718.375   3
 -14  20   8 4888.35 1268.43   4
  14   6   8 844.270 837.733   1
  -6 -14   8 821.801 1813.40   1
 -20  14   8 2374.78 1241.11   2
  -6 -14   8 2713.06 1074.26   4
  14   6   8 4293.92 1321.64   3
   6 -20   8 3477.18 1658.67   1
 -20  14   8 3461.65 1163.49   4
  -6 -14   8 4494.12 1041.13   2
 -15  20  -8 4493.22 883.959   4
 -20  15  -5 45852.7 1817.40   4
  15   5  -2 7583.67 516.862   3
  20  -5  -2 8211.96 487.400   3
 -15  20  -2 7006.80 849.321   2
   5 -20  -2 7802.78 515.019   1
  -5 -15  -2 5677.55 603.605   1
 -15  20  -2 7473.41 1265.81   3
  -5 -15  -2 4481.93 1246.67   2
 -20  15  -2 7509.98 1050.78   4
 -20  15  -2 7434.65 778.434   2
  -5 -15  -2 7794.77 1247.62   4
  -5 -15   1 57332.4 2249.16   2
 -15  20   1 57491.0 2137.78   3
 -20  15   1 59394.8 2165.72   3
 -20  15   1 58126.9 2297.22   4
 -20  15   1 57274.9 2137.06   2
  -5 -15   1 64760.7 2471.28   4
   5 -20   1 66185.6 2190.79   1
  20  -5   1 58448.6 2235.87   1
  15   5   1 69758.2 1902.41   3
 -15  20   4 14653.6 1103.67   1
 -15  20   4 19053.7 1378.64   3
  20  -5   4 19427.6 1422.43   1
  15   5   4 16832.7 1326.98   1
 -20  15   4 18790.1 1234.60   3
   5 -20   4 17767.5 1463.06   2
   5 -20   4 18918.4 1858.69   1
 -20  15   4 19824.5 1595.76   4
 -20  15   4 19954.2 1747.26   2
  -5 -15   4 19443.7 1556.57   4
  15   5   4 18412.3 1464.37   3
  -5 -15   4 18787.2 1407.43   2
 -15  20   7 24250.1 1535.76   3
 -20  15   7 20827.8 1219.32   3
   5 -20   7 18536.1 1267.46   2
  15   5   7 22013.9 1430.06   1
 -15  20   7 28115.0 2016.65   4
  -5 -15   7 33939.3 2904.99   1
 -20  15   7 25853.2 1838.53   4
 -20  15   7 23845.1 2067.84   2
   5 -20   7 28306.8 2501.20   1
  -5 -15   7 25307.5 1748.76   4
  15   5   7 26041.4 1955.63   3
  20  -5   7 24957.5 1680.01   1
  -5 -15   7 21613.4 1514.30   2
  -5 -15  10 3328.06 1034.27   2
 -15  20  10 4447.67 1225.34   3
  20  -5  10 2871.03 1134.61   1
 -15  20  10 4472.31 1230.31   4
 -15  20  10 4492.55 1988.93   2
 -20  15  10 3263.46 1163.45   4
 -20  15  10 4281.48 1540.48   2
  -5 -15  10 3589.80 2076.59   1
  20  -5  10 2809.73 1864.49   3
  15   5  10 4290.43 1490.30   3
   5 -20  10 5570.78 2023.81   1
 -20  16  -6 7240.22 932.089   4
 -16  20  -3 21573.6 1025.34   2
 -16  20  -3 23820.3 1942.40   3
 -16  20  -3 25091.1 1224.31   2
 -20  16  -3 23219.5 1506.73   4
 -20  16  -3 24234.9 962.347   2
  -4 -16  -3 25269.4 1742.03   4
  -4 -16   0 22445.6 1662.71   2
 -16  20   0 23497.0 1612.46   3
  -4 -16   0 22755.5 1668.37   4
  20  -4   0 25227.9 1303.92   3
 -20  16   0 20643.3 1533.55   3
 -20  16   0 24365.0 1620.91   4
 -20  16   0 23231.9 1373.75   2
  20  -4   0 25869.6 1720.50   1
   4 -20   0 24865.1 1326.42   1
  16   4   0 27558.3 1146.86   3
  -4 -16   3 8108.44 1192.35   2
 -16  20   3 9487.24 1131.42   3
 -20  16   3 8082.08 1020.11   3
   4 -20   3 7755.69 1187.49   2
 -20  16   3 8264.55 1232.80   4
  20  -4   3 7737.76 1139.17   1
 -20  16   3 8103.52 1345.28   2
  16   4   3 8058.52 1177.12   1
   4 -20   3 7578.47 1415.90   1
  -4 -16   3 8878.59 1248.56   4
  16   4   3 8565.25 1143.90   3
 -16  20   6 27374.7 1563.03   3
 -20  16   6 28020.7 1415.70   3
   4 -20   6 27062.9 1594.37   2
  -4 -16   6 33502.4 2794.47   1
 -16  20   6 32869.7 2150.87   4
 -20  16   6 32514.8 2027.89   4
 -20  16   6 26957.1 2210.72   2
   4 -20   6 34719.7 2617.37   1
  -4 -16   6 29444.2 1856.98   4
  16   4   6 29086.1 1937.92   3
  -4 -16   6 24548.1 1562.91   2
  16   4   6 24096.6 1493.84   1
  20  -4   6 26930.8 1693.26   1
 -16  20   9 12905.6 1356.06   3
  -4 -16   9 15420.1 2567.71   1
  16   4   9 10704.2 1319.64   1
 -16  20   9 17313.4 2425.06   2
 -16  20   9 13127.9 1600.61   4
 -20  16   9 15533.9 1670.51   4
   4 -20   9 16542.4 2368.19   1
 -20  16   9 15818.3 2009.76   2
  20  -4   9 14475.0 2252.23   3
  20  -4   9 14305.4 1539.61   1
  -4 -16   9 14603.4 1527.77   4
  16   4   9 15596.8 1881.17   3
  -4 -16   9 10222.3 1270.69   2
 -17  20  -7 6409.91 955.220   4
 -20  17  -7 6160.76 884.885   4
 -20  17  -4 13263.3 1242.20   4
 -17  20  -4 11487.2 652.045   2
 -20  17  -4 10904.0 518.241   2
 -17  20  -4 12322.6 623.305   2
   3 -20  -1 5239.26 719.567   1
  20  -3  -1 5900.43 709.301   3
 -17  20  -1 7332.42 1307.35   3
  -3 -17  -1 4757.92 1279.04   2
 -20  17  -1 5472.14 1055.15   4
 -20  17  -1 5348.63 824.773   2
  20  -3  -1 5701.85 1265.34   1
  -3 -17  -1 5064.65 749.559   1
  -3 -17  -1 4707.15 1217.68   4
  20  -3  -1 5611.19 686.231   3
  17   3  -1 6361.04 570.712   3
  -3 -17   2 4190.86 1015.50   2
 -17  20   2 3224.48 966.229   3
 -20  17   2 2516.52 979.798   4
 -20  17   2 3875.39 967.613   3
   3 -20   2 4419.44 1201.90   2
  20  -3   2 4791.64 1071.51   1
  -3 -17   2 2598.48 1299.07   1
 -20  17   2 326.124 971.176   2
  17   3   2 3546.49 1074.25   1
  -3 -17   2 3880.83 1121.52   4
   3 -20   2 4219.85 1185.21   1
  17   3   2 4094.35 936.595   3
 -20  17   5 5139.96 1368.95   2
  -3 -17   5 4223.27 1068.21   2
 -20  17   5 5869.89 950.546   3
 -17  20   5 5050.41 1016.85   3
   3 -20   5 6444.70 1090.60   2
 -17  20   5 7861.05 1595.46   2
 -17  20   5 7315.70 1342.83   4
 -20  17   5 4753.58 1163.40   4
  -3 -17   5 6716.33 1726.20   1
  -3 -17   5 5848.84 1172.16   4
   3 -20   5 4837.49 1526.05   1
  17   3   5 6472.44 1315.26   3
  20  -3   5 4153.56 1035.08   1
  17   3   5 4378.12 1038.44   1
 -17  20   8 7778.70 1141.42   3
 -20  17   8 6665.72 995.354   3
 -17  20   8 7262.15 1838.59   2
  17   3   8 7124.39 1199.82   1
   3 -20   8 3591.56 1007.59   2
 -17  20   8 9629.41 1456.59   4
 -20  17   8 8351.93 1362.72   4
 -20  17   8 9271.26 1680.21   2
   3 -20   8 11125.5 2146.39   1
  -3 -17   8 6366.44 1991.08   1
  -3 -17   8 7250.37 1362.60   4
  20  -3   8 10454.5 1872.68   3
  17   3   8 9149.71 1581.15   3
  20  -3   8 6533.82 1240.36   1
  -3 -17   8 5531.22 1096.92   2
 -18  20  -5 29874.3 1704.76   4
 -20  18  -5 29958.6 1616.53   4
  20  -2  -2 5256.30 382.190   3
  -2 -18  -2 7823.17 1506.52   2
 -18  20  -2 4704.02 1309.62   3
 -20  18  -2 7010.92 1094.97   4
  -2 -18  -2 7429.62 864.204   1
 -20  18  -2 6660.83 804.584   2
  -2 -18  -2 4938.04 562.800   1
 -18  20  -2 4856.24 862.970   2
  -2 -18  -2 6793.20 1284.39   4
   2 -20  -2 4683.07 523.907   1
   2 -20  -2 5598.19 502.063   1
  20  -2  -2 5152.87 347.176   3
  18   2  -2 5736.31 380.499   3
  -2 -18   1 43934.4 2213.43   2
 -18  20   1 43004.0 2043.38   3
  18   2   1 44903.6 2199.94   1
 -20  18   1 43719.6 2073.84   3
   2 -20   1 46264.2 2371.67   2
  -2 -18   1 48422.8 2310.69   4
 -18  20   1 48878.5 2272.25   2
  20  -2   1 46016.1 2148.43   1
 -20  18   1 47281.5 2210.36   4
  -2 -18   1 48505.4 2229.28   1
 -20  18   1 48638.1 2138.84   2
   2 -20   1 48251.6 2082.75   1
  20  -2   1 48389.2 1880.63   3
  18   2   1 49959.1 1785.85   3
 -20  18   4 1318.38 1008.90   4
 -18  20   4 628.787 833.604   3
  -2 -18   4 531.010 899.705   2
 -20  18   4 1305.68 931.780   3
   2 -20   4-591.200 956.028   2
 -18  20   4-149.478 1000.95   4
  18   2   4 699.726 952.506   1
 -18  20   4 835.123 1214.49   2
 -20  18   4-43.9184 1103.21   2
  20  -2   4 1595.61 996.787   1
  -2 -18   4-1344.60 1463.95   1
   2 -20   4 1606.69 1369.21   1
  -2 -18   4-290.819 980.196   4
  20  -2   4 668.549 1110.16   3
  18   2   4 935.279 992.227   3
  20  -2   7 10843.0 1347.24   1
 -18  20   7 10738.1 1227.18   3
   2 -20   7 11396.2 1303.79   2
 -20  18   7 9510.52 1099.64   3
  18   2   7 9911.75 1284.26   1
 -18  20   7 13533.2 2036.83   2
 -20  18   7 11797.2 1546.36   4
 -20  18   7 14187.6 1978.20   2
  -2 -18   7 13877.8 2256.80   1
 -18  20   7 11927.5 1516.90   4
   2 -20   7 16832.8 2201.89   1
  -2 -18   7 10924.3 1445.37   4
  20  -2   7 11955.7 1771.66   3
  18   2   7 12706.3 1659.42   3
  -2 -18   7 8331.91 1182.66   2
 -18  20  10 2291.72 1045.13   3
 -18  20  10 2273.36 1227.02   4
 -20  18  10 2079.88 1202.42   4
  20  -2  10 628.747 1143.66   1
 -20  18  10 2008.46 1673.23   2
  -2 -18  10 1314.81 2070.10   1
  18   2  10 2039.14 1134.74   1
   2 -20  10 2460.86 2117.46   1
  20  -2  10 4033.70 1893.97   3
 -18  20  10 4755.77 1976.37   2
  18   2  10 4325.24 1694.48   3
 -20  19  -6 6655.86 1024.09   4
 -19  20  -6 8841.40 1116.46   4
 -19  20  -3 23188.4 1098.05   2
 -19  20  -3 20052.8 1113.25   2
 -19  20  -3 22882.0 1636.32   4
 -20  19  -3 23590.2 1611.95   4
 -20  19  -3 22917.3 1028.39   2
  20  -1   0 23935.7 1859.48   1
  -1 -19   0 19792.7 1764.72   2
 -19  20   0 24386.6 1779.94   3
   1 -20   0 21616.1 1919.19   2
 -20  19   0 21362.3 1718.77   3
 -20  19   0 23332.6 1571.92   2
 -20  19   0 24981.5 1727.59   4
 -19  20   0 25777.4 1677.69   2
  -1 -19   0 24498.1 1582.04   1
   1 -20   0 27020.6 1553.73   1
  -1 -19   0 27647.3 1951.97   4
  20  -1   0 24720.1 1257.97   3
  19   1   0 26625.6 1238.40   3
  -1 -19   3 30190.8 2197.35   1
  19   1   3 28512.3 1805.85   1
  -1 -19   3 30770.9 1843.27   2
   1 -20   3 29815.1 1825.43   2
 -19  20   3 28324.4 1662.75   3
 -20  19   3 28078.0 1632.75   3
 -19  20   3 30359.6 1973.17   4
 -19  20   3 35198.8 2220.06   2
 -20  19   3 31130.7 1930.42   4
 -20  19   3 30066.2 2068.77   2
   1 -20   3 30529.9 2190.23   1
  -1 -19   3 31158.0 1991.35   4
  20  -1   3 32533.3 1876.14   3
  19   1   3 30896.9 1812.70   3
  20  -1   3 24860.0 1691.64   1
  -1 -19   6 8129.97 1190.58   2
   1 -20   6 8602.52 1233.58   2
 -19  20   6 9566.36 1213.10   3
 -20  19   6 8231.59 1097.04   3
  20  -1   6 8106.05 1251.39   1
 -20  19   6 8064.95 1366.45   4
 -19  20   6 10900.3 1502.26   4
 -19  20   6 14019.7 1957.22   2
 -20  19   6 8699.41 1630.78   2
   1 -20   6 11601.9 1995.54   1
  19   1   6 10232.7 1322.45   1
  -1 -19   6 10887.9 1456.45   4
  -1 -19   6 12879.1 2181.86   1
  20  -1   6 12597.0 1702.06   3
  19   1   6 11758.6 1642.10   3
  20  -1   9 14027.9 1564.07   1
 -19  20   9 10692.8 1304.82   3
 -20  19   9 12665.9 1278.87   3
  19   1   9 11655.8 1490.40   1
  -1 -19   9 18921.9 2592.39   1
 -19  20   9 15624.8 1775.74   4
 -20  19   9 18240.2 1823.01   4
 -20  19   9 16502.5 2180.99   2
   1 -20   9 18732.3 2723.70   1
 -19  20   9 16841.5 2364.22   2
  20  -1   9 18393.0 2274.98   3
  19   1   9 18451.5 2091.79   3
 -20  20  -7-187.491 762.046   4
 -20  20  -4 2271.76 376.571   2
 -20  20  -4 1129.20 839.310   4
 -20  20  -1 835.516 1114.52   3
 -20  20  -1 1480.01 1002.42   4
 -20  20  -1-416.086 821.582   2
   0 -20  -1-828.912 765.427   1
  20   0  -1 1248.51 525.584   3
   0 -20   2 14035.7 1494.20   2
 -20  20   2 12343.2 1333.54   3
 -20  20   2 11627.9 1439.44   4
  20   0   2 12274.6 1417.67   1
 -20  20   2 14163.1 1550.48   2
   0 -20   2 15435.3 1667.68   1
   0 -20   2 15193.1 1537.44   4
  20   0   2 13001.7 1265.57   3
 -20  20   5 1896.25 1336.02   2
 -20  20   5-15.2744 863.864   3
   0 -20   5-72.4271 946.685   2
 -20  20   5-15.4450 1046.01   4
  20   0   5-1330.73 1031.13   1
   0 -20   5 2048.83 1547.94   1
   0 -20   5-1150.51 1147.78   4
  20   0   5 279.231 1133.79   3
 -20  20   8 2197.93 983.184   3
   0 -20   8 1462.07 1032.09   2
 -20  20   8 980.571 1489.85   2
 -20  20   8-657.727 1141.53   4
   0 -20   8 832.185 1802.10   1
  20   0   8 1285.48 1417.88   3
  20   0   8 1877.79 1139.60   1
 -21   0  -6 13188.7 1597.20   2
   0  21  -6 13277.1 1779.68   3
 -21   0  -6 16453.2 1394.38   4
 -21   0  -3 1986.03 897.393   2
   0  21  -3 1774.74 1056.77   3
 -21   0  -3 473.524 870.490   4
  21 -21  -3 969.609 990.520   1
   0  21   0 73883.1 2332.12   3
 -21   0   0 68069.1 2316.11   2
  21 -21   0 70686.5 2242.36   1
   0  21   3-598.384 901.464   3
 -21   0   3 13.1092 1004.76   4
 -21   0   3-495.754 910.849   2
  21 -21   3 1677.94 954.421   1
  21 -21   6 33394.2 2133.82   1
 -21   0   6 34829.5 2097.11   2
   0  21   6 33838.5 1984.11   3
   0  21   9 488.299 1292.33   3
  21 -21   9-1517.10 1348.65   1
 -21   0   9 1693.20 1306.77   4
 -21   0   9 2258.40 1308.92   2
 -20  -1  -7 5122.84 1039.03   4
 -21   1  -7 4653.60 972.806   4
 -21   1  -4 3054.13 952.578   2
 -20  -1  -4 2028.63 954.451   2
  21 -20  -4 2230.82 1070.72   1
   1  20  -4 1255.10 1019.67   3
  -1  21  -4 1847.47 1102.32   3
 -21   1  -4 3002.64 916.517   4
 -20  -1  -4 2005.52 889.914   4
  20 -21  -4 3069.41 1020.50   1
 -20  -1  -1 5408.73 966.329   2
  -1  21  -1 4711.85 1033.59   3
  21 -20  -1 4728.69 960.204   1
  20 -21  -1 5780.46 982.056   1
   1  20  -1 6326.38 1009.66   3
 -21   1  -1 5804.62 1122.62   4
 -20  -1  -1 5490.66 1104.22   4
 -21   1  -1 3870.33 892.981   2
  20 -21   2 5630.96 1017.90   1
   1  20   2 5289.13 976.832   3
  -1  21   2 5819.53 1040.96   3
 -21   1   2 6806.62 1192.01   4
  21 -20   2 5377.71 1013.81   1
 -21   1   2 5419.30 1048.45   2
 -20  -1   2 5563.92 1016.40   2
 -20  -1   2 7118.41 1190.63   4
  20 -21   5 7650.53 1306.46   1
  21 -20   5 11538.9 1374.42   1
 -21   1   5 9515.37 1392.24   4
 -20  -1   5 8737.07 1363.37   4
 -21   1   5 9220.41 1300.93   2
 -20  -1   5 9257.80 1306.26   2
   1  20   5 8510.84 1247.30   3
  -1  21   5 8414.10 1165.41   3
   1  20   8 2825.86 1187.33   3
  -1  21   8 3057.31 1226.77   3
  20 -21   8 4825.31 1408.71   1
 -21   1   8 3963.66 1325.77   4
 -20  -1   8 5771.15 1376.48   4
  21 -20   8 3559.83 1323.73   1
 -21   1   8 4511.32 1321.41   2
 -20  -1   8 3212.07 1215.96   2
 -19  -2  -8 6801.36 1020.82   4
 -21   2  -5 5703.95 1135.29   2
   2  19  -5 6427.25 1343.34   3
 -19  -2  -5 5726.25 1185.60   2
  -2  21  -5 5152.79 1364.43   3
 -19  -2  -5 6740.55 1074.80   4
 -21   2  -5 5949.27 1028.57   4
   2  19  -2 13560.8 1228.22   3
  -2  21  -2 11365.3 1307.09   3
  19 -21  -2 13675.9 1216.66   1
 -21   2  -2 14616.6 1352.81   4
 -19  -2  -2 14121.3 1374.10   4
  21 -19  -2 12706.0 1262.12   1
 -21   2  -2 12383.0 1146.92   2
 -19  -2  -2 12791.0 1244.56   2
   2  19   1 12117.8 1139.71   3
  -2  21   1 15258.2 1294.81   3
 -21   2   1 14348.7 1399.85   4
 -19  -2   1 15861.6 1467.29   4
  19 -21   1 14119.6 1196.18   1
 -21   2   1 14686.5 1269.96   2
 -19  -2   1 13093.8 1225.72   2
  21 -19   1 13085.1 1186.56   1
   2  19   4 2057.37 963.681   3
  -2  21   4 807.943 934.474   3
 -21   2   4 235.820 993.376   4
 -19  -2   4 288.634 955.336   4
  19 -21   4 468.211 973.681   1
 -21   2   4-251.441 917.845   2
 -19  -2   4-419.248 896.891   2
  21 -19   4 782.293 954.333   1
 -19  -2   7 8696.98 1381.85   4
  19 -21   7 9523.96 1495.40   1
  21 -19   7 8874.57 1439.93   1
 -21   2   7 8623.82 1353.54   4
 -21   2   7 8646.92 1423.63   2
 -19  -2   7 9039.50 1372.59   2
   2  19   7 7704.69 1285.34   3
  -2  21   7 7525.32 1271.23   3
 -21   3  -6 42113.1 2111.16   2
 -18  -3  -6 43460.7 2449.95   2
   3  18  -6 41340.9 2223.51   3
  -3  21  -6 40149.9 2401.42   3
 -21   3  -6 45460.5 1925.61   4
 -18  -3  -6 44698.0 2031.04   4
 -21   3  -3 1114.26 743.696   2
 -18  -3  -3 1288.74 872.246   2
   3  18  -3 2478.44 938.037   3
  -3  21  -3 1837.36 1048.28   3
  18 -21  -3 2519.66 888.268   1
 -21   3  -3 2715.62 911.009   4
 -18  -3  -3 3809.88 990.678   4
  21 -18  -3 1337.01 1045.92   1
   3  18   0 73931.3 2121.59   3
  -3  21   0 73064.1 2290.41   3
  21 -18   0 71054.3 2275.91   1
 -21   3   0 81263.5 2728.49   4
 -18  -3   0 74998.1 2658.84   4
  18 -21   0 73610.4 2117.75   1
 -21   3   0 72975.4 2265.81   2
 -18  -3   0 74405.7 2372.18   2
   3  18   3 972.054 778.262   3
  21 -18   3 1298.56 901.541   1
  -3  21   3 635.879 853.824   3
 -18  -3   3 2848.77 1041.74   4
  18 -21   3 809.548 938.644   1
 -21   3   3 1012.05 869.095   2
 -21   3   3 628.356 935.464   4
 -18  -3   3 981.339 857.332   2
  18 -21   6 41392.6 2216.59   1
 -21   3   6 44664.7 2334.51   4
 -18  -3   6 43063.6 2253.94   4
 -21   3   6 43905.7 2280.53   2
 -18  -3   6 39280.4 2081.44   2
   3  18   6 41021.8 2027.77   3
  -3  21   6 38422.7 1903.38   3
  -3  21   9 721.035 1187.43   3
  18 -21   9 313.977 1327.65   1
 -21   3   9 2623.16 1345.00   4
 -18  -3   9 2206.31 1269.87   4
  21 -18   9 3129.79 1397.73   1
 -21   3   9 1363.20 1233.97   2
 -18  -3   9-47.8307 1127.55   2
   3  18   9 1670.28 1216.28   3
 -21   4  -7 7285.87 982.642   4
 -17  -4  -7 6621.62 1074.24   4
 -21   4  -4 2247.14 821.977   2
 -17  -4  -4 2489.07 1062.71   2
   4  17  -4 1247.31 910.255   3
  -4  21  -4 1960.01 1200.79   3
  21 -17  -4 3149.17 1106.19   1
 -17  -4  -4 3062.21 941.418   4
  17 -21  -4 2231.12 829.147   1
 -21   4  -4 2741.77 862.635   4
   4  17  -1 13593.5 1127.38   3
  -4  21  -1 10512.2 1187.45   3
 -21   4  -1 15149.2 1386.27   4
 -17  -4  -1 11356.1 1280.83   4
 -21   4  -1 11839.4 1062.54   2
 -17  -4  -1 12198.2 1242.99   2
  17 -21  -1 13236.2 1055.71   1
  21 -17  -1 13444.2 1270.38   1
  -4  21   2 9368.17 1110.77   3
  17 -21   2 8863.23 1068.32   1
 -21   4   2 12781.8 1372.78   4
 -17  -4   2 9182.16 1247.40   4
 -21   4   2 10423.6 1160.64   2
  21 -17   2 9988.37 1139.80   1
 -17  -4   2 10022.0 1190.27   2
   4  17   2 9131.63 1074.30   3
  17 -21   5 19869.5 1620.71   1
 -21   4   5 17509.3 1592.61   4
  21 -17   5 17423.4 1519.21   1
 -17  -4   5 18404.4 1589.94   4
 -21   4   5 15393.4 1545.63   2
 -17  -4   5 18572.1 1536.15   2
   4  17   5 17483.0 1448.12   3
  -4  21   5 15124.8 1345.97   3
  -4  21   8 3433.12 1120.28   3
  17 -21   8 2718.57 1371.24   1
 -21   4   8 5041.53 1307.75   4
 -17  -4   8 2873.19 1168.68   4
  21 -17   8 4776.11 1321.53   1
 -21   4   8 4483.39 1392.33   2
 -17  -4   8 3701.94 1221.15   2
   4  17   8 4143.39 1207.94   3
 -16  -5  -8 14264.5 1245.53   4
 -21   5  -5 1007.74 815.150   2
 -16  -5  -5 454.544 1067.20   2
   5  16  -5 465.065 977.575   3
  -5  21  -5 677.659 1229.40   3
 -21   5  -5 1020.91 783.011   4
 -16  -5  -5 822.673 838.586   4
   5  16  -2 15862.2 1138.50   3
  -5  21  -2 15952.4 1384.89   3
  16 -21  -2 15114.0 1082.41   1
 -21   5  -2 17463.6 1405.70   4
 -16  -5  -2 19123.8 1491.37   4
 -21   5  -2 18003.9 1154.30   2
  21 -16  -2 16702.6 1418.61   1
 -16  -5  -2 16623.8 1374.09   2
   5  16   1 1051.83 747.611   3
  -5  21   1 871.585 817.024   3
 -21   5   1 3689.21 1035.76   4
  21 -16   1 1100.90 812.731   1
 -16  -5   1 976.795 983.837   4
 -21   5   1 1462.91 776.568   2
  16 -21   1 2158.14 770.729   1
 -16  -5   1 1648.40 878.848   2
  -5  21   4 19619.5 1405.57   3
  16 -21   4 19056.1 1548.39   1
 -16  -5   4 19212.3 1592.80   4
  21 -16   4 18877.2 1471.46   1
 -21   5   4 19120.9 1557.71   2
 -21   5   4 19779.3 1612.04   4
 -16  -5   4 17905.3 1410.93   2
   5  16   4 19173.0 1381.80   3
  -5  21   7 1161.47 968.131   3
  16 -21   7 2627.80 1243.27   1
 -21   5   7-239.611 1020.76   4
 -16  -5   7 634.555 986.817   4
 -21   5   7 569.295 1120.85   2
  21 -16   7 669.913 1082.19   1
 -16  -5   7 2117.79 1010.07   2
   5  16   7 858.453 1024.62   3
  -5  21  10 7504.51 1377.08   3
  16 -21  10 6929.85 1767.48   1
 -21   5  10 6481.60 1547.27   2
 -21   5  10 9016.98 1665.58   4
 -16  -5  10 7927.51 1545.00   4
 -16  -5  10 5726.89 1324.41   2
  21 -16  10 6291.04 1544.55   1
   5  16  10 3272.74 1331.13   3
 -21   6  -6 65706.1 2174.29   2
 -15  -6  -6 65533.2 2911.11   2
 -21   6  -6 72864.0 2204.04   4
 -15  -6  -6 72637.4 2434.96   4
 -15  -6  -3 14911.2 1386.75   2
   6  15  -3 14073.7 1098.30   3
  -6  21  -3 12006.4 1389.11   3
 -21   6  -3 14855.1 1258.83   4
  21 -15  -3 14359.9 1438.59   1
 -15  -6  -3 13632.0 1295.81   4
  15 -21  -3 14961.8 1065.61   1
 -21   6  -3 13632.6 992.501   2
   6  15   0 9642.59 957.845   3
  -6  21   0 8054.25 1054.41   3
  21 -15   0 9629.19 1111.62   1
 -21   6   0 11605.5 1271.38   4
  15 -21   0 9655.00 940.960   1
 -21   6   0 9476.78 997.442   2
 -15  -6   0 11105.9 1297.77   4
 -15  -6   0 11353.7 1170.32   2
  -6  21   3 4398.07 988.278   3
  21 -15   3 5136.05 1024.59   1
  15 -21   3 6204.13 1069.75   1
 -21   6   3 6295.82 1149.92   4
 -15  -6   3 6288.88 1174.08   4
 -21   6   3 7935.41 1126.33   2
 -15  -6   3 4620.01 954.768   2
   6  15   3 6729.99 1019.51   3
  15 -21   6 3871.75 1267.47   1
  21 -15   6 6889.18 1232.94   1
 -21   6   6 4488.13 1161.90   4
 -15  -6   6 4937.45 1162.35   4
 -21   6   6 5391.74 1233.38   2
 -15  -6   6 5232.47 1096.52   2
   6  15   6 6084.09 1137.20   3
  -6  21   6 5310.75 1130.69   3
  15 -21   9 10555.3 1806.37   1
 -21   6   9 9791.62 1548.99   4
 -21   6   9 10122.1 1635.66   2
 -15  -6   9 10815.1 1550.01   4
  21 -15   9 8139.47 1432.40   1
 -15  -6   9 8494.23 1373.83   2
   6  15   9 7302.56 1452.13   3
  -6  21   9 8599.42 1375.81   3
 -21   7  -7 10681.1 986.152   4
 -14  -7  -7 11027.1 1199.35   4
 -14  -7  -4 3619.25 1144.27   2
   7  14  -4 4302.83 892.213   3
  -7  21  -4 5547.96 1351.81   3
 -21   7  -4 4398.04 932.354   4
 -14  -7  -4 4475.47 1022.29   4
 -21   7  -4 3823.36 759.194   2
  21 -14  -4 3440.04 668.943   3
  14 -21  -4 3585.02 703.540   1
   7  14  -1 7162.97 817.376   3
  -7  21  -1 6073.56 1075.75   3
 -21   7  -1 7651.35 1123.63   4
 -14  -7  -1 8871.71 1202.93   4
  21 -14  -1 6997.95 1070.35   1
  14 -21  -1 6771.62 797.774   1
 -21   7  -1 6460.89 823.580   2
 -14  -7  -1 7054.19 1073.09   2
  -7  21   2 10058.1 1090.93   3
 -14  -7   2 13396.1 1409.05   4
  14 -21   2 15341.0 1240.49   1
 -21   7   2 13035.0 1230.72   2
 -21   7   2 13036.9 1390.37   4
 -14  -7   2 14622.2 1241.98   2
  21 -14   2 11433.6 1185.78   1
   7  14   2 13659.4 1125.56   3
  -7  21   5 8411.54 1127.04   3
  14 -21   5 11286.0 1465.23   1
 -21   7   5 8762.38 1305.51   2
 -21   7   5 10126.2 1356.75   4
  21 -14   5 12850.4 1326.59   1
 -14  -7   5 12322.4 1337.65   4
 -14  -7   5 10876.2 1234.29   2
   7  14   5 11712.4 1262.63   3
  21 -14   8 17472.7 1682.87   1
 -21   7   8 17129.5 1723.24   4
 -21   7   8 19216.2 1872.02   2
 -14  -7   8 17594.2 1660.17   4
 -14  -7   8 14857.7 1490.29   2
   7  14   8 17788.8 1737.43   3
  14 -21   8 17784.1 1934.97   1
  -7  21   8 16490.8 1494.09   3
 -21   8  -5 710.359 656.141   2
 -13  -8  -5 2470.52 1207.45   2
   8  13  -5 167.124 786.791   3
  -8  21  -5 868.504 1210.03   3
 -21   8  -5 1575.94 732.798   4
 -13  -8  -5 506.795 864.257   4
  13 -21  -2 61024.1 1592.04   1
  21 -13  -2 57616.1 1528.02   3
 -13  -8  -2 60338.5 2298.09   2
   8  13  -2 60387.6 1692.96   3
  -8  21  -2 62060.0 2340.74   3
  21 -13  -2 60532.5 2328.22   1
 -21   8  -2 58426.7 2179.56   4
 -13  -8  -2 64947.5 2396.04   4
 -21   8  -2 59318.3 1727.11   2
  -8  21   1 14816.5 1230.28   3
  21 -13   1 12504.5 1178.87   1
  13 -21   1 14848.0 1125.25   1
 -13  -8   1 17612.7 1454.20   4
 -21   8   1 15189.2 1429.14   4
 -21   8   1 15855.5 1245.84   2
 -13  -8   1 14527.6 1253.60   2
   8  13   1 15054.2 1063.31   3
  13 -21   4 25833.2 1753.62   1
  -8  21   4 22999.0 1458.93   3
 -21   8   4 24011.9 1706.94   4
 -21   8   4 24394.1 1722.88   2
 -13  -8   4 25580.7 1706.05   4
  21 -13   4 23794.9 1587.15   1
 -13  -8   4 22360.6 1479.83   2
   8  13   4 24897.9 1535.88   3
  -8  21   7 866.972 958.501   3
  13 -21   7 3768.27 1399.81   1
 -21   8   7 705.314 990.455   4
 -21   8   7 86.9406 1064.83   2
 -13  -8   7-482.156 987.593   4
  21 -13   7-328.556 970.619   1
 -13  -8   7 1308.01 948.707   2
   8  13   7-1143.51 1048.49   3
 -21   8  10 11990.2 1668.79   4
 -21   8  10 15383.8 1966.86   2
 -13  -8  10 11503.1 1595.08   4
 -13  -8  10 9294.36 1403.59   2
  21 -13  10 6151.25 1368.65   1
   8  13  10 11024.8 1664.58   3
  13 -21  10 10716.4 1945.74   1
  -8  21  10 11307.6 1486.18   3
 -21   9  -6 11956.0 930.514   2
 -21   9  -6 13748.0 1106.95   4
  21 -12  -3 22757.3 1743.29   1
 -12  -9  -3 22243.0 1665.62   2
   9  12  -3 20007.5 1109.82   3
  -9  21  -3 23612.3 1758.74   3
  12 -21  -3 22580.2 980.019   1
 -21   9  -3 25666.6 1511.71   4
 -12  -9  -3 27131.7 1718.01   4
 -21   9  -3 24558.6 1126.04   2
  21 -12  -3 20119.2 939.099   3
  -9  21   0 26606.7 1551.65   3
  12 -21   0 29912.3 1300.51   1
 -21   9   0 33025.6 1801.17   4
  21 -12   0 25992.6 1547.72   1
 -12  -9   0 30605.1 1789.71   4
 -21   9   0 26798.6 1390.04   2
 -12  -9   0 29185.9 1663.70   2
   9  12   0 30380.1 1262.06   3
  12 -21   3 28312.8 1683.87   1
  -9  21   3 27900.0 1555.65   3
 -12  -9   3 28435.4 1767.73   4
 -21   9   3 29623.6 1818.39   4
 -21   9   3 23774.5 1659.58   2
 -12  -9   3 21931.4 1092.58   3
 -12  -9   3 24772.2 1522.99   2
  21 -12   3 24147.4 1497.52   1
   9  12   3 27471.1 1518.12   3
  -9  21   6 11798.2 1229.89   3
 -21   9   6 11735.8 1400.17   4
 -21   9   6 11582.6 1490.75   2
  21 -12   6 10936.6 1340.30   1
 -12  -9   6 12091.9 1373.62   4
 -12  -9   6 12072.0 1301.50   2
   9  12   6 11131.2 1378.45   3
  12 -21   6 13596.2 1686.26   1
  21 -12   9 9037.23 1442.77   1
 -21   9   9 10175.3 1681.44   2
 -12  -9   9 11571.3 1499.69   4
 -12  -9   9 9530.01 1326.72   2
   9  12   9 12306.5 1651.33   3
  12 -21   9 11757.2 1901.18   1
 -21   9   9 9832.56 1553.66   4
  -9  21   9 8732.26 1341.67   3
 -21  10  -7 9192.23 932.836   4
 -11 -10  -7 8196.00 1142.41   4
 -11 -10  -4 23987.0 1903.12   2
  10  11  -4 21178.6 1155.48   3
 -11 -10  -4 18569.4 1125.87   1
 -10  21  -4 21706.4 1836.38   3
 -21  10  -4 24855.1 1450.06   4
 -11 -10  -4 24804.3 1609.18   4
 -10  21  -4 20951.5 1084.45   2
  21 -11  -4 18630.6 809.148   3
 -21  10  -4 22038.3 1026.16   2
  10  11  -1 15666.6 931.237   3
 -11 -10  -1 13940.4 1338.03   2
  21 -11  -1 14596.2 928.217   3
 -10  21  -1 15867.8 1371.08   3
 -21  10  -1 15830.0 1349.06   4
  11 -21  -1 16441.0 899.338   1
 -11 -10  -1 17390.6 1487.90   4
 -21  10  -1 16031.0 1061.53   2
  21 -11  -1 12783.1 1315.46   1
  11 -21   2 55651.3 2032.97   1
 -10  21   2 52153.9 1974.36   3
  21 -11   2 49848.0 1963.07   1
 -10  21   2 47179.0 1694.00   1
 -21  10   2 49812.6 2205.45   4
 -21  10   2 52072.6 2093.39   2
 -11 -10   2 57143.2 2370.91   4
 -11 -10   2 49812.8 1718.77   3
 -11 -10   2 51494.8 2035.86   2
  10  11   2 59050.7 1874.10   3
 -10  21   5 4582.01 1047.95   3
  11 -21   5 6559.31 1339.08   1
  21 -11   5 3764.93 995.338   1
 -21  10   5 5037.35 1175.71   4
 -21  10   5 3203.36 1127.10   2
 -11 -10   5 4066.84 1065.97   4
  10  11   5 3857.20 1044.40   3
 -11 -10   5 4373.64 1012.92   2
 -21  10   8 36879.3 2223.54   4
  21 -11   8 30835.1 1988.90   1
 -21  10   8 31273.3 2250.92   2
 -11 -10   8 34084.5 2105.41   4
 -11 -10   8 29910.3 1811.33   2
  11 -21   8 35848.4 2551.18   1
  10  11   8 33628.4 2165.42   3
 -10  21   8 28869.2 1792.28   3
 -21  11  -5 4379.72 626.390   2
 -10 -11  -5 2167.22 742.938   1
 -11  21  -5 4545.40 1452.79   3
 -21  11  -5 5627.26 915.094   4
 -10 -11  -5 5370.32 1065.92   4
  21 -10  -5 3022.83 429.948   3
 -11  21  -5 2071.19 545.730   2
  21 -10  -2 52692.8 1301.18   3
  11  10  -2 53738.1 1429.80   3
 -10 -11  -2 48542.1 2229.32   2
 -11  21  -2 47278.5 2175.08   3
 -21  11  -2 50791.1 2043.37   4
  21 -10  -2 50537.0 2228.00   1
 -10 -11  -2 55798.7 2290.98   4
 -21  11  -2 51214.1 1548.98   2
  10 -21  -2 55438.1 1303.48   1
  10 -21   1 17171.6 1181.94   1
 -11  21   1 17254.6 1311.35   3
  21 -10   1 14960.6 1309.58   1
 -21  11   1 16553.5 1431.02   4
 -21  11   1 15878.7 1250.46   2
 -10 -11   1 21691.0 1615.42   4
 -11  21   1 14767.3 1345.20   1
  11  10   1 18323.9 1075.05   3
 -10 -11   1 19272.8 1439.53   2
 -11  21   4 24904.6 1515.11   3
  21 -10   4 21945.1 1320.45   2
 -21  11   4 24196.1 1699.76   4
 -21  11   4 23794.3 1745.31   2
 -10 -11   4 27294.5 1764.68   4
  10 -21   4 27833.2 1907.99   1
 -10 -11   4 21758.9 1090.46   3
  21 -10   4 23615.7 1541.13   1
  11  10   4 25614.7 1601.81   3
 -10 -11   4 22350.6 1510.72   2
 -11  21   7 7686.41 1209.54   3
  11  10   7 6103.67 846.667   1
 -21  11   7 8934.98 1381.54   4
 -21  11   7 9772.06 1493.55   2
  21 -10   7 7239.54 1213.17   1
 -10 -11   7 8991.97 1318.35   4
  10 -21   7 9949.60 1752.54   1
 -10 -11   7 6935.44 1129.75   2
  11  10   7 10759.9 1478.47   3
 -21  11  10 14825.0 1933.29   2
 -11  21  10 11243.2 1486.66   4
 -10 -11  10 11176.5 2310.65   1
  21 -10  10 11042.1 1603.10   1
 -10 -11  10 15379.5 1704.05   4
 -21  11  10 15103.9 1718.85   4
 -10 -11  10 9030.02 1355.48   2
  10 -21  10 17022.0 2338.28   1
  11  10  10 14800.6 1837.45   3
 -11  21  10 9671.84 1407.17   3
 -21  12  -6 10315.3 1026.72   4
  -9 -12  -6 11794.6 1315.37   4
  12   9  -3 24122.0 997.007   3
  -9 -12  -3 25828.7 1880.78   2
 -12  21  -3 25241.7 1926.09   3
 -21  12  -3 28668.5 1561.62   4
   9 -21  -3 21060.8 699.018   1
  -9 -12  -3 20592.3 987.715   1
  -9 -12  -3 27149.5 1737.62   4
 -21  12  -3 24818.6 1030.63   2
 -12  21  -3 27859.9 1190.32   2
  21  -9  -3 24957.4 797.948   3
  -9 -12   0 26951.9 1659.01   2
   9 -21   0 25574.7 1189.98   1
 -12  21   0 24105.6 1563.55   3
  21  -9   0 25135.6 1243.96   3
 -21  12   0 27747.5 1678.39   4
 -21  12   0 24652.4 1354.11   2
  -9 -12   0 27424.1 1765.88   4
  21  -9   0 24883.0 1619.61   1
  12   9   0 26905.3 1153.74   3
  21  -9   3 22837.0 1512.65   1
 -12  21   3 25068.1 1500.11   3
 -21  12   3 25855.1 1708.59   4
 -21  12   3 23498.2 1699.75   2
 -12  21   3 23739.8 1318.81   1
  -9 -12   3 27881.3 1778.78   4
   9 -21   3 26140.1 1741.19   1
  -9 -12   3 20778.2 1179.84   3
  12   9   3 30146.6 1598.70   3
  -9 -12   3 21680.9 1445.35   2
 -12  21   6 13019.3 1272.61   3
 -21  12   6 10473.8 804.145   3
  12   9   6 10452.5 1059.38   1
 -21  12   6 16120.8 1525.66   4
 -21  12   6 16109.8 1706.27   2
  -9 -12   6 18984.4 1656.52   4
  21  -9   6 12719.4 1312.26   1
   9 -21   6 15601.2 1801.76   1
  12   9   6 15290.0 1542.62   3
  -9 -12   6 13681.9 1303.39   2
 -12  21   9 6818.77 1217.12   3
   9 -21   9 10471.4 1891.53   1
 -12  21   9 8125.85 1402.33   4
 -21  12   9 7153.40 1393.10   4
  -9 -12   9 6215.46 2058.82   1
  21  -9   9 7591.09 1353.96   1
 -21  12   9 7396.25 1535.79   2
  -9 -12   9 9435.35 1437.36   4
  12   9   9 8916.90 1548.62   3
  -9 -12   9 7005.72 1193.71   2
 -21  13  -7 675.602 631.314   4
  -8 -13  -4 16669.2 876.495   1
  -8 -13  -4 23874.7 1973.41   2
  13   8  -4 15203.4 735.155   3
 -13  21  -4 21647.4 1914.25   3
 -21  13  -4 23349.0 1422.77   4
  -8 -13  -4 22600.3 1646.26   4
 -13  21  -4 21145.5 933.546   2
 -21  13  -4 20928.8 857.544   2
  -8 -13  -1 12316.1 1354.46   2
  21  -8  -1 15793.9 889.482   3
 -13  21  -1 14425.8 1398.19   3
   8 -21  -1 16113.1 861.034   1
  21  -8  -1 16793.8 1492.62   1
 -21  13  -1 16328.9 1377.10   4
 -21  13  -1 17230.3 1111.52   2
  -8 -13  -1 16015.8 1480.82   4
  13   8  -1 16911.6 857.781   3
 -13  21   2 62029.9 2155.63   3
  21  -8   2 59076.5 2192.11   1
 -21  13   2 56715.9 2344.25   4
 -21  13   2 65697.3 2379.73   2
 -13  21   2 58742.2 2147.36   1
  -8 -13   2 72959.3 2648.22   4
   8 -21   2 72590.9 2462.43   1
  13   8   2 67832.3 2075.20   3
  -8 -13   2 62887.6 2292.18   2
  -8 -13   5-648.131 897.352   2
 -13  21   5-535.685 863.047   3
  13   8   5 1337.16 829.740   1
 -21  13   5 1419.48 702.870   3
  21  -8   5 3206.09 1003.73   1
  -8 -13   5 1184.20 1013.45   4
 -21  13   5 1880.45 971.755   4
 -21  13   5 1224.83 1095.08   2
  13   8   5 413.024 963.828   3
   8 -21   5 849.233 1218.18   1
 -13  21   8 14207.6 1377.45   3
  -8 -13   8 20927.1 2534.63   1
 -21  13   8 18438.7 1923.00   2
  21  -8   8 17179.0 1581.13   1
  13   8   8 10413.8 1074.52   1
  -8 -13   8 19831.5 1699.28   4
   8 -21   8 18611.5 2217.39   1
  13   8   8 19331.8 1798.64   3
  -8 -13   8 14430.5 1426.46   2
 -21  13   8 19732.8 1734.40   4
 -21  14  -5 11994.1 1129.05   4
  -7 -14  -5 13354.9 1408.75   4
  14   7  -2 15038.7 751.278   3
  21  -7  -2 15169.0 697.940   3
 -14  21  -2 13279.8 1015.49   2
  -7 -14  -2 12779.9 817.448   1
  -7 -14  -2 11955.3 1457.77   2
  21  -7  -2 14221.3 1481.80   1
 -14  21  -2 13521.3 1498.30   3
 -21  14  -2 15451.5 1317.42   4
   7 -21  -2 16254.5 713.541   1
 -21  14  -2 15193.8 967.141   2
  -7 -14  -2 15284.9 1448.45   4
  -7 -14   1 8593.39 1223.88   2
 -14  21   1 5715.16 1024.79   3
 -21  14   1 7847.06 1196.80   4
  -7 -14   1 10170.1 1327.97   4
  21  -7   1 7049.29 1134.70   1
   7 -21   1 7818.87 1016.80   1
 -21  14   1 9626.84 1139.30   2
  14   7   1 7999.75 883.206   3
 -14  21   4 2771.66 851.392   1
 -14  21   4 3483.43 939.931   3
 -21  14   4 4383.49 820.478   3
 -21  14   4 5355.96 1143.47   4
 -21  14   4 5261.47 1236.58   2
  14   7   4 4063.27 1005.08   1
  21  -7   4 5159.61 1032.30   1
  -7 -14   4 5706.83 1160.77   4
  14   7   4 5288.40 1120.03   3
   7 -21   4 4665.57 1342.78   1
  -7 -14   4 4796.86 1045.09   2
 -14  21   7 10164.5 1207.43   3
 -21  14   7 7542.74 874.444   3
  -7 -14   7 12337.1 2332.92   1
 -21  14   7 9953.62 1358.34   4
 -21  14   7 8140.21 1515.59   2
  -7 -14   7 10551.0 1410.95   4
   7 -21   7 10907.1 1821.39   1
  14   7   7 8042.18 1105.93   1
  21  -7   7 9195.40 1270.91   1
  14   7   7 10292.2 1480.25   3
  -7 -14   7 8500.20 1198.05   2
 -14  21  10 10467.3 1371.55   3
 -14  21  10 12970.8 2419.05   2
  21  -7  10 7067.75 1434.75   1
 -21  14  10 10602.3 1867.09   2
 -21  14  10 12113.4 1621.98   4
 -14  21  10 12816.1 1552.05   4
  -7 -14  10 9770.90 2351.89   1
   7 -21  10 14707.9 2398.78   1
  14   7  10 12017.2 1803.43   3
  -7 -14  10 9906.99 1301.59   2
 -21  15  -6 2386.61 789.679   4
 -15  21  -3 4942.64 690.445   2
  -6 -15  -3 2850.19 523.425   1
  15   6  -3 3077.78 394.045   3
 -15  21  -3 5496.11 1416.96   3
  -6 -15  -3 5495.06 1447.09   2
 -21  15  -3 3409.27 933.455   4
 -21  15  -3 5050.90 596.323   2
  -6 -15  -3 4118.17 1114.87   4
  -6 -15   0 9318.69 1312.10   2
 -15  21   0 8648.47 1222.25   3
  21  -6   0 9430.90 927.102   3
  21  -6   0 9268.26 1256.03   1
 -21  15   0 9199.42 1170.92   4
 -21  15   0 8668.90 1019.03   2
  -6 -15   0 8986.86 1319.80   4
   6 -21   0 8464.87 894.661   1
  15   6   0 8838.23 788.608   3
  15   6   3 12625.4 1333.67   1
 -21  15   3 13907.3 1483.63   2
 -15  21   3 13371.0 1265.06   3
 -21  15   3 13118.2 1192.66   3
  21  -6   3 13610.1 1309.38   1
 -21  15   3 14583.1 1462.17   4
  -6 -15   3 15621.0 1471.38   4
   6 -21   3 16679.0 1643.77   1
 -15  21   3 12203.1 1169.92   1
  15   6   3 14494.7 1331.08   3
  -6 -15   3 11441.5 1237.41   2
 -15  21   6 69311.5 2319.25   3
 -21  15   6 64879.1 1907.00   3
   6 -21   6 56910.4 2140.51   2
  -6 -15   6 77650.5 3804.65   1
 -21  15   6 71851.8 2833.68   4
 -21  15   6 68916.0 2991.96   2
   6 -21   6 76566.3 3365.57   1
  -6 -15   6 74876.2 2776.92   4
  15   6   6 66050.1 2257.07   1
  15   6   6 69895.3 2802.07   3
  21  -6   6 64448.9 2430.38   1
  -6 -15   6 67256.1 2428.05   2
 -15  21   9 8074.81 1269.71   3
  21  -6   9 5959.39 1253.62   1
 -15  21   9 11633.2 2303.90   2
 -15  21   9 8045.60 1388.93   4
 -21  15   9 7428.40 1379.73   4
 -21  15   9 9541.33 1711.43   2
  -6 -15   9 9678.07 2277.53   1
  -6 -15   9 9051.44 1435.65   4
  15   6   9 7896.74 1533.58   3
  -6 -15   9 6399.76 1204.69   2
   6 -21   9 9941.16 2084.04   1
 -21  16  -7 427.985 682.327   4
 -16  21  -4 17987.1 932.085   2
 -21  16  -4 19518.4 1400.02   4
 -21  16  -4 18747.3 701.434   2
 -16  21  -4 18258.1 799.583   2
  16   5  -1 2798.19 501.946   3
  21  -5  -1 2300.12 1121.88   1
  -5 -16  -1 3356.90 704.043   1
  21  -5  -1 2971.03 604.325   3
  -5 -16  -1 1694.85 1148.20   2
 -16  21  -1 1696.59 1086.29   3
 -21  16  -1 2746.07 961.017   4
 -21  16  -1 3956.23 836.176   2
  -5 -16  -1 3025.97 1076.80   4
   5 -21  -1 4237.38 659.238   1
  -5 -16   2 16481.6 1413.57   2
 -16  21   2 15997.1 1360.91   3
 -21  16   2 15138.6 1280.79   3
  16   5   2 14365.7 1421.22   1
 -21  16   2 14667.7 1471.88   4
 -21  16   2 17922.6 1554.16   2
  21  -5   2 16227.9 1413.22   1
   5 -21   2 16451.5 1498.70   1
  -5 -16   2 17852.9 1546.78   4
  16   5   2 20941.1 1376.47   3
  -5 -16   5 963.416 870.073   2
 -16  21   5 2531.72 980.488   3
 -21  16   5 703.337 757.742   3
   5 -21   5 924.471 949.308   2
 -21  16   5 308.140 970.030   4
  -5 -16   5-189.736 1611.77   1
  -5 -16   5 1034.93 990.992   4
  16   5   5 538.877 923.594   1
 -21  16   5 879.415 1176.11   2
  21  -5   5 2417.07 1044.81   1
   5 -21   5 3102.66 1454.02   1
  16   5   5 2575.36 1084.39   3
 -16  21   8 15579.8 1412.18   3
 -16  21   8 17143.6 2364.23   2
 -16  21   8 13267.6 1669.35   4
 -21  16   8 13629.4 1599.77   4
 -21  16   8 16456.5 1989.39   2
  -5 -16   8 18214.5 2636.30   1
   5 -21   8 13808.4 2144.17   1
  16   5   8 10722.0 1264.62   1
  16   5   8 14157.2 1729.19   3
  -5 -16   8 15199.5 1577.78   4
  21  -5   8 11514.9 1411.69   1
  -5 -16   8 12650.6 1374.45   2
 -21  17  -5 17810.2 1348.58   4
  17   4  -2 9804.94 537.628   3
  21  -4  -2 10407.6 511.505   3
   4 -21  -2 10533.3 557.182   1
 -17  21  -2 9519.46 1005.80   2
  -4 -17  -2 12285.1 1638.91   2
 -17  21  -2 11005.2 1585.86   3
  -4 -17  -2 8461.15 682.428   1
 -21  17  -2 9908.89 1190.32   4
 -21  17  -2 9927.24 873.067   2
  -4 -17  -2 10213.7 1365.69   4
  21  -4  -2 10706.7 570.166   3
  -4 -17   1 9388.04 1359.47   2
  21  -4   1 8815.65 1270.26   1
 -17  21   1 8828.66 1204.25   3
 -21  17   1 9746.63 1277.21   3
 -21  17   1 11455.6 1303.15   4
 -21  17   1 10030.8 1199.10   2
   4 -21   1 12254.7 1312.91   1
  -4 -17   1 11116.5 1341.87   4
  17   4   1 12329.9 1028.69   3
  -4 -17   4 5233.57 1127.94   2
 -17  21   4 4886.46 1033.58   3
  21  -4   4 3345.43 1036.25   1
 -21  17   4 2799.46 887.988   3
   4 -21   4 4051.07 1111.54   2
 -21  17   4 5868.49 1379.11   2
 -21  17   4 4293.00 1116.19   4
  -4 -17   4 5907.78 1708.18   1
  -4 -17   4 6095.95 1197.00   4
   4 -21   4 5641.21 1458.58   1
  17   4   4 3701.95 1034.92   1
  17   4   4 4740.51 1142.75   3
  -4 -17   7 6306.95 1125.22   2
 -21  17   7 6696.28 1021.52   3
 -17  21   7 5910.27 1078.88   3
   4 -21   7 5205.38 1121.07   2
 -21  17   7 6839.86 1580.04   2
 -17  21   7 6386.75 1413.84   4
 -17  21   7 7655.33 1831.85   2
 -21  17   7 6425.06 1302.78   4
  -4 -17   7 7882.12 2105.81   1
  17   4   7 4716.95 1126.16   1
   4 -21   7 9534.82 1949.17   1
  -4 -17   7 5641.86 1230.73   4
  17   4   7 8977.86 1464.72   3
  21  -4   7 6833.40 1224.89   1
 -17  21  10 2121.59 1080.77   3
  21  -4  10 947.774 1126.90   1
 -17  21  10 1637.66 1220.20   4
 -17  21  10 3323.80 1884.05   2
 -21  17  10 1060.99 1139.32   4
 -21  17  10 2051.02 1602.33   2
  -4 -17  10 1916.22 2066.77   1
  21  -4  10 2916.48 1819.46   3
  17   4  10 1918.48 1551.57   3
   4 -21  10 4670.56 2110.27   1
 -18  21  -6 46355.3 2017.67   4
 -21  18  -6 41608.6 1826.83   4
 -18  21  -3 1392.70 607.447   2
 -18  21  -3 69.2981 1225.95   3
 -21  18  -3 2228.64 982.211   4
 -18  21  -3 1704.69 672.158   2
  -3 -18  -3 455.462 436.572   1
 -21  18  -3 1854.94 562.993   2
  -3 -18  -3 890.059 295.408   1
   3 -21   0 85303.8 2307.82   1
  -3 -18   0 81149.9 2923.05   2
 -18  21   0 82546.4 2849.41   3
  21  -3   0 79062.6 2208.42   3
 -21  18   0 83216.8 2845.16   3
  -3 -18   0 82729.5 2632.44   1
 -21  18   0 83207.5 2778.76   4
 -21  18   0 81311.6 2473.78   2
  -3 -18   0 88948.6 3069.53   4
  21  -3   0 90050.6 2274.05   3
  21  -3   0 73851.0 2794.14   1
  18   3   0 83695.5 1921.09   3
  18   3   3 2883.83 1118.86   1
 -18  21   3 3562.13 1029.16   3
  -3 -18   3 2057.13 1007.93   2
 -21  18   3 3305.25 978.699   3
   3 -21   3 2221.95 1163.31   2
 -21  18   3 3071.22 1070.38   4
  -3 -18   3 3108.74 1358.73   1
 -21  18   3 1636.80 1076.56   2
  -3 -18   3 984.270 1019.58   4
   3 -21   3 2702.00 1275.51   1
  21  -3   3 2304.71 1048.04   1
  18   3   3 1914.62 973.859   3
 -18  21   6 36858.1 1831.83   3
   3 -21   6 31543.6 1814.19   2
 -21  18   6 32799.8 1655.12   3
  21  -3   6 36625.0 1981.76   1
 -18  21   6 49035.8 2983.94   2
 -18  21   6 41233.3 2429.00   4
 -21  18   6 41307.7 2304.95   4
  -3 -18   6 45046.1 3084.91   1
   3 -21   6 41931.1 2803.58   1
  18   3   6 36637.2 1959.97   1
  -3 -18   6 39396.4 2173.18   4
  21  -3   6 46565.0 2657.31   3
  18   3   6 43653.1 2343.68   3
 -21  18   6 42523.1 2584.90   2
  -3 -18   6 35176.5 1924.86   2
  -3 -18   9 2124.88 1029.60   2
  18   3   9 2855.29 1136.98   1
 -18  21   9 794.325 970.022   3
 -18  21   9 3304.64 1317.88   4
 -18  21   9 3638.36 1811.55   2
 -21  18   9 3175.27 1620.85   2
  21  -3   9 1951.01 1155.37   1
 -21  18   9 3043.09 1233.43   4
  -3 -18   9 4566.30 2052.00   1
  -3 -18   9 2726.70 1208.30   4
  21  -3   9 2926.26 1755.49   3
   3 -21   9 1887.72 1873.72   1
  18   3   9 5012.07 1590.27   3
 -19  21  -7 10927.7 1122.31   4
 -21  19  -7 11864.6 1137.03   4
 -19  21  -4 844.514 940.673   4
 -21  19  -4 18.4507 845.596   4
 -19  21  -4 701.253 382.797   2
 -21  19  -4 267.750 298.283   2
 -21  19  -1 16169.6 1228.39   2
  -2 -19  -1 15881.0 1792.34   2
  21  -2  -1 16964.1 988.234   3
 -19  21  -1 15768.5 1707.80   3
 -21  19  -1 17544.7 1675.26   3
 -21  19  -1 14331.8 1449.34   4
 -19  21  -1 17754.2 1416.99   2
  -2 -19  -1 17771.2 1308.42   1
   2 -21  -1 18054.5 1117.78   1
  -2 -19  -1 15557.2 1022.39   1
  -2 -19  -1 17418.9 1708.28   4
  21  -2  -1 16998.5 933.345   3
  19   2  -1 18273.3 800.962   3
  21  -2   2 10547.4 1388.59   1
  -2 -19   2 15203.1 1545.00   2
 -19  21   2 15412.1 1452.13   3
   2 -21   2 16644.6 1649.02   2
 -21  19   2 15072.0 1450.10   3
 -21  19   2 15274.8 1484.56   4
  -2 -19   2 17621.2 1814.54   1
 -21  19   2 17320.4 1651.51   2
   2 -21   2 13867.5 1558.63   1
 -19  21   2 17290.6 1698.30   2
  -2 -19   2 19338.8 1755.93   4
  19   2   2 13607.4 1509.73   1
  21  -2   2 17759.1 1457.08   3
  19   2   2 16082.4 1321.87   3
  -2 -19   5 6569.45 1200.03   2
   2 -21   5 6854.15 1230.85   2
 -21  19   5 8527.74 1178.24   3
 -19  21   5 6494.43 1089.84   3
 -19  21   5 8061.03 1389.70   4
  21  -2   5 7805.14 1218.94   1
 -21  19   5 8187.99 1591.98   2
 -21  19   5 6234.56 1234.93   4
 -19  21   5 7742.19 1574.78   2
  -2 -19   5 6508.49 1784.24   1
  19   2   5 7380.67 1232.15   1
   2 -21   5 7464.82 1677.74   1
  -2 -19   5 7108.86 1282.65   4
  21  -2   5 8509.05 1460.94   3
  19   2   5 7617.66 1365.09   3
 -19  21   8 5343.83 1167.72   3
 -21  19   8 6050.37 1109.61   3
  -2 -19   8 4557.10 1146.95   2
  19   2   8 4584.69 1213.37   1
   2 -21   8 3980.00 1083.64   2
 -19  21   8 6472.28 1376.71   4
 -19  21   8 6628.48 1841.28   2
 -21  19   8 8332.14 1438.35   4
 -21  19   8 7661.33 1755.66   2
  -2 -19   8 7906.62 2147.04   1
  21  -2   8 5543.03 1263.60   1
  21  -2   8 8673.11 1819.73   3
   2 -21   8 8207.27 2107.16   1
  19   2   8 10456.1 1702.22   3
 -20  21  -5 10508.4 1227.01   4
 -21  20  -5 7888.03 1141.51   4
   1 -21  -2 6204.02 562.479   1
  21  -1  -2 5361.69 385.706   3
  20   1  -2 5656.33 471.851   3
 -20  21  -2 6545.64 1456.98   3
 -21  20  -2 6188.19 1206.20   4
 -20  21  -2 5195.88 1158.22   4
 -21  20  -2 6734.59 914.417   2
  -1 -20  -2 6859.18 775.262   1
  -1 -20  -2 5642.65 579.037   1
   1 -21  -2 6704.96 619.854   1
  21  -1  -2 5790.58 334.273   3
  20   1  -2 5596.09 361.998   3
 -20  21  -2 6238.18 936.797   2
 -21  20   1 7303.86 1373.09   3
 -20  21   1 4004.55 1148.02   3
  -1 -20   1 3863.85 1245.20   2
   1 -21   1 5110.88 1471.86   2
 -20  21   1 5940.32 1273.63   4
 -21  20   1 6875.35 1246.11   4
  -1 -20   1 8637.49 1385.32   1
 -20  21   1 4495.24 1157.45   2
 -21  20   1 6484.57 1182.88   2
  21  -1   1 3953.77 1240.26   1
  20   1   1 4636.36 1304.47   1
   1 -21   1 5799.83 1202.66   1
  -1 -20   1 2658.47 1133.08   4
  21  -1   1 5390.82 972.569   3
  20   1   1 6378.78 970.366   3
  21  -1   4 4493.98 1152.06   1
 -20  21   4 3791.10 1034.73   3
 -21  20   4 2127.12 1049.13   3
  -1 -20   4 2901.27 1091.78   2
   1 -21   4 5086.40 1200.13   2
 -21  20   4 4301.22 1402.01   2
 -20  21   4 3675.67 1207.96   4
 -21  20   4 4447.27 1189.85   4
 -20  21   4 5949.88 1475.04   2
  20   1   4 2739.14 1109.81   1
  -1 -20   4 2186.24 1414.39   1
   1 -21   4 4567.76 1462.70   1
  -1 -20   4 4426.55 1242.89   4
  21  -1   4 3717.85 1188.21   3
  20   1   4 3933.79 1132.96   3
  21  -1   7 4380.26 1182.67   1
 -21  20   7 5471.03 1098.40   3
 -20  21   7 3253.87 1073.01   3
  -1 -20   7 4116.28 1113.26   2
   1 -21   7 5368.38 1190.42   2
  20   1   7 3694.68 1192.02   1
 -20  21   7 6031.19 1366.02   4
 -21  20   7 6409.11 1377.39   4
 -20  21   7 4815.06 1671.33   2
 -21  20   7 5365.15 1599.31   2
  -1 -20   7 6514.77 1985.89   1
   1 -21   7 7442.99 2053.67   1
  20   1   7 6537.39 1504.69   3
  21  -1   7 3955.89 1436.62   3
 -21  21  -6 37367.8 1890.28   4
 -21  21  -3 2050.21 1050.43   4
 -21  21  -3 1249.98 637.456   2
   0 -21   0 79430.8 3180.51   2
 -21  21   0 75753.6 2941.38   3
 -21  21   0 84437.7 3050.75   4
 -21  21   0 83866.4 2705.19   2
   0 -21   0 88570.3 2616.83   1
  21   0   0 90278.4 2140.16   3
 -21  21   3-688.075 984.038   3
   0 -21   3-483.740 1128.37   2
 -21  21   3 1631.64 1119.59   4
 -21  21   3-436.450 1207.96   2
   0 -21   3-2294.25 1285.82   1
   0 -21   3 2170.17 1153.84   4
  21   0   3 905.926 1096.51   1
  21   0   3 1794.21 953.511   3
   0 -21   6 15399.1 1522.40   2
 -21  21   6 15081.2 1380.63   3
 -21  21   6 19203.5 1899.98   4
 -21  21   6 22939.6 2211.77   2
   0 -21   6 22683.6 2425.80   1
  21   0   6 18173.0 1667.21   1
  21   0   6 21783.3 1888.79   3
  21   0   9 460.725 1191.96   1
 -21  21   9-825.190 1180.28   4
 -21  21   9-333.774 1659.35   2
   0 -21   9 2181.52 1967.44   1
  21   0   9-1367.78 1568.42   3
 -22   0  -7 947.285 880.847   4
  22 -22  -4-216.088 1075.46   1
 -22   0  -4-14.8535 882.950   4
 -22   0  -4 1596.34 989.680   2
   0  22  -4-276.709 1096.20   3
 -22   0  -1-136.336 813.944   2
  22 -22  -1-195.993 877.276   1
   0  22  -1 1297.08 917.813   3
 -22   0  -1 662.280 970.449   4
   0  22   2 8118.82 1171.82   3
  22 -22   2 5953.17 1072.11   1
 -22   0   2 7911.59 1299.84   4
 -22   0   2 7445.58 1160.02   2
   0  22   5 495.899 983.695   3
 -22   0   5 106.791 1071.15   4
  22 -22   5-75.2647 1020.69   1
 -22   0   5 1564.89 1009.60   2
   0  22   8 7557.66 1426.12   3
  22 -22   8 8490.09 1622.29   1
 -22   0   8 9550.85 1558.47   4
 -22   0   8 10541.3 1610.63   2
   1  21  -5 8228.01 1474.63   3
  -1  22  -5 8549.44 1567.60   3
 -22   1  -5 7027.81 1209.97   2
 -21  -1  -5 7284.06 1248.21   2
 -22   1  -5 8596.14 1157.43   4
 -21  -1  -5 10256.3 1233.23   4
 -22   1  -2 4492.64 953.447   2
 -21  -1  -2 3178.23 921.248   2
   1  21  -2 3265.42 975.271   3
  -1  22  -2 3841.20 1057.18   3
 -21  -1  -2 5987.25 1155.86   4
 -22   1  -2 5105.92 1119.24   4
  21 -22  -2 6049.11 1066.73   1
  22 -21  -2 2898.68 1003.58   1
   1  21   1 16869.0 1351.83   3
  -1  22   1 13992.0 1300.95   3
 -22   1   1 16201.2 1600.60   4
 -21  -1   1 15804.3 1570.80   4
  21 -22   1 14023.1 1275.78   1
 -22   1   1 14403.2 1318.56   2
 -21  -1   1 14296.1 1343.26   2
  22 -21   1 13080.9 1249.43   1
   1  21   4 4313.19 1046.74   3
  -1  22   4 4551.29 1037.60   3
  21 -22   4 6702.46 1195.33   1
 -22   1   4 4644.91 1212.94   4
 -21  -1   4 4921.47 1201.49   4
 -21  -1   4 5419.45 1164.32   2
 -22   1   4 4756.59 1134.15   2
  22 -21   4 3775.31 1106.14   1
  21 -22   7 9689.10 1569.33   1
  22 -21   7 11967.7 1585.04   1
 -22   1   7 10472.0 1550.40   4
 -21  -1   7 13422.9 1655.95   4
 -22   1   7 9453.72 1481.30   2
 -21  -1   7 13070.9 1596.65   2
   1  21   7 10987.9 1434.71   3
  -1  22   7 8827.10 1373.04   3
 -20  -2  -6 8607.55 1551.87   2
 -22   2  -6 6185.21 1269.16   2
   2  20  -6 7798.89 1487.01   3
  -2  22  -6 7623.81 1599.54   3
 -22   2  -6 8337.18 1152.89   4
 -20  -2  -6 8610.34 1190.94   4
 -20  -2  -3 25955.1 1638.13   2
   2  20  -3 26729.8 1688.50   3
  -2  22  -3 26923.6 1832.97   3
  22 -20  -3 24017.9 1696.58   1
 -22   2  -3 28346.3 1724.86   4
 -20  -2  -3 29804.0 1813.31   4
 -22   2  -3 27115.2 1523.07   2
  20 -22  -3 24785.6 1599.99   1
   2  20   0 8547.53 1062.25   3
  -2  22   0 8158.01 1110.67   3
  22 -20   0 9114.02 1130.71   1
 -22   2   0 10859.0 1365.93   4
 -20  -2   0 10157.9 1329.27   4
 -22   2   0 8994.16 1120.35   2
 -20  -2   0 9952.88 1179.04   2
  20 -22   0 9849.38 1087.69   1
   2  20   3 32455.6 1705.96   3
  -2  22   3 31893.4 1726.22   3
 -22   2   3 34574.3 2092.06   4
 -20  -2   3 33905.9 2062.26   4
  20 -22   3 38257.3 1888.47   1
  22 -20   3 28669.7 1720.36   1
 -22   2   3 34232.8 1894.62   2
 -20  -2   3 33837.8 1848.08   2
  20 -22   6 17555.0 1755.36   1
  22 -20   6 16831.8 1633.74   1
 -22   2   6 20066.2 1839.63   4
 -20  -2   6 19469.9 1782.47   4
 -22   2   6 17476.7 1673.35   2
 -20  -2   6 17368.4 1606.48   2
   2  20   6 16281.0 1574.01   3
  -2  22   6 16872.7 1547.24   3
  20 -22   9 17818.8 1957.71   1
  22 -20   9 15429.5 1846.86   1
 -22   2   9 18751.9 1949.61   4
 -20  -2   9 18206.2 1877.16   4
 -22   2   9 13366.8 1770.72   2
 -20  -2   9 16127.4 1857.89   2
   2  20   9 12725.9 1642.57   3
  -2  22   9 14011.2 1654.34   3
 -22   3  -7 1109.54 832.537   4
 -19  -3  -7 2007.13 926.200   4
 -19  -3  -4 6199.17 1211.67   2
 -22   3  -4 5068.68 976.319   2
  -3  22  -4 6576.71 1365.74   3
   3  19  -4 7016.83 1174.31   3
 -22   3  -4 7035.87 1113.68   4
  22 -19  -4 5363.38 1251.21   1
 -19  -3  -4 5765.94 1041.98   4
  19 -22  -4 3046.54 1050.89   1
 -19  -3  -1 4136.07 951.303   2
   3  19  -1 5028.90 941.100   3
  -3  22  -1 5158.68 1033.69   3
  22 -19  -1 5246.68 1066.31   1
 -22   3  -1 5992.75 1128.10   4
 -19  -3  -1 7387.25 1186.68   4
  19 -22  -1 4141.07 887.939   1
 -22   3  -1 5597.28 952.577   2
   3  19   2 8695.73 1104.82   3
  -3  22   2 10831.3 1191.96   3
  19 -22   2 11452.8 1197.41   1
 -22   3   2 11554.9 1383.97   4
 -19  -3   2 12722.3 1408.19   4
 -22   3   2 9435.06 1163.43   2
  22 -19   2 11110.2 1225.03   1
 -19  -3   2 9109.49 1167.77   2
   3  19   5 4327.19 1127.52   3
  -3  22   5 754.047 932.639   3
 -22   3   5 5971.07 1300.89   4
  19 -22   5 4709.38 1253.46   1
 -19  -3   5 4114.67 1121.23   4
 -22   3   5 3760.71 1133.65   2
 -19  -3   5 2130.94 1031.06   2
  22 -19   5 4747.94 1164.94   1
  19 -22   8 13676.3 1734.70   1
  22 -19   8 10031.0 1522.51   1
 -22   3   8 14668.6 1688.31   4
 -19  -3   8 13500.0 1667.33   4
 -22   3   8 10650.7 1628.55   2
 -19  -3   8 11312.6 1548.16   2
   3  19   8 13953.7 1635.67   3
  -3  22   8 11089.7 1486.23   3
 -18  -4  -8 2998.06 935.195   4
 -22   4  -5 15751.0 1343.47   2
 -18  -4  -5 14711.6 1576.65   2
   4  18  -5 16163.2 1550.66   3
  -4  22  -5 14614.8 1705.21   3
 -22   4  -5 14660.7 1306.10   4
 -18  -4  -5 15842.8 1430.77   4
   4  18  -2 7359.29 1021.46   3
  -4  22  -2 6883.94 1179.35   3
  18 -22  -2 7280.27 962.105   1
 -22   4  -2 8554.63 1185.93   4
 -18  -4  -2 8081.19 1193.04   4
  22 -18  -2 8252.73 1195.81   1
 -22   4  -2 10063.4 1038.51   2
 -18  -4  -2 7396.65 1113.82   2
   4  18   1 12823.2 1165.58   3
  -4  22   1 12108.8 1234.10   3
 -22   4   1 12986.9 1411.00   4
  18 -22   1 11617.0 1116.88   1
 -18  -4   1 14887.0 1513.78   4
 -22   4   1 13827.0 1211.92   2
 -18  -4   1 12526.4 1233.56   2
  22 -18   1 12139.3 1235.37   1
  22 -18   4-1481.12 957.598   1
   4  18   4-29.7887 860.844   3
  -4  22   4-706.568 912.182   3
 -22   4   4 2462.72 1118.97   4
  18 -22   4 1577.40 996.658   1
 -18  -4   4 580.692 975.247   4
 -22   4   4-157.477 878.906   2
 -18  -4   4 1029.04 932.823   2
  -4  22   7 6185.25 1178.77   3
  22 -18   7 6731.32 1335.15   1
  18 -22   7 6372.56 1424.35   1
 -22   4   7 7525.30 1392.09   4
 -18  -4   7 5510.03 1276.88   4
 -22   4   7 3243.57 1231.73   2
 -18  -4   7 4911.51 1166.58   2
   4  18   7 6781.14 1309.95   3
 -22   5  -6 4084.09 1056.31   2
 -17  -5  -6 5289.42 1456.59   2
  -5  22  -6 4027.01 1387.22   3
 -22   5  -6 5937.99 979.493   4
 -17  -5  -6 5033.65 1030.76   4
 -17  -5  -3 25721.1 1694.74   2
   5  17  -3 25630.4 1504.55   3
  -5  22  -3 25186.9 1750.91   3
 -22   5  -3 29682.0 1695.37   4
  22 -17  -3 25223.1 1779.99   1
 -17  -5  -3 25379.0 1651.43   4
  17 -22  -3 24001.8 1373.36   1
 -22   5  -3 25232.2 1361.37   2
 -17  -5   0-183.774 815.461   2
  22 -17   0 2096.40 896.278   1
   5  17   0-293.766 724.603   3
  17 -22   0-652.405 742.759   1
  -5  22   0-124.959 836.100   3
 -17  -5   0 2097.13 1002.73   4
 -22   5   0-52.3765 894.555   4
 -22   5   0 669.560 735.180   2
  -5  22   3 16560.9 1388.49   3
  17 -22   3 18360.9 1475.84   1
 -22   5   3 17683.0 1583.30   4
 -17  -5   3 17122.3 1526.11   4
 -22   5   3 16288.8 1412.23   2
  22 -17   3 16259.4 1408.81   1
 -17  -5   3 14963.2 1378.50   2
   5  17   3 17269.4 1324.58   3
  17 -22   6 7460.29 1357.92   1
 -22   5   6 6034.13 1266.90   4
 -17  -5   6 9751.91 1400.25   4
 -22   5   6 4802.25 1220.59   2
 -17  -5   6 6347.40 1181.45   2
  22 -17   6 6938.44 1224.00   1
   5  17   6 7508.38 1208.13   3
  -5  22   6 6904.20 1190.31   3
  17 -22   9 9048.57 1716.37   1
  22 -17   9 9798.63 1608.79   1
 -22   5   9 11624.7 1676.20   4
 -17  -5   9 9337.56 1582.46   4
 -22   5   9 10646.2 1673.05   2
 -17  -5   9 10169.3 1499.83   2
   5  17   9 9869.80 1502.16   3
  -5  22   9 8950.39 1449.23   3
 -22   6  -7 3705.43 841.484   4
 -16  -6  -7 3854.82 982.371   4
 -16  -6  -4 9155.26 1348.24   2
   6  16  -4 8823.54 1167.03   3
  -6  22  -4 10932.8 1480.74   3
 -22   6  -4 14348.4 1261.07   4
 -16  -6  -4 11313.5 1257.19   4
  16 -22  -4 10450.8 1016.99   1
 -22   6  -4 11324.0 1042.56   2
   6  16  -1 35283.8 1471.31   3
  -6  22  -1 33245.0 1775.40   3
 -22   6  -1 37750.2 1902.82   4
  22 -16  -1 38592.4 1920.60   1
 -16  -6  -1 41944.3 2102.59   4
 -22   6  -1 38874.2 1624.42   2
  16 -22  -1 37507.4 1503.75   1
 -16  -6  -1 34562.8 1797.36   2
  -6  22   2 13946.3 1287.60   3
  16 -22   2 15935.6 1312.26   1
 -16  -6   2 12923.1 1398.65   4
 -22   6   2 15522.3 1310.35   2
 -22   6   2 11822.1 1363.77   4
 -16  -6   2 11902.1 1212.42   2
  22 -16   2 13512.8 1269.57   1
   6  16   2 11939.9 1109.32   3
  -6  22   5 8863.39 1203.68   3
  16 -22   5 7786.48 1400.46   1
 -22   6   5 9618.29 1421.96   4
 -16  -6   5 8628.13 1295.51   4
 -22   6   5 7250.95 1298.60   2
 -16  -6   5 7869.30 1225.10   2
   6  16   5 7264.10 1171.34   3
  22 -16   5 5268.15 1133.87   1
  -6  22   8 1199.59 1051.17   3
  16 -22   8 2177.32 1350.82   1
 -22   6   8 36.0983 1238.24   2
 -22   6   8 734.813 1185.26   4
 -16  -6   8 155.597 1058.25   4
  22 -16   8 1362.39 1157.36   1
 -16  -6   8 1667.55 1076.36   2
   6  16   8 259.175 1108.88   3
 -15  -7  -8 1795.46 938.562   4
 -22   7  -5 5456.92 875.330   2
 -15  -7  -5 6717.68 1389.51   2
   7  15  -5 4520.10 1090.05   3
  -7  22  -5 7967.13 1478.14   3
 -22   7  -5 8401.05 1073.37   4
 -15  -7  -5 8232.95 1161.52   4
 -15  -7  -2 10750.2 1286.47   2
  22 -15  -2 9610.94 1268.50   1
   7  15  -2 10856.0 993.953   3
  15 -22  -2 8475.56 869.209   1
  -7  22  -2 10117.1 1274.43   3
 -22   7  -2 12969.8 1265.96   4
 -15  -7  -2 11749.4 1334.50   4
 -22   7  -2 13381.0 1038.32   2
  -7  22   1 18686.4 1395.55   3
  22 -15   1 17664.1 1386.98   1
  15 -22   1 21165.8 1280.21   1
 -22   7   1 23170.6 1676.82   4
 -15  -7   1 20920.8 1647.16   4
 -22   7   1 19344.4 1363.17   2
 -15  -7   1 22114.3 1497.45   2
   7  15   1 19714.5 1200.82   3
  -7  22   4 696.374 845.519   3
  22 -15   4 717.748 957.906   1
  15 -22   4-119.489 966.956   1
 -22   7   4 1613.25 1055.04   4
 -15  -7   4 1206.00 1000.08   4
 -22   7   4 1320.21 955.294   2
 -15  -7   4 132.879 879.700   2
   7  15   4 1596.74 850.445   3
  15 -22   7 10158.4 1602.77   1
  22 -15   7 10550.3 1395.80   1
 -22   7   7 10942.2 1464.47   4
 -22   7   7 9430.52 1470.25   2
 -15  -7   7 12333.0 1506.12   4
 -15  -7   7 11315.9 1348.36   2
   7  15   7 12488.0 1483.88   3
  -7  22   7 10129.3 1299.76   3
 -22   8  -6-342.647 794.150   2
 -22   8  -6 1167.59 786.402   4
 -14  -8  -6 700.624 873.364   4
 -14  -8  -3 26933.1 1802.90   2
   8  14  -3 27123.9 1329.64   3
  -8  22  -3 24767.3 1833.55   3
 -22   8  -3 30020.8 1661.18   4
  14 -22  -3 25212.9 1195.27   1
 -14  -8  -3 30164.0 1798.45   4
 -22   8  -3 25643.9 1220.62   2
  22 -14  -3 26931.2 1868.52   1
  22 -14  -3 21103.8 1063.72   3
   8  14   0 2784.05 698.400   3
 -14  -8   0 285.601 854.609   2
  -8  22   0-17.4806 830.863   3
  22 -14   0 1502.43 928.917   1
 -22   8   0 1372.91 878.725   4
 -14  -8   0 2759.96 998.776   4
 -22   8   0 1276.57 748.571   2
  14 -22   0 1269.49 703.330   1
  -8  22   3 27004.8 1556.99   3
  14 -22   3 23927.3 1640.95   1
 -22   8   3 28025.2 1833.20   4
 -14  -8   3 28180.6 1839.04   4
 -22   8   3 26482.2 1700.70   2
 -14  -8   3 22711.0 1537.39   2
  22 -14   3 20900.7 1493.66   1
   8  14   3 25511.5 1507.02   3
  -8  22   6 5600.56 1071.36   3
  14 -22   6 5877.02 1355.21   1
 -22   8   6 2594.68 1110.49   4
 -14  -8   6 5062.48 1149.52   4
 -22   8   6 2984.13 1189.24   2
 -14  -8   6 3116.08 998.441   2
   8  14   6 4008.48 1190.04   3
  22 -14   6 3832.89 1142.32   1
  22 -14   9 15489.5 1663.59   1
 -22   8   9 17391.3 1829.46   4
 -22   8   9 17394.6 1946.69   2
 -14  -8   9 18687.9 1838.85   4
 -14  -8   9 13973.5 1563.63   2
   8  14   9 20133.7 1892.39   3
  14 -22   9 18241.6 2114.82   1
  -8  22   9 13708.9 1514.57   3
 -22   9  -7 10237.8 1004.98   4
 -13  -9  -7 6311.13 1078.72   4
 -13  -9  -4 16282.3 1639.89   2
   9  13  -4 15190.6 1154.08   3
  -9  22  -4 15674.0 1648.94   3
 -22   9  -4 17344.3 1324.07   4
 -13  -9  -4 17619.6 1499.47   4
 -22   9  -4 14627.9 989.167   2
   9  13  -1 5426.84 779.751   3
 -13  -9  -1 4767.64 1116.15   2
  -9  22  -1 5036.14 1092.14   3
 -22   9  -1 6892.66 1107.24   4
  13 -22  -1 6654.46 769.002   1
 -13  -9  -1 6895.61 1128.98   4
 -22   9  -1 6255.36 873.637   2
  22 -13  -1 7031.77 1173.40   1
   9  13   2 1091.88 747.738   3
 -13  -9   2 501.576 837.613   2
  -9  22   2 1170.53 902.396   3
  13 -22   2-11.6578 849.366   1
 -22   9   2 1214.84 940.098   4
 -13  -9   2-132.960 920.007   4
 -22   9   2 272.838 854.503   2
  22 -13   2 1562.43 917.875   1
 -13  -9   2 870.036 743.569   3
  -9  22   5 14581.2 1333.76   3
 -22   9   5 15776.7 1549.05   4
 -22   9   5 14516.9 1560.18   2
 -13  -9   5 14625.6 1457.21   4
  22 -13   5 11273.4 1287.97   1
 -13  -9   5 13575.3 1387.45   2
   9  13   5 11981.7 1366.21   3
  13 -22   5 17795.7 1686.32   1
  13 -22   8 9357.75 1632.56   1
 -22   9   8 11698.3 1528.09   4
 -22   9   8 11515.8 1627.65   2
 -13  -9   8 12541.0 1572.96   4
 -13  -9   8 12548.5 1451.78   2
   9  13   8 11793.3 1550.97   3
  22 -13   8 8289.54 1322.86   1
  -9  22   8 7868.71 1252.03   3
 -22  10  -5 12245.2 926.627   2
 -12 -10  -5 13281.3 1694.53   2
 -10  22  -5 12915.2 1724.00   3
 -22  10  -5 14401.6 1228.34   4
 -12 -10  -5 13794.5 1362.18   4
  22 -12  -2 24430.2 1051.80   3
 -12 -10  -2 28558.8 1798.68   2
  10  12  -2 26117.5 1179.52   3
 -10  22  -2 23067.2 1680.85   3
  22 -12  -2 26787.4 1805.26   1
 -22  10  -2 27716.5 1649.70   4
 -12 -10  -2 28394.4 1858.52   4
 -22  10  -2 27595.2 1263.78   2
  12 -22  -2 26669.1 1087.64   1
 -10  22   1 19771.1 1426.91   3
  12 -22   1 16799.4 1172.89   1
  22 -12   1 16530.8 1388.44   1
 -10  22   1 17324.1 1367.43   1
 -22  10   1 20818.8 1592.73   4
 -22  10   1 22231.7 1437.53   2
 -12 -10   1 19269.0 1596.34   4
 -12 -10   1 18531.6 1362.04   3
 -12 -10   1 16281.7 1353.61   2
  10  12   1 20853.7 1210.44   3
 -10  22   4 14567.7 1292.52   3
 -22  10   4 18488.5 1597.45   4
 -22  10   4 14522.7 1507.64   2
 -12 -10   4 15878.9 1523.04   4
 -12 -10   4 10937.4 847.040   3
  22 -12   4 13434.8 1297.42   1
 -12 -10   4 15752.5 1336.45   2
  10  12   4 18179.8 1398.85   3
  12 -22   4 17512.1 1628.28   1
 -10  22   7 21754.5 1596.38   3
 -22  10   7 20539.8 1790.64   4
 -22  10   7 23921.7 2010.66   2
  22 -12   7 24221.3 1758.61   1
 -12 -10   7 23047.4 1752.10   4
 -12 -10   7 20997.9 1605.36   2
  10  12   7 22462.3 1833.51   3
  12 -22   7 26009.1 2133.70   1
 -10  22  10 5587.92 1322.10   3
  12 -22  10 10533.9 1961.04   1
 -12 -10  10 6644.78 2070.92   1
 -22  10  10 9818.53 1571.59   4
 -22  10  10 4149.59 1467.73   2
 -12 -10  10 5169.32 1395.74   4
 -12 -10  10 6984.40 1321.48   2
  22 -12  10 5437.68 1346.89   1
  10  12  10 5837.71 1505.66   3
 -22  11  -6 682.642 693.874   4
 -11 -11  -6-232.729 896.829   4
  11  11  -3 32080.4 1250.43   3
 -11 -11  -3 38246.3 2141.92   2
 -11  22  -3 35166.2 2126.49   3
  22 -11  -3 33925.4 2052.20   1
 -22  11  -3 37814.4 1797.25   4
  11 -22  -3 29516.7 987.165   1
 -11 -11  -3 43124.3 2098.38   4
 -22  11  -3 36073.0 1288.75   2
  22 -11  -3 30238.2 1007.74   3
 -11 -11   0 9805.74 1206.84   2
 -11  22   0 9495.97 1199.09   3
  11 -22   0 11954.1 960.315   1
 -22  11   0 10735.0 1285.98   4
 -22  11   0 10119.6 1043.89   2
 -11 -11   0 11984.1 1398.81   4
  22 -11   0 9350.00 1222.17   1
  11  11   0 9487.37 852.107   3
  22 -11   3 36285.0 1786.33   1
 -11  22   3 36101.6 1719.29   3
  22 -11   3 35417.6 1729.28   2
 -11  22   3 28849.7 1265.22   1
 -22  11   3 39569.2 2101.79   4
 -22  11   3 39339.5 2025.98   2
 -11 -11   3 42051.0 2125.71   4
 -11 -11   3 32398.2 1390.34   3
  11  11   3 40990.8 1779.91   3
 -11 -11   3 37393.4 1864.86   2
  11 -22   3 41204.3 2013.93   1
 -11  22   6 1686.79 944.160   3
  11 -22   6 172.693 1249.40   1
  22 -11   6-637.622 939.982   1
 -22  11   6 1003.47 1077.75   4
 -22  11   6 3030.15 1337.11   2
 -11 -11   6 448.441 1013.04   4
  11  11   6 1148.32 1094.51   3
 -11 -11   6-54.4607 881.132   2
 -11  22   9 4904.98 1223.96   3
  11 -22   9 10124.5 1889.73   1
 -11 -11   9 9867.39 2238.36   1
 -22  11   9 8702.98 1542.25   4
 -22  11   9 6909.65 1476.48   2
 -11 -11   9 10859.5 1510.45   4
  11  11   9 7751.78 1555.42   3
 -11 -11   9 6444.16 1270.67   2
  22 -11   9 4623.81 1245.66   1
 -22  12  -7 21046.9 1275.17   4
  12  10  -4 13344.1 898.639   3
 -10 -12  -4 12866.4 935.681   1
 -10 -12  -4 14767.2 1738.08   2
 -12  22  -4 13780.6 1709.42   3
 -22  12  -4 17996.4 1328.24   4
 -10 -12  -4 18559.0 1557.35   4
 -12  22  -4 11545.5 845.492   2
  22 -10  -4 9538.80 547.735   3
 -22  12  -4 13144.5 817.632   2
  12  10  -1 16614.1 933.052   3
 -10 -12  -1 15550.6 1487.16   2
  22 -10  -1 15833.5 937.656   3
 -12  22  -1 14501.0 1386.75   3
  22 -10  -1 14575.0 1465.64   1
  10 -22  -1 16392.9 928.559   1
 -22  12  -1 14609.7 1346.93   4
 -22  12  -1 16814.1 1135.84   2
 -10 -12  -1 16903.3 1526.76   4
 -12  22   2 27378.3 1580.13   1
 -12  22   2 30638.2 1648.90   3
  22 -10   2 28231.2 1674.17   1
 -22  12   2 31358.5 1865.12   4
 -22  12   2 32851.6 1771.06   2
 -10 -12   2 37590.8 2034.38   4
  12  10   2 30918.1 1505.47   3
  10 -22   2 30649.3 1680.10   1
 -10 -12   2 33193.7 1767.53   2
 -12  22   5 9543.89 1190.20   3
 -22  12   5 10589.2 1330.77   4
 -22  12   5 11945.5 1491.24   2
 -10 -12   5 10412.5 1356.15   4
  10 -22   5 12209.0 1669.02   1
  22 -10   5 11019.1 1264.31   1
  12  10   5 10964.3 1300.01   3
 -10 -12   5 8459.84 1143.89   2
 -12  22   8 7914.31 1280.42   3
  10 -22   8 7383.78 1827.61   1
  22 -10   8 6968.33 1265.11   1
 -22  12   8 9168.31 1462.21   4
 -22  12   8 8425.71 1635.70   2
 -10 -12   8 6703.83 1335.40   4
  12  10   8 7392.38 1494.48   3
 -10 -12   8 7036.32 1162.97   2
 -22  13  -5 14864.8 1196.46   4
  -9 -13  -5 14297.0 1420.01   4
  22  -9  -2-90.2484 1079.41   1
   9 -22  -2 563.301 450.517   1
  22  -9  -2 971.294 479.895   3
  13   9  -2 1593.39 542.085   3
  -9 -13  -2 1751.18 1082.66   2
 -13  22  -2-126.621 1133.25   3
 -22  13  -2 1087.18 861.462   4
  -9 -13  -2 693.451 574.563   1
  -9 -13  -2 2192.07 1021.95   4
 -22  13  -2 1226.76 588.920   2
 -13  22   1 6656.00 1100.61   3
  -9 -13   1 5109.40 1121.57   2
 -22  13   1 5732.64 1000.69   2
  22  -9   1 5506.06 1105.72   1
 -22  13   1 6397.71 1119.53   4
  -9 -13   1 5893.78 1210.41   4
  13   9   1 7283.36 865.074   3
   9 -22   1 6653.25 978.285   1
  22  -9   4 15102.5 1369.25   1
 -13  22   4 15095.3 1314.30   3
 -22  13   4 11278.2 992.136   3
 -22  13   4 18048.7 1612.95   4
 -22  13   4 15117.3 1533.39   2
  -9 -13   4 17881.1 1587.67   4
   9 -22   4 17001.8 1715.41   1
  13   9   4 17788.1 1472.10   3
  -9 -13   4 15000.5 1312.42   2
   9 -22   7 7156.15 1626.30   1
 -13  22   7 5215.87 1106.55   3
  22  -9   7 6875.46 1186.62   1
 -22  13   7 6868.99 1296.26   4
  -9 -13   7 8038.91 1342.96   4
 -22  13   7 6341.27 1385.95   2
  13   9   7 4355.95 911.909   1
  13   9   7 7229.53 1388.65   3
  -9 -13   7 5685.94 1104.00   2
   9 -22  10 2161.68 1757.93   1
 -13  22  10 879.385 1127.38   3
  22  -9  10 4734.72 1311.68   1
 -22  13  10 2584.12 1455.18   2
 -13  22  10 3210.36 1173.54   4
 -22  13  10 3784.98 1359.17   4
  -9 -13  10 7748.03 2381.63   1
  13   9  10 4411.85 1505.78   3
  -9 -13  10 3720.43 1135.01   2
 -22  14  -6 5286.27 912.847   4
  14   8  -3 17724.8 818.660   3
  -8 -14  -3 21148.4 1868.70   2
 -14  22  -3 20641.4 1881.38   3
 -22  14  -3 20921.3 1497.35   4
  -8 -14  -3 15988.8 874.178   1
 -22  14  -3 18668.8 932.362   2
  22  -8  -3 15544.6 581.577   3
 -14  22  -3 17696.7 1036.88   2
  14   8   0 2613.03 619.965   3
  -8 -14   0 1674.62 996.095   2
 -14  22   0 880.106 993.544   3
  22  -8   0 1183.47 693.922   3
   8 -22   0-256.948 653.191   1
 -22  14   0 1447.87 951.652   4
  22  -8   0 358.427 952.013   1
 -22  14   0 1091.75 750.344   2
  -8 -14   0 527.743 977.692   4
 -14  22   3 22154.8 1510.26   3
  22  -8   3 21577.1 1522.44   1
 -22  14   3 19471.6 1289.56   3
 -22  14   3 22857.1 1712.77   4
 -22  14   3 25959.0 1780.84   2
 -14  22   3 19851.3 1375.33   1
  -8 -14   3 28435.0 1866.92   4
   8 -22   3 24329.6 1785.57   1
  14   8   3 25041.1 1562.32   3
  -8 -14   3 21906.3 1597.50   2
  -8 -14   6 1718.43 940.091   2
 -14  22   6 490.335 922.093   3
 -22  14   6 189.136 691.502   3
 -22  14   6 420.886 993.628   4
  22  -8   6 125.819 918.123   1
 -22  14   6 1312.12 1245.46   2
  -8 -14   6 2563.21 1120.47   4
  14   8   6 35.9701 1093.66   3
  14   8   6 129.313 858.844   1
   8 -22   6 1940.83 1351.89   1
 -14  22   9 12171.4 1408.29   3
 -14  22   9 14294.8 1672.32   4
  -8 -14   9 13645.3 2594.52   1
 -22  14   9 16223.2 1780.94   4
 -22  14   9 13508.5 1874.68   2
  -8 -14   9 13274.2 1585.22   4
  22  -8   9 11854.4 1485.88   1
   8 -22   9 16400.1 2339.58   1
  14   8   9 15176.6 1861.20   3
  -8 -14   9 11842.0 1383.26   2
 -22  15  -7 12408.5 1067.40   4
 -15  22  -4 2538.95 1380.87   3
  -7 -15  -4 1133.72 467.444   1
 -22  15  -4 1959.15 822.558   4
  -7 -15  -4 1628.84 1019.38   4
 -22  15  -4 1599.46 446.535   2
 -15  22  -4 1842.50 543.547   2
   7 -22  -1 23309.8 1004.73   1
  -7 -15  -1 19491.0 1688.02   2
  22  -7  -1 19718.3 987.175   3
 -15  22  -1 22714.3 1726.12   3
 -22  15  -1 19669.0 1551.24   4
 -22  15  -1 19267.5 1206.06   2
  22  -7  -1 19861.1 1676.25   1
  -7 -15  -1 18177.8 1590.62   4
  15   7  -1 20064.9 911.553   3
  -7 -15   2 11021.2 1331.78   2
 -15  22   2 12004.9 1256.97   3
 -22  15   2 10909.3 1182.33   3
 -22  15   2 11714.1 1401.41   4
 -22  15   2 12461.0 1330.30   2
  22  -7   2 12959.3 1334.06   1
  -7 -15   2 14948.9 1508.49   4
   7 -22   2 14745.7 1418.75   1
  15   7   2 14478.2 1211.85   3
 -15  22   5 9227.51 1206.79   3
 -22  15   5 7224.61 953.009   3
 -22  15   5 9608.67 1375.06   4
  15   7   5 7858.45 1149.30   1
 -22  15   5 6707.99 1411.98   2
  22  -7   5 6071.28 1143.11   1
  -7 -15   5 10757.1 1412.67   4
   7 -22   5 8800.08 1673.78   1
  15   7   5 9753.86 1339.51   3
  -7 -15   5 8379.18 1178.64   2
  -7 -15   8 2516.20 1029.75   2
 -15  22   8 1624.99 1021.50   3
  15   7   8 657.075 931.250   1
  22  -7   8 1529.34 1010.78   1
 -15  22   8 2562.34 1272.14   4
 -22  15   8 2278.60 1200.65   4
  -7 -15   8 507.599 1810.05   1
 -22  15   8 2947.86 1388.14   2
  -7 -15   8 2324.99 1173.92   4
  15   7   8 1077.37 1162.16   3
   7 -22   8 4643.06 1757.56   1
 -22  16  -5 6180.32 1033.85   4
  16   6  -2 15587.0 722.618   3
  22  -6  -2 16164.8 678.784   3
  -6 -16  -2 12353.4 811.514   1
  -6 -16  -2 13284.1 1644.06   2
 -16  22  -2 11461.4 1526.37   3
   6 -22  -2 14462.5 654.378   1
 -22  16  -2 17495.2 1453.55   4
  22  -6  -2 13916.5 1620.21   1
 -22  16  -2 16807.6 1051.69   2
  -6 -16  -2 16572.0 1594.02   4
  -6 -16   1 35685.3 1972.87   2
 -16  22   1 35337.2 1898.41   3
 -22  16   1 35796.7 1860.42   3
 -22  16   1 37324.5 2043.55   4
 -22  16   1 35474.5 1786.51   2
  -6 -16   1 38364.0 2129.24   4
   6 -22   1 40070.2 1814.05   1
  16   6   1 38129.9 1514.80   3
  22  -6   1 34993.5 1937.36   1
  22  -6   4 6440.01 1071.84   1
 -16  22   4 8559.77 1207.24   3
 -22  16   4 8375.59 1057.18   3
 -22  16   4 9061.65 1422.22   4
  16   6   4 8392.02 1210.22   1
 -22  16   4 7717.75 1354.27   2
   6 -22   4 9455.91 1576.40   1
  -6 -16   4 8613.16 1297.10   4
  16   6   4 9855.93 1266.45   3
  -6 -16   4 7625.96 1181.72   2
  -6 -16   7 2907.45 1031.33   2
 -16  22   7 2173.45 1004.08   3
 -22  16   7 2606.97 826.349   3
  16   6   7 2125.52 979.888   1
   6 -22   7 1697.33 957.679   2
 -16  22   7 2562.45 1318.69   4
 -22  16   7 2278.27 1094.79   4
  22  -6   7 3411.90 1136.03   1
  -6 -16   7 4923.11 1990.88   1
 -22  16   7 3647.99 1347.92   2
  -6 -16   7 2710.23 1139.45   4
  16   6   7 4143.43 1286.99   3
   6 -22   7 3652.14 1555.11   1
 -22  17  -6 5839.78 977.570   4
 -17  22  -3 17654.8 1022.72   2
  -5 -17  -3 18786.9 1942.66   2
 -17  22  -3 19883.1 1980.27   3
 -22  17  -3 20673.8 1522.36   4
 -22  17  -3 20702.6 976.761   2
  -5 -17  -3 21446.3 1775.05   4
   5 -22   0 981.363 778.975   1
  22  -5   0-335.641 1023.71   1
  -5 -17   0 1472.39 1191.42   2
 -17  22   0 1181.57 1010.37   3
  22  -5   0 308.454 739.988   3
 -22  17   0 2291.48 1007.01   4
 -22  17   0 926.150 816.357   2
  -5 -17   0 593.722 1051.96   4
  17   5   0 773.691 597.771   3
  17   5   3 23650.8 1691.92   1
  -5 -17   3 26174.1 1711.77   2
 -17  22   3 28964.2 1677.05   3
 -22  17   3 27579.6 1598.47   3
 -22  17   3 30133.1 1923.16   4
 -22  17   3 28886.7 1983.20   2
  22  -5   3 25466.9 1729.81   1
   5 -22   3 30063.5 2056.00   1
  -5 -17   3 32351.7 1986.78   4
  17   5   3 32613.2 1768.70   3
  -5 -17   6 4854.64 1112.82   2
 -17  22   6 5220.09 1103.71   3
  17   5   6 2774.61 1013.10   1
 -22  17   6 3452.38 949.605   3
   5 -22   6 4303.12 1164.77   2
 -17  22   6 5099.37 1416.70   4
 -22  17   6 6768.83 1304.62   4
  -5 -17   6 4295.77 1893.94   1
 -22  17   6 2333.75 1469.76   2
  -5 -17   6 6753.45 1309.00   4
  22  -5   6 2852.41 1111.28   1
   5 -22   6 5850.00 1668.11   1
  17   5   6 6589.07 1344.09   3
 -17  22   9 19912.4 1650.33   3
 -17  22   9 23117.5 2675.23   2
 -17  22   9 23277.8 1990.09   4
 -22  17   9 24007.7 2009.40   4
  -5 -17   9 26729.8 3052.06   1
 -22  17   9 24262.1 2317.05   2
   5 -22   9 29715.3 2849.40   1
  -5 -17   9 26994.3 2049.91   4
  22  -5   9 25934.5 2743.15   3
  17   5   9 26770.8 2247.98   3
  22  -5   9 15558.3 1677.18   1
  -5 -17   9 17487.7 1561.49   2
 -18  22  -7 8410.23 1116.18   4
 -22  18  -7 7542.45 979.604   4
 -18  22  -4 286.150 492.094   2
 -22  18  -4 1041.59 364.812   2
  -4 -18  -1 13170.1 974.640   1
  22  -4  -1 16478.3 958.612   3
  -4 -18  -1 15371.5 1710.87   2
 -18  22  -1 16064.8 1745.80   3
  22  -4  -1 12933.3 1590.57   1
 -22  18  -1 17459.2 1539.19   4
 -22  18  -1 16380.0 1218.17   2
  -4 -18  -1 18474.6 1683.16   4
  22  -4  -1 18965.8 1073.73   3
   4 -22  -1 16112.9 967.588   1
  18   4  -1 17528.9 809.959   3
  -4 -18   2 7865.79 1302.88   2
 -18  22   2 7258.56 1220.56   3
  18   4   2 7724.60 1356.08   1
 -22  18   2 6970.77 1306.57   2
 -22  18   2 6151.50 1141.20   3
  -4 -18   2 9439.35 1543.53   1
 -22  18   2 7757.19 1312.52   4
  22  -4   2 5790.26 1168.63   1
   4 -22   2 8576.78 1381.52   1
  -4 -18   2 8592.81 1317.99   4
  18   4   2 8130.27 1077.05   3
  -4 -18   5 15479.5 1475.02   2
  18   4   5 15878.8 1494.09   1
 -18  22   5 13733.4 1326.11   3
 -22  18   5 15529.3 1299.11   3
   4 -22   5 16858.9 1559.33   2
  22  -4   5 16008.3 1491.44   1
 -18  22   5 22271.2 1987.77   4
  -4 -18   5 20265.5 2330.77   1
 -22  18   5 19959.9 1756.18   4
 -22  18   5 17588.0 1887.20   2
   4 -22   5 24253.6 2220.49   1
  -4 -18   5 17568.3 1637.14   4
  18   4   5 16621.1 1646.83   3
  -4 -18   8 2744.21 1057.52   2
 -18  22   8 3329.49 1099.82   3
 -18  22   8 1940.16 1194.08   4
 -18  22   8 3417.65 1792.00   2
 -22  18   8 3125.80 1251.74   4
 -22  18   8 3468.09 1582.98   2
  18   4   8 2712.10 1100.14   1
  -4 -18   8 5726.80 2230.15   1
  22  -4   8 1275.44 1151.92   1
  -4 -18   8 3166.42 1208.69   4
  22  -4   8 5421.12 1709.22   3
   4 -22   8-267.300 1782.99   1
  18   4   8 3039.26 1307.10   3
 -19  22  -5 5106.71 1121.57   4
 -22  19  -5 4274.25 985.782   4
  19   3  -2 7420.04 459.939   3
   3 -22  -2 8332.72 558.300   1
  22  -3  -2 7540.19 444.954   3
 -19  22  -2 10138.3 1616.27   3
  -3 -19  -2 6719.37 1506.24   2
  -3 -19  -2 6607.82 645.475   1
 -19  22  -2 8989.24 1062.83   2
 -22  19  -2 8994.41 1253.40   4
  -3 -19  -2 9575.46 1001.02   1
 -22  19  -2 10267.6 968.470   2
  -3 -19  -2 9753.62 1445.69   4
  22  -3  -2 6717.94 416.582   3
 -19  22   1 4760.29 1235.95   3
  -3 -19   1 4329.20 1240.22   2
 -22  19   1 5611.88 1238.29   3
 -19  22   1 5757.58 1351.13   2
 -22  19   1 5254.92 1178.90   4
  22  -3   1 7491.62 1396.74   1
  -3 -19   1 5581.33 1301.62   1
 -22  19   1 5505.15 1121.85   2
   3 -22   1 6318.60 1217.21   1
  -3 -19   1 7856.15 1293.53   4
  22  -3   1 6185.96 1059.01   3
  19   3   1 5749.38 922.193   3
   3 -22   4 9067.53 1373.26   2
 -19  22   4 6740.63 1142.39   3
  -3 -19   4 6875.24 1219.30   2
  19   3   4 7213.94 1287.39   1
 -22  19   4 5307.50 1041.37   3
 -19  22   4 10162.8 1536.82   4
 -22  19   4 6884.60 1331.17   4
 -19  22   4 6844.46 1602.09   2
 -22  19   4 6502.81 1426.97   2
  22  -3   4 6557.39 1212.10   1
  -3 -19   4 7420.76 1686.22   1
   3 -22   4 10829.0 1710.97   1
  -3 -19   4 8252.53 1368.18   4
  22  -3   4 10543.6 1425.20   3
  19   3   4 10638.0 1360.85   3
  -3 -19   7 1934.32 1037.83   2
 -19  22   7 2800.64 1078.70   3
 -22  19   7 3347.95 993.652   3
   3 -22   7 2731.61 1146.19   2
 -19  22   7 2141.60 1238.27   4
 -22  19   7 3214.54 1184.48   4
 -22  19   7 1519.70 1396.88   2
  -3 -19   7 1091.58 1845.78   1
  19   3   7 3356.77 1187.00   1
 -19  22   7 1436.86 1565.68   2
  -3 -19   7 1772.38 1177.35   4
   3 -22   7 2994.00 1776.92   1
  22  -3   7 3271.10 1528.34   3
  19   3   7 2960.83 1276.48   3
  22  -3   7 1233.91 1096.17   1
 -20  22  -6 18628.7 1492.83   4
 -22  20  -6 19744.0 1456.11   4
 -22  20  -3 38155.2 2014.18   4
 -20  22  -3 40040.7 1484.02   2
 -22  20  -3 40412.0 1346.16   2
 -22  20   0 9182.77 1444.68   3
 -20  22   0 6851.32 1381.99   3
  -2 -20   0 8871.05 1514.21   2
 -20  22   0 9696.98 1351.64   2
 -22  20   0 6936.32 1290.11   4
  -2 -20   0 9948.58 1354.01   1
 -22  20   0 9418.54 1205.93   2
   2 -22   0 8631.41 1168.76   1
  -2 -20   0 10558.0 1555.79   4
  22  -2   0 8236.95 1401.28   1
  22  -2   0 10206.6 1014.29   3
  20   2   0 10374.6 919.428   3
  -2 -20   3 30973.1 1983.17   2
 -20  22   3 29707.0 1829.25   3
 -22  20   3 28714.3 1788.52   3
   2 -22   3 29258.4 2003.05   2
 -20  22   3 32279.9 2237.91   2
 -20  22   3 36438.1 2265.83   4
 -22  20   3 31126.5 2013.51   4
 -22  20   3 35213.4 2250.79   2
  -2 -20   3 32468.8 2335.43   1
  20   2   3 27378.9 1890.86   1
   2 -22   3 34945.7 2280.22   1
  -2 -20   3 32773.7 2098.76   4
  22  -2   3 32797.0 1977.76   3
  20   2   3 33786.8 1884.35   3
  22  -2   3 29401.2 1925.91   1
  -2 -20   6 8924.08 1344.28   2
 -20  22   6 8470.32 1201.12   3
   2 -22   6 8278.00 1306.01   2
 -22  20   6 8183.75 1157.75   3
  22  -2   6 8027.46 1326.24   1
 -20  22   6 11034.6 1647.60   4
 -20  22   6 12326.7 1939.54   2
 -22  20   6 11339.4 1566.64   4
 -22  20   6 13043.4 1894.10   2
  -2 -20   6 12108.4 2242.07   1
   2 -22   6 12886.1 2068.07   1
  20   2   6 8431.91 1347.14   1
  -2 -20   6 10709.2 1535.53   4
  22  -2   6 11955.9 1707.58   3
  20   2   6 10867.5 1569.11   3
 -20  22   9 12468.0 1415.03   3
  22  -2   9 13125.2 1621.60   1
  20   2   9 12238.9 1646.34   1
 -20  22   9 19636.7 2046.86   4
 -20  22   9 20095.0 2581.43   2
 -22  20   9 20110.1 2001.97   4
 -22  20   9 18973.3 2416.39   2
  -2 -20   9 22817.0 2912.26   1
   2 -22   9 20702.9 2713.99   1
  22  -2   9 23766.1 2554.76   3
  20   2   9 20717.8 2255.40   3
 -21  22  -7 13983.8 1308.95   4
 -22  21  -7 14060.5 1290.03   4
 -22  21  -4 7054.46 1201.39   4
 -21  22  -4 5535.52 1163.64   4
 -21  22  -4 5529.41 524.799   2
 -22  21  -4 5427.68 488.049   2
  -1 -21  -1 15863.9 1885.21   2
 -21  22  -1 15899.3 1766.61   3
 -22  21  -1 14358.4 1729.00   3
 -21  22  -1 18581.2 1415.42   2
 -21  22  -1 17340.5 1627.64   4
 -22  21  -1 19300.1 1653.87   4
 -22  21  -1 19623.4 1404.97   2
  -1 -21  -1 19097.7 1339.57   1
   1 -22  -1 15848.0 1141.93   1
  22  -1  -1 18236.6 900.485   3
  21   1  -1 19328.3 852.348   3
  22  -1   2 3305.07 1269.68   1
 -22  21   2 4006.68 1223.53   4
 -21  22   2 3185.75 1122.67   3
  -1 -21   2 2693.55 1264.95   2
 -22  21   2 3135.54 1159.81   3
   1 -22   2 2310.82 1303.51   2
 -21  22   2 4029.55 1224.99   4
 -21  22   2 3449.34 1278.81   2
 -22  21   2 4769.59 1311.42   2
  -1 -21   2 4392.74 1371.83   1
  21   1   2 4491.13 1322.46   1
   1 -22   2 3652.88 1294.31   1
  -1 -21   2 2616.39 1232.59   4
  22  -1   2 3827.01 1049.43   3
  21   1   2 3294.74 976.314   3
  -1 -21   5 9810.65 1406.33   2
   1 -22   5 8012.98 1400.57   2
 -21  22   5 9195.75 1233.98   3
 -22  21   5 6780.46 1180.96   3
 -21  22   5 11311.5 1579.56   4
 -22  21   5 10041.3 1519.10   4
 -21  22   5 9630.65 1866.50   2
 -22  21   5 9808.67 1651.44   2
  -1 -21   5 8956.28 1844.07   1
  22  -1   5 7027.84 1397.77   1
   1 -22   5 12443.1 1992.80   1
  -1 -21   5 9908.31 1506.36   4
  22  -1   5 10261.5 1531.93   3
  21   1   5 8493.59 1385.40   3
  21   1   5 7225.95 1341.32   1
  22  -1   8 3876.75 1287.65   1
 -21  22   8 2340.14 1095.85   3
 -22  21   8 487.407 942.260   3
  -1 -21   8 773.462 1022.20   2
 -21  22   8 3074.70 1715.76   2
  21   1   8 819.396 1204.70   1
 -21  22   8 4810.41 1408.35   4
 -22  21   8 2662.22 1319.06   4
 -22  21   8 2509.69 1631.23   2
  -1 -21   8 3181.23 1912.28   1
   1 -22   8 5798.28 2045.22   1
  22  -1   8 2004.86 1494.37   3
  21   1   8 2517.14 1470.92   3
 -22  22  -5 402.635 925.737   4
 -22  22  -2 8270.24 1298.74   4
 -22  22  -2 8728.68 1002.38   2
   0 -22  -2 5955.45 658.589   1
  22   0  -2 5969.70 349.770   3
 -22  22   1 371.844 1175.62   3
   0 -22   1 437.683 1309.34   2
 -22  22   1-913.910 1103.41   4
 -22  22   1-1259.80 1056.81   2
  22   0   1-1320.70 1233.03   1
   0 -22   1-1542.62 1134.31   1
  22   0   1 602.970 812.940   3
 -22  22   4 1293.96 1061.39   3
   0 -22   4-294.095 1127.10   2
 -22  22   4-985.418 1301.92   2
  22   0   4-492.256 1112.40   1
 -22  22   4 327.649 1108.57   4
   0 -22   4 229.843 1381.14   1
  22   0   4 188.346 1014.39   3
 -22  22   7 399.098 1030.66   3
   0 -22   7 790.414 1111.28   2
 -22  22   7 190.952 1178.03   4
  22   0   7-927.172 1200.93   1
   0 -22   7 763.491 1835.44   1
  22   0   7 1271.42 1381.87   3
 -22  22   7-1447.52 1464.46   2
 -23   0  -5-80.1844 1031.96   2
   0  23  -5 413.478 1294.23   3
 -23   0  -5 749.360 895.310   4
   0  23  -2 17688.4 1529.43   3
 -23   0  -2 18678.0 1616.85   4
  23 -23  -2 16774.8 1499.51   1
 -23   0  -2 16878.6 1399.41   2
   0  23   1 738.873 940.950   3
  23 -23   1-485.768 881.317   1
 -23   0   1-704.487 994.952   4
 -23   0   1 469.451 869.381   2
   0  23   4 5724.71 1180.90   3
  23 -23   4 8778.06 1308.13   1
 -23   0   4 8242.09 1387.35   4
 -23   0   4 8368.53 1303.08   2
   0  23   7-287.190 1114.24   3
 -23   0   7 383.131 1137.89   4
  23 -23   7-1392.75 1169.75   1
 -23   0   7 1002.83 1159.46   2
 -23   1  -6 10001.5 1522.41   2
 -22  -1  -6 8780.41 1499.11   2
   1  22  -6 7585.26 1623.60   3
  -1  23  -6 7459.06 1657.85   3
 -23   1  -6 11159.9 1319.04   4
 -22  -1  -6 10157.2 1315.62   4
  22 -23  -3 22174.2 1698.41   1
   1  22  -3 20896.8 1686.54   3
  -1  23  -3 18912.7 1641.28   3
  23 -22  -3 18167.6 1589.53   1
 -23   1  -3 24744.0 1727.41   4
 -22  -1  -3 25583.9 1775.33   4
 -23   1  -3 17865.2 1398.41   2
 -22  -1  -3 20086.8 1545.41   2
  22 -23   0 10949.3 1167.56   1
   1  22   0 11744.2 1264.64   3
  -1  23   0 12803.3 1314.76   3
  23 -22   0 12251.8 1285.34   1
 -23   1   0 13691.3 1509.64   4
 -22  -1   0 13328.2 1511.90   4
 -23   1   0 11962.8 1256.24   2
 -22  -1   0 10680.5 1222.78   2
   1  22   3 24986.4 1638.63   3
  -1  23   3 27498.8 1717.84   3
 -23   1   3 30250.5 2057.39   4
 -22  -1   3 28374.9 2023.54   4
  22 -23   3 24303.5 1681.91   1
  23 -22   3 27575.9 1759.19   1
 -23   1   3 25229.4 1770.40   2
 -22  -1   3 26113.1 1738.11   2
   1  22   6 3121.97 1127.84   3
 -22  -1   6 6120.92 1382.51   4
 -23   1   6 6714.75 1368.56   4
 -23   1   6 6811.81 1385.89   2
  22 -23   6 5513.28 1329.69   1
  23 -22   6 2701.02 1202.49   1
 -22  -1   6 5101.04 1278.98   2
  -1  23   6 6450.82 1283.31   3
 -23   2  -7 4703.00 1014.43   4
 -21  -2  -7 2948.24 1000.67   4
 -23   2  -4 1789.13 929.416   2
 -21  -2  -4 1826.77 1016.42   2
   2  21  -4 1099.69 1092.46   3
  -2  23  -4 577.128 1161.18   3
  23 -21  -4 1286.21 1137.23   1
 -23   2  -4 3410.06 994.753   4
 -21  -2  -4 2299.15 1042.24   4
  21 -23  -4-392.097 943.812   1
 -21  -2  -1 2123.91 936.032   2
   2  21  -1 3949.17 974.473   3
  -2  23  -1 2894.83 1043.83   3
  23 -21  -1 4912.30 1095.62   1
 -23   2  -1 3385.55 1031.29   4
 -21  -2  -1 2702.94 1075.63   4
  21 -23  -1 3002.65 915.059   1
 -23   2  -1 3763.87 946.748   2
   2  21   2 8062.52 1139.56   3
  -2  23   2 9219.76 1198.80   3
 -23   2   2 8931.99 1334.01   4
 -21  -2   2 8717.40 1322.30   4
  21 -23   2 9168.76 1151.86   1
 -23   2   2 9054.25 1226.79   2
  23 -21   2 9358.88 1204.01   1
 -21  -2   2 7428.92 1188.86   2
  -2  23   5 7979.66 1232.87   3
  21 -23   5 9761.02 1373.68   1
  23 -21   5 10431.1 1392.81   1
 -23   2   5 11259.7 1546.42   4
 -21  -2   5 10311.9 1452.27   4
 -23   2   5 9711.88 1414.13   2
 -21  -2   5 8312.18 1335.90   2
   2  21   5 7120.93 1196.04   3
   2  21   8 2507.76 1225.57   3
  -2  23   8 1335.69 1157.36   3
 -21  -2   8 4040.96 1339.42   4
  21 -23   8 4154.97 1411.61   1
 -23   2   8 5790.21 1401.01   4
  23 -21   8 2771.44 1266.18   1
 -23   2   8 5842.28 1449.44   2
 -21  -2   8 3505.79 1227.80   2
 -23   3  -5 878.511 1000.34   2
 -20  -3  -5 2422.57 1121.77   2
   3  20  -5 4410.46 1316.21   3
  -3  23  -5 2853.60 1319.69   3
 -23   3  -5 1228.04 860.551   4
 -20  -3  -5 3574.24 1026.72   4
   3  20  -2 18997.5 1390.44   3
  -3  23  -2 19779.9 1541.40   3
  20 -23  -2 22470.6 1461.30   1
 -23   3  -2 23847.4 1686.84   4
 -20  -3  -2 23168.1 1715.28   4
  23 -20  -2 22383.3 1677.76   1
 -23   3  -2 21280.4 1397.50   2
 -20  -3  -2 22035.4 1567.79   2
   3  20   1 7678.89 1058.14   3
  -3  23   1 9428.09 1215.57   3
 -23   3   1 9242.63 1395.17   4
 -20  -3   1 10134.8 1351.16   4
  20 -23   1 9312.71 1117.52   1
 -23   3   1 9380.74 1150.34   2
 -20  -3   1 8726.47 1174.47   2
  23 -20   1 7921.17 1146.34   1
  -3  23   4 8307.27 1246.04   3
  20 -23   4 9214.36 1314.22   1
 -23   3   4 13454.1 1585.27   4
 -20  -3   4 10603.2 1414.39   4
  23 -20   4 7605.32 1206.70   1
 -23   3   4 8654.93 1255.11   2
 -20  -3   4 9263.13 1280.07   2
   3  20   4 9544.49 1260.30   3
   3  20   7 4334.73 1262.71   3
  -3  23   7 5365.53 1209.57   3
  20 -23   7 3405.60 1285.14   1
 -23   3   7 6627.83 1413.87   4
 -20  -3   7 4489.44 1216.47   4
 -23   3   7 6012.29 1385.11   2
  23 -20   7 4214.64 1255.07   1
 -20  -3   7 5181.93 1289.16   2
 -23   4  -6 21857.5 1620.09   2
 -19  -4  -6 20361.1 1944.59   2
   4  19  -6 21769.0 1849.56   3
  -4  23  -6 19843.7 2069.57   3
 -23   4  -6 25093.3 1583.02   4
 -19  -4  -6 24203.4 1735.18   4
 -19  -4  -3 26792.0 1771.00   2
   4  19  -3 30499.5 1710.90   3
  -4  23  -3 29824.3 1887.03   3
  23 -19  -3 27814.2 1857.71   1
 -23   4  -3 28240.1 1735.40   4
 -19  -4  -3 31246.2 1864.51   4
  19 -23  -3 26071.3 1547.54   1
 -23   4  -3 25816.7 1463.42   2
   4  19   0 23998.3 1399.62   3
  -4  23   0 26196.7 1621.42   3
  23 -19   0 23442.9 1575.99   1
 -23   4   0 28601.6 1868.61   4
 -19  -4   0 27262.7 1852.13   4
 -23   4   0 25531.1 1525.40   2
  19 -23   0 25056.4 1427.66   1
 -19  -4   0 22459.1 1568.92   2
  -4  23   3 30024.4 1755.36   3
  19 -23   3 31383.3 1764.62   1
 -23   4   3 28987.9 1952.12   4
 -23   4   3 30662.4 1811.12   2
  23 -19   3 29069.7 1721.20   1
 -19  -4   3 26188.8 1673.98   2
 -19  -4   3 31757.3 2034.52   4
   4  19   3 33407.0 1718.19   3
  19 -23   6 6481.46 1313.13   1
 -23   4   6 7065.77 1382.53   4
 -19  -4   6 6241.89 1276.33   4
 -23   4   6 8029.93 1426.19   2
 -19  -4   6 7594.87 1308.73   2
  23 -19   6 5483.34 1249.25   1
   4  19   6 7637.78 1271.49   3
  -4  23   6 5985.19 1229.11   3
  19 -23   9 13824.5 1871.90   1
 -23   4   9 19271.5 2045.63   4
 -19  -4   9 15258.1 1859.44   4
 -23   4   9 17337.3 1953.07   2
 -19  -4   9 12546.6 1641.02   2
  23 -19   9 9393.55 1574.73   1
   4  19   9 16052.9 1776.37   3
  -4  23   9 10009.2 1512.08   3
 -23   5  -7 12545.8 1190.28   4
 -18  -5  -7 10614.3 1285.63   4
 -18  -5  -4 7198.05 1311.74   2
   5  18  -4 7810.45 1205.18   3
  -5  23  -4 7287.74 1468.17   3
  23 -18  -4 7421.39 1374.36   1
 -23   5  -4 9240.93 1151.24   4
  18 -23  -4 6058.64 1009.12   1
 -23   5  -4 5892.07 943.844   2
   5  18  -1 18774.5 1287.53   3
  -5  23  -1 13322.1 1336.12   3
 -23   5  -1 19266.1 1557.81   4
  23 -18  -1 17279.6 1465.78   1
 -18  -5  -1 22185.2 1645.13   4
 -23   5  -1 16988.9 1255.91   2
 -18  -5  -1 17981.8 1471.78   2
  18 -23  -1 16246.0 1150.50   1
   5  18   2 3571.56 891.492   3
  -5  23   2 2920.92 1006.82   3
  23 -18   2 2231.77 953.220   1
 -23   5   2 2697.10 1069.06   4
 -18  -5   2 2968.36 1095.48   4
  18 -23   2 2849.13 918.923   1
 -23   5   2 4178.08 968.200   2
 -18  -5   2 1679.22 935.267   2
  -5  23   5 15264.3 1411.08   3
  18 -23   5 19768.4 1690.88   1
 -23   5   5 18995.7 1770.31   4
  23 -18   5 19296.2 1683.66   1
 -18  -5   5 20198.6 1740.53   4
 -23   5   5 20918.2 1746.64   2
 -18  -5   5 17054.2 1541.66   2
   5  18   5 18212.6 1469.79   3
  -5  23   8 1808.27 1169.32   3
  18 -23   8 3090.72 1375.43   1
 -23   5   8 4671.61 1432.30   4
 -18  -5   8 3292.13 1273.86   4
 -23   5   8 2045.75 1336.30   2
  23 -18   8 2427.37 1228.58   1
 -18  -5   8 1727.44 1200.08   2
   5  18   8 2569.42 1220.78   3
 -17  -6  -8 4118.60 1005.50   4
 -23   6  -5 10706.7 1140.16   2
 -17  -6  -5 11901.3 1602.07   2
 -17  -6  -5 14748.6 1488.14   4
   6  17  -5 10784.2 1394.95   3
  -6  23  -5 11552.0 1649.45   3
 -23   6  -5 14021.8 1290.96   4
 -17  -6  -2 20946.7 1601.50   2
  23 -17  -2 18983.7 1597.32   1
   6  17  -2 20020.1 1319.50   3
  -6  23  -2 18286.9 1602.08   3
  17 -23  -2 18638.2 1192.64   1
 -23   6  -2 21311.7 1572.54   4
 -17  -6  -2 24346.1 1700.01   4
 -23   6  -2 20909.9 1290.94   2
   6  17   1 10934.6 1084.36   3
  -6  23   1 9753.58 1233.68   3
  23 -17   1 11751.8 1286.51   1
  17 -23   1 11222.4 1105.82   1
 -23   6   1 11974.6 1377.02   4
 -17  -6   1 8906.78 1327.12   4
 -23   6   1 11076.9 1207.91   2
 -17  -6   1 11309.5 1282.84   2
  -6  23   4 9055.84 1222.34   3
  17 -23   4 8410.24 1252.51   1
 -23   6   4 9935.70 1426.02   4
 -17  -6   4 6883.30 1206.78   4
 -23   6   4 8137.60 1261.12   2
  23 -17   4 9206.00 1252.81   1
 -17  -6   4 10280.2 1284.12   2
   6  17   4 7442.86 1148.74   3
  17 -23   7 14353.1 1748.72   1
 -23   6   7 17511.4 1765.32   4
  23 -17   7 13855.3 1578.87   1
 -17  -6   7 16517.3 1651.23   4
 -23   6   7 13365.5 1688.95   2
 -17  -6   7 13267.3 1504.44   2
   6  17   7 15328.3 1589.78   3
  -6  23   7 13850.1 1463.84   3
 -23   7  -6 18194.4 1356.40   2
 -16  -7  -6 20666.4 2041.14   2
  -7  23  -6 21766.6 2066.33   3
 -23   7  -6 22734.6 1417.56   4
 -16  -7  -3 25249.4 1782.33   2
   7  16  -3 24425.1 1391.55   3
  -7  23  -3 22901.7 1762.92   3
 -23   7  -3 28081.9 1688.60   4
 -16  -7  -3 27958.8 1805.09   4
  23 -16  -3 26826.1 1916.67   1
  16 -23  -3 22244.6 1282.09   1
 -23   7  -3 23319.9 1284.11   2
   7  16   0 14258.8 1117.27   3
  -7  23   0 12454.8 1292.67   3
  23 -16   0 13222.9 1319.78   1
 -23   7   0 14422.9 1442.67   4
  16 -23   0 13688.0 1067.31   1
 -16  -7   0 13699.9 1462.18   4
 -23   7   0 11275.3 1125.51   2
 -16  -7   0 14421.1 1370.98   2
   7  16   3 4609.42 965.533   3
  -7  23   3 3677.51 1004.08   3
  16 -23   3 6126.33 1103.55   1
 -23   7   3 4854.51 1172.36   4
 -16  -7   3 5753.19 1186.51   4
 -23   7   3 4575.41 1072.00   2
  23 -16   3 5361.79 1076.81   1
 -16  -7   3 6716.58 1070.86   2
  -7  23   6 16837.5 1482.35   3
  16 -23   6 21070.1 1881.63   1
 -23   7   6 20280.8 1793.44   4
  23 -16   6 15268.2 1580.96   1
 -16  -7   6 19950.5 1753.36   4
 -23   7   6 17095.3 1678.87   2
 -16  -7   6 14297.2 1477.39   2
   7  16   6 18590.0 1626.91   3
  -7  23   9 1264.41 1156.60   3
  16 -23   9 1094.22 1447.40   1
 -23   7   9 2651.66 1327.30   4
 -16  -7   9 1989.99 1248.22   4
 -23   7   9 2400.08 1392.57   2
  23 -16   9 2126.81 1286.08   1
 -16  -7   9 67.1876 1023.46   2
   7  16   9 1599.32 1213.23   3
 -23   8  -7 21953.0 1358.07   4
 -15  -8  -7 19878.4 1499.71   4
   8  15  -4 6027.05 1029.88   3
 -15  -8  -4 5539.06 1330.40   2
  -8  23  -4 7116.38 1449.77   3
 -23   8  -4 7490.25 1096.69   4
  15 -23  -4 4209.32 732.015   1
 -15  -8  -4 6491.23 1201.09   4
 -23   8  -4 5526.01 798.999   2
   8  15  -1 22348.7 1229.19   3
  -8  23  -1 21459.7 1554.51   3
 -23   8  -1 25554.6 1712.05   4
 -15  -8  -1 23938.2 1714.65   4
  23 -15  -1 21925.9 1623.19   1
  15 -23  -1 22102.3 1191.34   1
 -23   8  -1 21099.9 1277.30   2
 -15  -8  -1 22770.4 1607.58   2
 -15  -8   2 1233.75 920.810   2
   8  15   2 1568.90 780.118   3
  -8  23   2 2209.03 929.723   3
 -23   8   2 3375.17 1121.16   4
  15 -23   2 2191.92 901.053   1
  23 -15   2 2359.22 973.195   1
 -15  -8   2 4181.64 1143.61   4
 -23   8   2 1960.00 948.975   2
  -8  23   5 24984.6 1630.62   3
  15 -23   5 26806.4 1916.30   1
 -23   8   5 29006.1 2009.86   4
 -23   8   5 27430.1 1913.47   2
 -15  -8   5 26891.1 1875.07   4
  23 -15   5 22109.7 1612.37   1
 -15  -8   5 22287.7 1635.68   2
   8  15   5 25744.2 1703.19   3
  -8  23   8 4554.29 1203.31   3
  15 -23   8 6043.20 1564.45   1
 -23   8   8 6574.88 1371.57   4
 -15  -8   8 4544.07 1258.22   4
 -23   8   8 4014.38 1328.10   2
 -15  -8   8 6372.88 1287.24   2
  23 -15   8 7035.52 1307.78   1
   8  15   8 5916.12 1276.67   3
 -14  -9  -8 5641.95 1112.14   4
 -23   9  -5 28861.7 1389.56   2
 -14  -9  -5 32932.9 2281.29   2
   9  14  -5 30499.1 1602.36   3
  -9  23  -5 30848.4 2305.98   3
 -23   9  -5 33008.7 1703.62   4
 -14  -9  -5 35482.1 1928.67   4
   9  14  -2 927.849 660.894   3
 -14  -9  -2 142.078 979.256   2
  -9  23  -2-174.801 1054.21   3
 -23   9  -2 1804.04 914.723   4
 -14  -9  -2 943.363 935.413   4
  14 -23  -2 1966.87 622.446   1
 -23   9  -2 549.507 651.751   2
  23 -14  -2 2181.75 1061.14   1
  -9  23   1 30851.4 1699.20   3
  23 -14   1 29220.8 1706.58   1
  14 -23   1 35216.9 1584.39   1
 -23   9   1 34832.7 1990.14   4
 -14  -9   1 34649.5 2023.38   4
 -23   9   1 34294.5 1725.20   2
 -14  -9   1 32842.0 1794.52   2
   9  14   1 35799.6 1527.63   3
  -9  23   4 764.385 933.478   3
  14 -23   4 2888.70 1108.10   1
  23 -14   4 100.166 868.427   1
 -23   9   4 1624.89 1042.75   4
 -14  -9   4 1437.74 1005.48   4
 -23   9   4 1844.33 1111.91   2
 -14  -9   4 1193.89 896.199   2
   9  14   4 2114.86 964.109   3
  -9  23   7 11397.8 1344.37   3
 -23   9   7 17665.6 1756.64   4
 -23   9   7 14863.5 1711.77   2
  23 -14   7 14816.9 1522.45   1
 -14  -9   7 16713.4 1652.34   4
 -14  -9   7 14181.3 1494.37   2
   9  14   7 18600.6 1703.52   3
  14 -23   7 14269.8 1778.45   1
 -23  10  -6 31579.4 1617.48   4
 -13 -10  -6 31344.7 1848.66   4
  23 -13  -3-131.673 543.600   3
  10  13  -3 1445.85 739.781   3
 -13 -10  -3 927.714 1053.07   2
 -10  23  -3 59.3036 1176.12   3
  23 -13  -3 631.744 1156.03   1
 -23  10  -3 1168.94 874.352   4
  13 -23  -3 1793.91 588.110   1
 -13 -10  -3 249.385 940.827   4
 -23  10  -3 596.307 594.965   2
  10  13   0 44351.3 1550.68   3
 -10  23   0 42793.5 1996.29   3
  13 -23   0 44854.9 1569.77   1
 -23  10   0 42669.8 2132.65   4
  23 -13   0 41476.3 1984.75   1
 -13 -10   0 46259.0 2245.73   4
 -23  10   0 42346.3 1769.04   2
 -13 -10   0 41322.2 2004.50   2
 -10  23   3 7431.88 1180.01   3
  13 -23   3 5422.90 1142.18   1
 -23  10   3 7853.21 1296.91   4
 -23  10   3 7459.39 1226.39   2
 -13 -10   3 7157.48 1220.93   4
 -13 -10   3 4519.85 832.717   3
 -13 -10   3 6588.85 1135.84   2
  10  13   3 6077.10 992.135   3
  23 -13   3 7325.13 1109.57   1
 -10  23   6 14526.3 1410.61   3
 -23  10   6 18473.9 1692.93   4
 -23  10   6 18690.2 1761.69   2
 -13 -10   6 19475.6 1695.91   4
  23 -13   6 14134.4 1462.24   1
 -13 -10   6 15822.7 1454.35   2
  10  13   6 18552.9 1655.18   3
  13 -23   6 19008.0 1873.95   1
 -10  23   9 288.637 1122.04   3
  13 -23   9 4455.23 1692.97   1
 -23  10   9 2595.19 1243.19   4
 -23  10   9 4307.92 1471.19   2
 -13 -10   9 3155.08 1302.59   4
 -13 -10   9-13.5780 1028.09   2
  10  13   9 982.720 1331.17   3
  23 -13   9 1249.03 1154.59   1
 -23  11  -7 15182.3 1158.04   4
 -12 -11  -7 16326.8 1476.09   4
 -23  11  -4-196.254 563.849   2
  11  12  -4 622.861 730.376   3
 -12 -11  -4 35.9582 1145.07   2
 -11  23  -4-360.551 1229.42   3
 -23  11  -4-461.594 824.572   4
 -12 -11  -4 946.293 987.764   4
  11  12  -1 28710.1 1240.63   3
  23 -12  -1 30884.2 1864.41   1
 -12 -11  -1 30550.4 1865.01   2
 -11  23  -1 30953.5 1839.61   3
 -23  11  -1 33989.9 1900.41   4
  12 -23  -1 32304.4 1246.64   1
 -12 -11  -1 37242.9 2113.93   4
 -23  11  -1 31490.4 1463.81   2
  12 -23   2 8018.86 1129.29   1
 -11  23   2 8035.55 1188.05   3
  23 -12   2 6352.50 1108.47   1
 -11  23   2 6939.24 1042.70   1
 -23  11   2 8728.37 1259.31   4
 -23  11   2 8011.09 1165.08   2
 -12 -11   2 7074.57 1262.51   4
 -12 -11   2 6719.53 968.077   3
 -12 -11   2 8375.46 1171.13   2
  11  12   2 8831.66 1005.73   3
 -11  23   5 28422.7 1695.44   3
 -23  11   5 33730.8 2119.14   4
 -23  11   5 31126.9 2081.21   2
 -12 -11   5 32947.0 2013.53   4
  23 -12   5 28942.1 1797.16   1
 -12 -11   5 30536.0 1774.41   2
  11  12   5 33870.9 1914.81   3
  12 -23   5 34237.6 2193.49   1
 -11  23   8 2203.91 1061.08   3
  23 -12   8 4695.03 1229.17   1
  12 -23   8 5130.65 1615.78   1
 -23  11   8 6377.73 1394.30   4
 -23  11   8 7133.38 1517.70   2
 -12 -11   8 7072.72 1380.87   4
  11  12   8 5739.42 1444.81   3
 -12 -11   8 4138.31 1109.94   2
 -11 -12  -5 28433.9 2246.38   2
 -12  23  -5 29927.8 2351.84   3
 -23  12  -5 34886.3 1754.02   4
 -23  12  -5 29614.2 1168.66   2
  23 -11  -2 6510.71 683.493   3
  12  11  -2 7509.63 769.752   3
 -11 -12  -2 8280.67 1356.79   2
 -12  23  -2 7360.44 1389.17   3
 -23  12  -2 9659.40 1186.70   4
  23 -11  -2 9128.59 1349.32   1
 -23  12  -2 7278.05 822.050   2
 -11 -12  -2 6554.18 1176.79   4
  11 -23  -2 8606.62 725.537   1
  11 -23   1 35484.4 1563.19   1
 -12  23   1 30892.7 1747.01   3
  23 -11   1 30104.0 1738.55   1
 -12  23   1 29290.5 1787.98   1
 -23  12   1 34382.0 1950.63   4
 -23  12   1 29540.1 1638.90   2
 -11 -12   1 35042.9 2085.76   4
  12  11   1 36114.2 1462.04   3
 -11 -12   1 32763.6 1822.93   2
 -11 -12   4-6.11972 893.716   2
 -12  23   4 2451.69 955.308   3
  11 -23   4 1514.67 1188.36   1
 -23  12   4 172.400 943.452   4
  23 -11   4 637.270 958.844   1
 -23  12   4 763.589 1022.44   2
 -11 -12   4 2333.95 1065.77   4
  12  11   4 1736.10 924.861   3
 -12  23   7 14708.4 1439.82   3
 -23  12   7 17857.8 1760.37   4
 -23  12   7 13411.2 1703.99   2
 -11 -12   7 18508.7 1729.56   4
  23 -11   7 13431.5 1459.24   1
  11 -23   7 14691.8 1875.78   1
 -11 -12   7 11528.0 1379.40   2
  12  11   7 15803.0 1645.83   3
 -23  13  -6 18938.2 1324.88   4
 -10 -13  -6 19241.0 1628.42   4
  13  10  -3 4175.87 679.663   3
 -10 -13  -3 3999.07 1246.67   2
 -13  23  -3 6128.24 1469.55   3
 -23  13  -3 5275.90 1028.32   4
  10 -23  -3 3464.53 441.336   1
 -23  13  -3 5691.00 685.185   2
  23 -10  -3 3927.85 498.412   3
 -10 -13   0 45208.9 2182.61   2
  10 -23   0 44744.9 1556.39   1
 -13  23   0 44780.2 2127.58   3
 -23  13   0 45944.3 2198.23   4
 -23  13   0 45570.3 1844.72   2
 -10 -13   0 48072.9 2349.93   4
  23 -10   0 44129.5 2154.91   1
  13  10   0 46937.5 1510.67   3
 -10 -13   3 901.774 866.749   2
  10 -23   3 1262.94 1059.04   1
 -13  23   3 1930.94 951.810   3
 -23  13   3 2064.13 1100.41   4
 -23  13   3 670.818 1002.74   2
 -13  23   3 1230.20 842.013   1
 -10 -13   3 2531.46 1150.92   4
  23 -10   3 1042.75 931.907   1
  13  10   3 450.794 843.012   3
 -13  23   6 32566.8 1821.70   3
 -23  13   6 32724.7 2078.86   4
 -23  13   6 31199.1 2219.76   2
 -10 -13   6 37062.3 2180.73   4
  10 -23   6 35667.0 2382.51   1
  23 -10   6 31418.2 1882.80   1
  13  10   6 37274.9 2115.71   3
 -10 -13   6 31886.3 1882.24   2
  10 -23   9 2493.81 1701.62   1
 -13  23   9 1688.79 1193.90   3
  23 -10   9 972.158 1062.21   1
 -13  23   9 1141.87 1178.85   4
 -10 -13   9 1021.27 2016.73   1
 -23  13   9 300.971 1140.25   4
 -23  13   9 1045.59 1283.24   2
 -10 -13   9-467.285 1170.34   4
  13  10   9 92.4729 1260.81   3
 -10 -13   9-82.9445 1012.92   2
 -23  14  -7 14582.0 1150.73   4
  14   9  -4 928.507 439.674   3
 -14  23  -4 2909.74 1367.85   3
  -9 -14  -4 2383.86 1362.33   2
 -23  14  -4 2994.42 916.335   4
  -9 -14  -4 2328.08 1023.20   4
 -23  14  -4 1716.20 517.113   2
  14   9  -1 33369.9 1172.40   3
  -9 -14  -1 28364.5 1908.64   2
  23  -9  -1 29562.1 1201.58   3
 -14  23  -1 28916.0 1884.57   3
   9 -23  -1 35316.6 1233.71   1
 -23  14  -1 30918.9 1837.49   4
  23  -9  -1 30002.3 1928.79   1
 -23  14  -1 31372.8 1464.70   2
  -9 -14  -1 36599.0 2073.55   4
  -9 -14   2-470.095 970.741   2
   9 -23   2 758.162 940.112   1
 -23  14   2 878.206 951.317   4
 -14  23   2-218.968 889.728   3
  23  -9   2 1103.02 1007.52   1
 -23  14   2-93.2633 892.944   2
  -9 -14   2 656.770 1068.61   4
 -14  23   2 1352.49 1052.55   1
  14   9   2 1163.42 809.981   3
 -14  23   5 29734.7 1764.85   3
  14   9   5 23709.9 1538.89   1
 -23  14   5 22431.5 1254.44   3
 -23  14   5 30997.9 2014.81   4
 -23  14   5 30624.5 2135.86   2
  -9 -14   5 32698.7 2041.67   4
   9 -23   5 32021.4 2240.70   1
  14   9   5 31960.8 1922.51   3
  -9 -14   5 31335.6 1849.69   2
  23  -9   5 26819.0 1728.00   1
  -9 -14   8 3525.25 1130.35   2
   9 -23   8 5059.81 1659.79   1
 -14  23   8 5971.20 1226.32   3
  23  -9   8 4206.58 1148.73   1
 -23  14   8 6038.43 1346.14   4
  -9 -14   8 6832.29 2131.60   1
 -23  14   8 6206.32 1490.02   2
  -9 -14   8 8144.21 1435.80   4
  14   9   8 5345.39 1385.68   3
 -23  15  -5 24816.1 1515.35   4
  -8 -15  -5 26465.3 1832.51   4
  23  -8  -2 1406.13 1201.84   1
  15   8  -2 2142.81 558.219   3
  23  -8  -2 1832.96 499.708   3
  -8 -15  -2 1807.89 1166.33   2
 -15  23  -2 2051.70 1198.98   3
 -23  15  -2 1920.31 967.721   4
 -23  15  -2 3229.62 728.253   2
  -8 -15  -2 3022.70 1140.42   4
  -8 -15  -2 1667.97 601.973   1
   8 -23  -2 2089.62 455.611   1
  -8 -15   1 19133.8 1589.53   2
 -15  23   1 18025.1 1506.06   3
 -23  15   1 20804.9 1474.55   2
 -23  15   1 21684.5 1647.55   4
  23  -8   1 17365.0 1502.84   1
   8 -23   1 20706.1 1395.23   1
  15   8   1 21396.0 1211.31   3
 -15  23   4 8141.26 1155.35   3
 -23  15   4 4294.43 901.720   3
 -23  15   4 7378.13 1248.98   4
 -23  15   4 4651.79 1218.28   2
  -8 -15   4 6289.16 1215.72   4
   8 -23   4 6720.20 1426.19   1
  15   8   4 8381.24 1236.89   3
  23  -8   4 5062.37 1106.59   1
  -8 -15   4 7843.55 1187.75   2
 -15  23   7 16944.6 1508.25   3
  15   8   7 18140.6 1394.46   1
  -8 -15   7 22664.0 2665.58   1
 -23  15   7 23655.1 1900.25   4
 -23  15   7 18274.5 1915.75   2
  -8 -15   7 22116.2 1843.21   4
   8 -23   7 18358.0 2111.58   1
  15   8   7 21854.2 1903.34   3
  23  -8   7 17461.7 1629.60   1
  -8 -15   7 15435.6 1476.38   2
 -23  16  -6 18064.4 1343.00   4
  -7 -16  -3 2228.12 548.634   1
  16   7  -3 2582.11 442.389   3
 -16  23  -3 3154.95 1325.96   3
  -7 -16  -3 3528.95 1386.72   2
 -23  16  -3 5390.96 1072.59   4
  -7 -16  -3 5500.41 1214.88   4
 -23  16  -3 4072.07 605.274   2
  23  -7  -3 1527.48 183.006   3
  -7 -16   0 13905.5 1488.93   2
 -16  23   0 15244.5 1539.67   3
  23  -7   0 12081.1 1442.57   1
 -23  16   0 16135.4 1526.93   4
 -23  16   0 14045.3 1225.25   2
  -7 -16   0 10905.6 1449.91   4
  16   7   0 14192.9 920.853   3
   7 -23   0 16194.9 1124.91   1
  -7 -16   3 26085.0 1749.83   2
 -16  23   3 24628.4 1612.56   3
 -23  16   3 24632.6 1519.90   3
  23  -7   3 21289.3 1613.59   1
 -23  16   3 27669.7 1886.51   4
 -23  16   3 26223.3 1846.72   2
  -7 -16   3 26761.6 1872.37   4
   7 -23   3 25554.2 1841.55   1
  16   7   3 27002.9 1648.47   3
  23  -7   6 22322.0 1732.33   1
 -16  23   6 24640.5 1646.31   3
 -23  16   6 21829.7 1323.50   3
  16   7   6 22471.0 1597.66   1
  -7 -16   6 31588.7 2829.12   1
 -23  16   6 26867.1 1975.26   4
 -23  16   6 25529.9 2055.79   2
  -7 -16   6 25728.6 1905.88   4
   7 -23   6 31398.5 2473.62   1
  16   7   6 26173.2 1919.34   3
  -7 -16   6 23293.9 1663.52   2
  -7 -16   9 5730.17 1250.50   2
 -16  23   9 5830.33 1258.14   3
 -16  23   9 10930.2 2482.26   2
  23  -7   9 3803.15 1268.46   1
 -16  23   9 6748.65 1431.11   4
 -23  16   9 10642.6 1623.61   4
 -23  16   9 9632.91 1772.58   2
  -7 -16   9 12658.0 2594.54   1
  -7 -16   9 7332.77 1442.54   4
  16   7   9 9380.31 1576.66   3
   7 -23   9 10451.5 2046.85   1
 -23  17  -7 15088.2 1234.25   4
 -17  23  -4 7638.06 1593.49   3
 -17  23  -4 7525.81 824.724   2
 -23  17  -4 7633.90 1156.98   4
  -6 -17  -4 5497.51 1268.43   4
 -23  17  -4 5226.33 511.628   2
   6 -23  -1 12967.1 869.286   1
  23  -6  -1 12276.0 1548.54   1
  23  -6  -1 11258.0 848.658   3
  -6 -17  -1 11522.2 1599.39   2
 -17  23  -1 11562.5 1560.55   3
 -23  17  -1 13168.0 1384.58   4
 -23  17  -1 11848.9 1061.14   2
  -6 -17  -1 16798.3 1614.71   4
  17   6  -1 12895.3 782.346   3
  -6 -17   2 24976.6 1788.32   2
 -17  23   2 24534.4 1658.45   3
 -23  17   2 20975.1 1546.67   3
 -23  17   2 26681.4 1896.08   4
 -23  17   2 25634.1 1756.51   2
  -6 -17   2 26583.6 1906.87   4
  23  -6   2 21679.0 1649.83   1
   6 -23   2 23082.9 1667.68   1
  17   6   2 27219.0 1539.29   3
 -17  23   5 11797.2 1271.32   3
  23  -6   5 11290.8 1363.55   1
 -23  17   5 11770.3 1235.49   3
  -6 -17   5 14620.3 2181.41   1
 -23  17   5 13136.4 1532.60   4
  17   6   5 11325.3 1300.74   1
 -23  17   5 14274.3 1716.90   2
   6 -23   5 14409.5 1884.10   1
  -6 -17   5 13988.7 1554.16   4
  17   6   5 13299.0 1500.79   3
  -6 -17   5 10776.6 1349.45   2
  -6 -17   8 4951.09 1173.50   2
 -17  23   8 5581.95 1176.32   3
  17   6   8 4048.79 1082.61   1
 -17  23   8 6372.34 1497.28   4
 -17  23   8 4235.31 1813.71   2
 -23  17   8 3639.13 1235.46   4
  23  -6   8 3344.75 1234.53   1
 -23  17   8 3444.99 1450.52   2
  -6 -17   8 7174.88 2153.19   1
  -6 -17   8 4440.96 1299.41   4
  17   6   8 6245.32 1465.17   3
   6 -23   8 7294.24 1974.47   1
 -23  18  -5 20475.1 1499.32   4
  23  -5  -2 2464.15 393.447   3
  18   5  -2 2068.34 430.507   3
  -5 -18  -2 2088.06 573.507   1
   5 -23  -2 3230.52 453.984   1
 -18  23  -2 4373.15 1395.39   3
  -5 -18  -2 2354.91 1340.50   2
 -23  18  -2 2174.93 712.114   2
 -23  18  -2 4497.09 1086.11   4
  -5 -18  -2 3888.50 1206.62   4
  23  -5  -2 3308.18 485.810   3
  -5 -18   1 18647.2 1688.41   2
 -18  23   1 17401.9 1596.07   3
  23  -5   1 15805.4 1609.47   1
 -23  18   1 18749.2 1612.09   3
 -23  18   1 18854.1 1682.98   4
 -23  18   1 18670.7 1483.17   2
  -5 -18   1 20357.9 1735.49   4
   5 -23   1 21798.8 1531.74   1
  18   5   1 21302.8 1257.11   3
  -5 -18   4 8036.47 1313.87   2
 -18  23   4 7577.46 1187.72   3
 -23  18   4 8190.11 1192.33   3
   5 -23   4 7758.00 1387.71   2
  -5 -18   4 11433.0 1937.98   1
 -23  18   4 9316.40 1463.16   4
 -23  18   4 10991.4 1567.63   2
  23  -5   4 8498.53 1317.94   1
  18   5   4 8474.20 1369.23   1
   5 -23   4 8956.75 1632.90   1
  -5 -18   4 8712.56 1392.11   4
  18   5   4 9887.54 1353.49   3
 -18  23   7 7879.17 1291.19   3
  -5 -18   7 5692.97 1168.69   2
 -23  18   7 8093.30 1089.15   3
   5 -23   7 8243.39 1360.15   2
 -18  23   7 14236.4 2215.97   2
 -18  23   7 11826.7 1708.48   4
 -23  18   7 11456.1 1568.65   4
 -23  18   7 11104.1 1763.50   2
  -5 -18   7 12723.8 2212.90   1
   5 -23   7 13120.9 2072.65   1
  -5 -18   7 10234.8 1512.98   4
  23  -5   7 8277.69 1332.57   1
  18   5   7 10846.6 1368.82   1
  18   5   7 9408.32 1496.00   3
 -19  23  -6 6222.29 1180.09   4
 -23  19  -6 3270.48 922.937   4
 -19  23  -3 35929.5 1519.39   2
 -23  19  -3 36996.8 1995.96   4
 -23  19  -3 34421.1 1268.47   2
  -4 -19   0 28926.0 2073.43   2
 -19  23   0 29572.3 2028.11   3
 -23  19   0 26834.4 1903.56   3
  -4 -19   0 25474.8 1756.08   1
 -23  19   0 28589.4 1919.24   4
 -23  19   0 29352.1 1658.21   2
  -4 -19   0 27028.1 1966.89   4
   4 -23   0 31637.2 1522.07   1
  23  -4   0 35143.3 1604.30   3
  23  -4   0 26909.1 2009.76   1
  19   4   0 30090.9 1262.43   3
  -4 -19   3 28268.3 1891.87   2
 -19  23   3 25944.5 1701.81   3
 -23  19   3 28631.2 1754.64   3
   4 -23   3 27303.6 1993.39   2
  -4 -19   3 32797.8 2369.79   1
 -23  19   3 34168.6 2103.89   4
 -23  19   3 30983.7 2134.58   2
   4 -23   3 29965.6 2168.00   1
  -4 -19   3 31527.2 2058.16   4
  23  -4   3 30147.1 1968.43   1
  19   4   3 34246.1 1856.29   3
  19   4   3 27541.8 1937.64   1
  -4 -19   6 19250.6 1622.04   2
 -19  23   6 22305.7 1681.57   3
 -23  19   6 18961.7 1490.58   3
   4 -23   6 20836.0 1700.87   2
  23  -4   6 18843.1 1676.60   1
 -19  23   6 29448.0 2662.89   2
 -19  23   6 26566.8 2186.67   4
 -23  19   6 21039.3 1894.43   4
  -4 -19   6 27625.5 2806.07   1
 -23  19   6 25533.7 2269.36   2
   4 -23   6 26357.9 2501.05   1
  -4 -19   6 23655.5 1908.94   4
  23  -4   6 26614.3 2243.80   3
  19   4   6 24157.3 1958.19   3
  19   4   6 15761.3 1572.11   1
  23  -4   9 13922.2 1701.65   1
 -19  23   9 17189.7 1631.27   3
 -19  23   9 19078.0 1997.21   4
 -19  23   9 19213.2 2666.23   2
 -23  19   9 14356.0 1812.12   4
 -23  19   9 20500.1 2259.02   2
  -4 -19   9 15401.5 2817.66   1
   4 -23   9 22984.8 2724.82   1
  -4 -19   9 16083.7 1844.28   4
  23  -4   9 20286.0 2565.57   3
  19   4   9 19865.5 2150.72   3
  -4 -19   9 11755.0 1527.69   2
 -20  23  -7 2632.38 947.031   4
 -23  20  -7 4551.14 972.286   4
 -20  23  -4 8737.81 681.479   2
 -23  20  -4 8161.09 557.333   2
  -3 -20  -1 9241.57 1654.63   2
 -20  23  -1 8424.49 1543.31   3
 -20  23  -1 11672.7 1295.96   2
 -23  20  -1 10407.7 1384.44   4
  -3 -20  -1 10081.2 1164.09   1
 -23  20  -1 10678.6 1096.05   2
  -3 -20  -1 10069.8 1496.44   4
   3 -23  -1 12748.0 979.985   1
  23  -3  -1 12862.9 905.599   3
  20   3  -1 11955.4 715.388   3
  -3 -20   2 18456.0 1689.70   2
 -20  23   2 16559.8 1550.36   3
  23  -3   2 17835.1 1673.99   1
  20   3   2 20540.9 1807.12   1
 -23  20   2 17807.0 1627.99   3
   3 -23   2 20018.0 1887.73   2
 -20  23   2 24337.2 2027.51   2
 -23  20   2 22167.2 1809.03   4
  -3 -20   2 18070.1 1884.15   1
 -23  20   2 22626.4 1855.12   2
   3 -23   2 22081.0 1847.42   1
  -3 -20   2 20858.3 1827.89   4
  23  -3   2 21465.0 1640.78   3
  20   3   2 24770.6 1528.03   3
 -20  23   5 1271.93 980.167   3
  -3 -20   5 2836.78 1122.09   2
 -23  20   5 2667.35 1080.57   3
   3 -23   5 1504.00 1097.94   2
 -20  23   5 2368.78 1264.66   4
 -20  23   5 5114.69 1545.25   2
  23  -3   5 2726.55 1185.18   1
 -23  20   5 3522.81 1395.34   2
  -3 -20   5 3208.17 1781.24   1
  20   3   5 2889.51 1110.50   1
  -3 -20   5 4718.97 1282.04   4
 -23  20   5 3235.48 1244.23   4
   3 -23   5 1036.22 1527.81   1
  23  -3   5 5042.11 1386.09   3
  20   3   5 1439.26 1112.34   3
  -3 -20   8 3509.68 1164.91   2
 -20  23   8 4528.46 1183.20   3
 -20  23   8 6875.86 1605.17   4
 -23  20   8 6674.00 1426.81   4
 -20  23   8 7533.45 2020.95   2
 -23  20   8 6879.06 1849.94   2
  -3 -20   8 9520.66 2426.22   1
  -3 -20   8 7533.80 1445.51   4
  20   3   8 4692.95 1285.70   1
  23  -3   8 8381.10 1919.49   3
   3 -23   8 8817.80 2152.57   1
  20   3   8 3946.78 1465.91   3
  23  -3   8 3352.69 1195.24   1
 -21  23  -5 13300.1 1429.61   4
 -23  21  -5 12031.8 1339.02   4
  21   2  -2 7702.57 441.838   3
 -21  23  -2 8960.40 1649.22   3
 -21  23  -2 10403.1 1511.27   4
 -23  21  -2 8072.37 1305.06   4
  -2 -21  -2 10234.3 907.394   1
 -23  21  -2 12209.0 1053.30   2
 -21  23  -2 9938.02 1164.91   2
  23  -2  -2 7500.72 370.842   3
   2 -23  -2 7876.34 577.821   1
 -21  23   1 2434.47 1169.98   3
  -2 -21   1 2082.31 1263.41   2
 -23  21   1 2527.75 1156.17   3
 -21  23   1 3841.50 1282.40   4
 -23  21   1 1930.84 1100.96   4
 -21  23   1 1096.37 1137.33   2
 -23  21   1 2028.78 1087.47   2
  -2 -21   1 5548.37 1344.01   1
  23  -2   1 5379.48 1357.91   1
  -2 -21   1 5486.97 1371.44   4
   2 -23   1 3232.78 1149.62   1
  23  -2   1 3481.60 960.121   3
  21   2   1 3844.66 895.602   3
 -21  23   4 1614.29 1039.84   3
  -2 -21   4 1884.12 1123.38   2
 -23  21   4 1704.02 1082.89   3
   2 -23   4 1788.48 1205.48   2
  23  -2   4 1115.23 1147.17   1
 -21  23   4-44.1971 1122.46   4
 -23  21   4 2141.58 1139.18   4
 -21  23   4-76.5554 1332.90   2
 -23  21   4 1753.75 1352.82   2
  -2 -21   4 1488.09 1522.40   1
  -2 -21   4 2020.06 1197.32   4
   2 -23   4 1575.56 1378.17   1
  23  -2   4 1080.11 1118.11   3
  21   2   4 1035.33 1015.88   3
  21   2   4 278.424 1085.11   1
 -21  23   7 2559.79 1047.44   3
  -2 -21   7 2302.05 1098.35   2
 -23  21   7 2827.91 1056.50   3
  23  -2   7-665.485 1183.11   1
   2 -23   7 3252.40 1183.27   2
 -21  23   7 2425.36 1295.46   4
 -23  21   7 4168.04 1370.00   4
 -21  23   7 527.200 1659.16   2
 -23  21   7 4776.57 1648.57   2
  -2 -21   7 4327.28 1967.85   1
  -2 -21   7-551.633 1172.01   4
   2 -23   7 3602.56 1853.51   1
  23  -2   7 1469.39 1432.56   3
  21   2   7 3444.28 1469.99   3
  21   2   7 2598.37 1196.77   1
 -22  23  -6 3957.15 1079.04   4
 -23  22  -6 4640.86 1058.15   4
 -22  23  -3 32723.5 2075.01   4
 -23  22  -3 33668.7 2018.50   4
 -22  23  -3 30739.5 1329.53   2
 -23  22  -3 33543.6 1326.69   2
  -1 -22   0 15067.0 1897.59   2
 -22  23   0 14027.7 1712.23   3
 -23  22   0 13447.4 1676.48   3
 -22  23   0 17289.1 1742.72   4
 -23  22   0 14076.0 1603.43   4
 -22  23   0 16801.7 1591.27   2
 -23  22   0 15659.8 1494.35   2
  -1 -22   0 13772.8 1386.34   1
   1 -23   0 16936.0 1450.16   1
  23  -1   0 17562.4 1155.31   3
  22   1   0 15339.9 1057.86   3
  -1 -22   3 22946.9 1926.81   2
 -22  23   3 22383.9 1729.12   3
   1 -23   3 24527.2 1965.56   2
 -23  22   3 24906.3 1803.99   3
  23  -1   3 19650.8 1849.57   1
 -22  23   3 27015.2 2092.86   4
 -23  22   3 27112.3 1992.63   4
 -22  23   3 20592.9 2036.62   2
 -23  22   3 23462.8 2041.88   2
  -1 -22   3 28593.5 2245.86   1
   1 -23   3 27271.8 2162.79   1
  22   1   3 21636.1 1853.33   1
  -1 -22   3 27288.5 2097.72   4
  23  -1   3 25926.3 1840.17   3
  22   1   3 27912.6 1792.47   3
 -22  23   6 10365.0 1391.19   3
   1 -23   6 9493.34 1496.62   2
 -23  22   6 8687.28 1311.10   3
  -1 -22   6 6822.29 1334.23   2
 -22  23   6 11994.4 1730.62   4
 -23  22   6 11723.0 1703.98   4
 -23  22   6 13732.2 1994.45   2
  -1 -22   6 12697.3 2116.78   1
   1 -23   6 15989.1 2275.17   1
 -22  23   6 13822.7 2102.91   2
  23  -1   6 8896.21 1480.11   1
  22   1   6 8411.14 1513.89   1
  23  -1   6 12045.8 1770.30   3
  22   1   6 12010.5 1665.86   3
 -23  23  -7 1738.82 933.259   4
 -23  23  -4 11472.8 1435.04   4
 -23  23  -1 543.157 1340.18   3
 -23  23  -1-549.799 1068.80   4
 -23  23  -1-368.879 908.049   2
   0 -23  -1 1866.96 838.942   1
  23   0  -1 199.760 475.101   3
   0 -23   2 15893.6 1813.46   2
 -23  23   2 16998.3 1710.92   3
 -23  23   2 18580.8 1813.94   4
 -23  23   2 21554.1 1910.77   2
   0 -23   2 19333.5 1817.21   1
  23   0   2 18467.4 1487.31   3
  23   0   2 14649.1 1785.67   1
 -23  23   5-726.914 1068.82   3
   0 -23   5-1091.10 1131.24   2
 -23  23   5 304.617 1157.73   4
  23   0   5-1064.97 1200.31   1
 -23  23   5 1239.08 1374.78   2
   0 -23   5-3361.81 1727.68   1
  23   0   5-1619.99 1127.54   3
 -23  23   8 1982.03 1102.47   3
 -23  23   8 1758.43 1320.81   4
  23   0   8-122.458 1224.09   1
   0 -23   8 3156.28 1998.17   1
 -23  23   8 215.802 1606.48   2
  23   0   8 3743.78 1627.78   3
 -24   0  -6 9659.60 1616.80   2
   0  24  -6 5545.29 1699.56   3
 -24   0  -6 10313.6 1338.50   4
 -24   0  -3 436.257 943.200   2
 -24   0  -3 3222.05 1149.02   4
  24 -24  -3 1391.99 1049.41   1
   0  24   0 25193.9 1696.44   3
  24 -24   0 24725.6 1632.28   1
 -24   0   0 29505.5 2045.74   4
 -24   0   0 24259.2 1662.26   2
   0  24   3-15.2430 1014.02   3
  24 -24   3 905.238 1002.95   1
 -24   0   3-205.312 1069.83   4
 -24   0   3 662.454 962.605   2
  24 -24   6 26525.4 2033.27   1
 -24   0   6 26754.4 1986.16   2
   0  24   6 29163.9 2013.97   3
 -24   1  -7 5505.05 1499.05   2
 -23  -1  -7 4906.62 1579.96   2
 -23  -1  -7 7171.61 1243.41   4
 -24   1  -7 6397.05 1145.00   4
  24 -23  -4 1718.85 1286.21   1
 -24   1  -4 1034.88 1019.64   2
 -23  -1  -4 71.3655 982.029   2
   1  23  -4 927.611 1118.69   3
  -1  24  -4 37.8647 1153.33   3
 -24   1  -4 592.639 922.606   4
 -23  -1  -4 827.220 985.329   4
  23 -24  -4-1089.85 1132.81   1
 -24   1  -1 3145.95 1022.56   2
 -23  -1  -1 4315.72 1065.44   2
  23 -24  -1 3382.44 971.338   1
   1  23  -1 2723.93 967.431   3
  -1  24  -1 3124.87 1032.43   3
  24 -23  -1 4704.73 1095.79   1
 -24   1  -1 5919.98 1245.65   4
 -23  -1  -1 4423.90 1149.92   4
   1  23   2 2586.01 1044.97   3
  -1  24   2 1051.38 943.970   3
  23 -24   2 1554.08 960.814   1
  24 -23   2 2520.65 1003.86   1
 -24   1   2 1510.30 1077.81   4
 -23  -1   2 1224.50 1095.05   4
 -24   1   2 1831.29 962.958   2
 -23  -1   2 2079.09 1034.28   2
   1  23   5 2997.33 1082.86   3
  -1  24   5 2655.73 1080.26   3
 -24   1   5 4858.04 1318.90   4
 -23  -1   5 4286.67 1293.61   4
  23 -24   5 4809.02 1278.24   1
 -24   1   5 1558.22 1076.29   2
 -23  -1   5 4623.78 1188.49   2
  24 -23   5 2358.98 1125.22   1
   1  23   8 3717.64 1287.81   3
  -1  24   8 2436.81 1249.21   3
 -24   1   8 4517.57 1469.13   4
 -23  -1   8 3395.51 1391.62   4
  23 -24   8 5993.55 1495.55   1
  24 -23   8 1975.59 1304.14   1
 -24   1   8 1774.38 1294.92   2
 -23  -1   8 1548.63 1205.27   2
 -24   2  -5 3117.19 1079.88   2
 -22  -2  -5 1630.77 1175.39   2
   2  22  -5 4409.84 1468.38   3
  -2  24  -5 1605.75 1304.76   3
 -24   2  -5 3152.07 1059.40   4
 -22  -2  -5 5379.99 1133.66   4
 -24   2  -2 3738.88 964.102   2
 -22  -2  -2 5326.25 1118.86   2
  24 -22  -2 3673.06 1109.71   1
   2  22  -2 3055.91 1023.45   3
  -2  24  -2 2891.11 1081.02   3
 -24   2  -2 4860.18 1135.01   4
  22 -24  -2 1860.89 977.035   1
   2  22   1 8318.67 1161.21   3
  -2  24   1 6118.64 1129.65   3
 -24   2   1 10961.2 1503.98   4
 -22  -2   1 7188.29 1319.37   4
  22 -24   1 8266.43 1115.36   1
 -24   2   1 8516.05 1186.14   2
 -22  -2   1 8718.23 1242.56   2
  24 -22   1 9191.52 1215.71   1
  24 -22   4 2208.60 1019.63   1
   2  22   4 1854.77 1010.52   3
  -2  24   4 2036.07 1034.63   3
 -24   2   4 1442.43 1137.70   4
 -22  -2   4 3042.53 1152.77   4
 -24   2   4 5562.29 1198.26   2
  22 -24   4 5374.85 1226.72   1
 -22  -2   4 4880.12 1196.40   2
   2  22   7 2965.29 1206.47   3
  -2  24   7 2325.42 1126.67   3
 -24   2   7 4732.50 1370.25   4
 -22  -2   7 5895.95 1375.47   4
  22 -24   7 1418.29 1269.18   1
 -24   2   7 4761.46 1313.30   2
  24 -22   7 5847.71 1455.42   1
 -22  -2   7 3610.36 1243.06   2
 -24   3  -6 32288.2 2045.72   2
 -21  -3  -6 37798.0 2457.06   2
   3  21  -6 34960.8 2305.74   3
  -3  24  -6 30253.2 2493.28   3
 -24   3  -6 37202.6 1909.16   4
 -21  -3  -6 34485.8 1991.45   4
 -24   3  -3 2147.03 887.614   2
 -21  -3  -3 1243.87 961.578   2
   3  21  -3 2800.86 1105.83   3
  -3  24  -3 1177.23 1119.37   3
  21 -24  -3 996.182 962.998   1
 -24   3  -3 2291.68 1001.67   4
 -21  -3  -3 4706.98 1159.28   4
  24 -21  -3 1783.76 1092.99   1
   3  21   0 29488.4 1637.15   3
  -3  24   0 27593.8 1739.26   3
  24 -21   0 26834.7 1691.36   1
 -24   3   0 29304.6 1941.51   4
 -21  -3   0 28604.1 1957.83   4
 -24   3   0 26875.2 1648.81   2
 -21  -3   0 29339.4 1762.64   2
  21 -24   0 26671.4 1562.41   1
   3  21   3 1554.49 969.206   3
  -3  24   3 1454.09 986.622   3
  24 -21   3 3022.11 1085.71   1
 -24   3   3 2921.31 1175.78   4
 -24   3   3 688.086 935.957   2
  21 -24   3 1605.35 969.355   1
 -21  -3   3 3132.07 1051.04   2
  -3  24   6 14071.1 1501.41   3
  21 -24   6 14381.1 1699.41   1
 -24   3   6 17621.3 1816.88   4
 -21  -3   6 17363.9 1725.19   4
  24 -21   6 14114.3 1586.58   1
 -24   3   6 16962.1 1698.71   2
 -21  -3   6 17781.5 1681.35   2
   3  21   6 14975.5 1564.62   3
 -24   4  -7 1600.21 868.689   4
 -20  -4  -7 4025.21 1088.71   4
 -24   4  -4 3735.07 927.565   2
 -20  -4  -4 2307.30 1108.35   2
   4  20  -4 2753.59 1148.17   3
  -4  24  -4 1414.86 1220.35   3
 -24   4  -4 4713.96 1072.27   4
  20 -24  -4 2547.06 976.942   1
 -20  -4  -4 3598.72 1043.10   4
  24 -20  -4 3601.94 1309.96   1
  20 -24  -1 6478.14 1007.03   1
   4  20  -1 8490.03 1091.52   3
  -4  24  -1 8285.54 1223.49   3
  24 -20  -1 7366.64 1214.09   1
 -24   4  -1 9972.00 1334.15   4
 -20  -4  -1 8511.50 1323.00   4
 -24   4  -1 8864.82 1078.63   2
 -20  -4  -1 8564.14 1246.59   2
   4  20   2 4819.94 1052.10   3
  -4  24   2 3202.66 1039.82   3
  24 -20   2 3286.54 1076.57   1
  20 -24   2 5234.37 1079.59   1
 -24   4   2 3865.48 1223.22   4
 -20  -4   2 5578.05 1297.05   4
 -24   4   2 4037.29 1052.22   2
 -20  -4   2 5508.06 1163.19   2
  24 -20   5 1629.99 1106.31   1
   4  20   5 2980.41 1059.02   3
  -4  24   5 1553.16 1012.25   3
 -24   4   5 3619.72 1256.21   4
 -20  -4   5 4769.95 1220.97   4
  20 -24   5 4237.81 1245.67   1
 -24   4   5 2444.04 1098.58   2
 -20  -4   5 3847.79 1169.30   2
   4  20   8 3084.53 1253.61   3
  -4  24   8 4392.11 1276.30   3
  20 -24   8 6721.01 1579.83   1
 -24   4   8 3522.74 1342.40   4
 -20  -4   8 4034.61 1314.98   4
 -24   4   8 1091.43 1257.44   2
  24 -20   8 2115.03 1294.35   1
 -20  -4   8 1053.11 1168.72   2
 -24   5  -5 3515.07 940.155   2
 -19  -5  -5 5636.10 1337.72   2
   5  19  -5 3025.73 1239.90   3
  -5  24  -5 3936.34 1397.44   3
 -24   5  -5 7635.37 1081.23   4
 -19  -5  -5 6407.38 1148.85   4
 -19  -5  -2 4218.15 1124.79   2
   5  19  -2 2817.84 872.623   3
  -5  24  -2 4742.61 1212.80   3
  19 -24  -2 5791.12 961.385   1
  24 -19  -2 3023.92 1132.61   1
 -24   5  -2 5301.58 1105.38   4
 -19  -5  -2 5528.47 1176.06   4
 -24   5  -2 4454.59 880.741   2
   5  19   1 13955.3 1230.05   3
  -5  24   1 13226.4 1404.75   3
  24 -19   1 12682.3 1356.77   1
 -24   5   1 17227.5 1626.19   4
 -19  -5   1 15223.3 1599.72   4
  19 -24   1 13111.9 1165.00   1
 -24   5   1 15831.2 1347.40   2
 -19  -5   1 11765.0 1301.09   2
  -5  24   4 8447.93 1257.49   3
  19 -24   4 13381.2 1494.72   1
 -24   5   4 10365.1 1459.34   4
 -19  -5   4 12512.3 1537.25   4
 -24   5   4 9899.33 1365.75   2
  24 -19   4 8549.43 1278.43   1
 -19  -5   4 10170.2 1314.53   2
   5  19   4 10741.6 1233.90   3
  -5  24   7 6820.76 1278.86   3
  19 -24   7 10860.3 1615.58   1
  24 -19   7 10211.4 1508.78   1
 -24   5   7 7020.28 1430.50   4
 -19  -5   7 10083.1 1537.45   4
 -24   5   7 9052.70 1595.37   2
 -19  -5   7 6427.70 1318.28   2
   5  19   7 8909.60 1395.55   3
 -24   6  -6 11811.4 1366.56   2
 -18  -6  -6 9413.17 1732.02   2
  -6  24  -6 12583.1 1879.69   3
 -24   6  -6 16548.6 1368.30   4
 -18  -6  -6 18061.7 1513.57   4
   6  18  -3 5250.68 1050.67   3
 -18  -6  -3 4436.81 1148.74   2
  -6  24  -3 5195.70 1280.04   3
  24 -18  -3 4626.80 1242.31   1
 -24   6  -3 6243.21 1106.48   4
 -18  -6  -3 5736.13 1181.15   4
  18 -24  -3 6292.48 1047.99   1
 -24   6  -3 5485.20 924.886   2
   6  18   0 38499.6 1672.60   3
  -6  24   0 34868.9 1850.65   3
  24 -18   0 35733.7 1934.85   1
 -24   6   0 42199.3 2210.08   4
 -18  -6   0 39907.6 2147.40   4
  18 -24   0 33844.5 1557.74   1
 -24   6   0 36612.7 1737.06   2
 -18  -6   0 33902.0 1886.43   2
   6  18   3 3805.70 969.181   3
  -6  24   3 4853.53 1122.49   3
 -24   6   3 4874.81 1237.40   4
 -18  -6   3 6199.07 1277.60   4
  18 -24   3 4594.38 1063.67   1
 -24   6   3 6052.98 1153.16   2
  24 -18   3 7694.92 1216.29   1
 -18  -6   3 5836.60 1109.55   2
  -6  24   6 21406.9 1667.67   3
  18 -24   6 23464.8 1912.13   1
  24 -18   6 22785.1 1796.36   1
 -18  -6   6 23929.3 1901.32   4
 -24   6   6 20166.2 1867.47   2
 -18  -6   6 19711.5 1658.98   2
   6  18   6 24245.7 1799.38   3
  -6  24   9 30.5138 1158.59   3
  18 -24   9 992.852 1384.22   1
 -24   6   9 1680.40 1304.24   4
 -18  -6   9 1278.16 1362.08   4
 -24   6   9 2685.43 1387.09   2
  24 -18   9 2663.33 1336.36   1
 -18  -6   9 3504.96 1311.08   2
   6  18   9-497.688 1329.91   3
 -24   7  -7 2565.49 883.167   4
 -17  -7  -7 2340.48 971.456   4
 -17  -7  -4 8683.65 1423.60   2
   7  17  -4 7408.02 1177.54   3
  -7  24  -4 9457.97 1488.60   3
 -24   7  -4 9015.50 1181.76   4
 -17  -7  -4 9422.85 1308.99   4
  17 -24  -4 5944.88 911.432   1
 -24   7  -4 8703.86 1006.83   2
 -17  -7  -1 1471.99 943.165   2
   7  17  -1 226.601 733.218   3
  -7  24  -1 409.794 959.604   3
  17 -24  -1 410.738 725.368   1
 -24   7  -1 1548.63 935.128   4
 -17  -7  -1 1072.18 1015.22   4
 -24   7  -1 1320.48 765.252   2
  24 -17  -1 934.357 1010.62   1
   7  17   2 1553.61 836.590   3
  -7  24   2-508.822 926.524   3
 -24   7   2 706.077 1008.79   4
  24 -17   2 1710.57 922.813   1
 -17  -7   2 935.993 971.235   4
  17 -24   2 904.061 880.610   1
 -24   7   2-599.453 855.856   2
 -17  -7   2 750.065 907.231   2
  -7  24   5 3800.97 1096.21   3
  24 -17   5 6475.44 1192.68   1
  17 -24   5 4224.99 1246.15   1
 -24   7   5 6704.35 1331.64   4
 -17  -7   5 6062.83 1247.44   4
 -24   7   5 4443.27 1233.01   2
 -17  -7   5 4100.13 1082.81   2
   7  17   5 5376.15 1179.24   3
  -7  24   8 4514.47 1227.54   3
  17 -24   8 5374.99 1532.56   1
 -24   7   8 6631.76 1497.68   4
 -17  -7   8 2754.67 1233.21   4
 -24   7   8 5841.55 1512.05   2
 -17  -7   8 2091.18 1154.02   2
  24 -17   8 3245.85 1244.38   1
   7  17   8 4075.96 1273.13   3
 -16  -8  -8 9963.71 1312.82   4
 -24   8  -5 6113.27 955.482   2
   8  16  -5 6765.70 1183.83   3
 -16  -8  -5 5396.04 1380.96   2
  -8  24  -5 5093.78 1440.43   3
 -24   8  -5 7542.15 1097.81   4
 -16  -8  -5 6514.21 1160.89   4
 -16  -8  -2 22023.8 1689.44   2
   8  16  -2 22922.3 1304.29   3
  16 -24  -2 24886.4 1282.27   1
  -8  24  -2 21485.9 1730.11   3
  24 -16  -2 22111.9 1714.58   1
 -24   8  -2 26682.4 1745.36   4
 -16  -8  -2 24748.0 1798.69   4
 -24   8  -2 24416.1 1337.70   2
   8  16   1 11837.7 1101.16   3
  -8  24   1 11072.2 1297.58   3
  24 -16   1 11461.9 1315.66   1
  16 -24   1 10869.0 1089.14   1
 -24   8   1 10640.9 1374.19   4
 -16  -8   1 12654.9 1454.87   4
 -24   8   1 11523.5 1190.88   2
 -16  -8   1 10772.0 1258.54   2
  -8  24   4 16635.4 1462.15   3
  16 -24   4 17475.8 1590.10   1
 -24   8   4 16648.0 1637.28   4
 -16  -8   4 18530.4 1686.60   4
 -24   8   4 15928.1 1527.10   2
  24 -16   4 16059.9 1501.80   1
 -16  -8   4 14379.4 1372.64   2
   8  16   4 17425.5 1437.76   3
  24 -16   7 3660.33 1217.19   1
  -8  24   7 3897.98 1187.80   3
  16 -24   7 6629.35 1496.23   1
 -24   8   7 6208.32 1379.00   4
 -16  -8   7 6134.31 1401.02   4
 -24   8   7 4649.58 1356.79   2
 -16  -8   7 5321.86 1297.45   2
   8  16   7 3736.75 1243.30   3
 -24   9  -6 29295.5 1621.63   4
 -15  -9  -6 27174.8 1808.06   4
 -15  -9  -3 15799.3 1612.84   2
   9  15  -3 16098.7 1195.60   3
  -9  24  -3 14516.9 1631.09   3
 -24   9  -3 17170.5 1450.98   4
  15 -24  -3 15120.7 1047.02   1
 -15  -9  -3 17958.6 1629.78   4
 -24   9  -3 16025.9 1092.49   2
  24 -15  -3 17114.2 1750.18   1
   9  15   0 18402.5 1173.52   3
  -9  24   0 14994.6 1410.13   3
 -24   9   0 21232.1 1630.87   4
  15 -24   0 17447.1 1156.15   1
  24 -15   0 15900.3 1389.92   1
 -15  -9   0 20903.8 1733.56   4
 -24   9   0 17301.9 1273.53   2
 -15  -9   0 17313.0 1495.21   2
   9  15   3 2759.50 946.183   3
  -9  24   3 1484.79 974.616   3
  15 -24   3 1411.54 979.181   1
 -24   9   3 1425.01 1045.75   4
  24 -15   3 3720.60 1074.07   1
 -15  -9   3 2328.34 1136.58   4
 -24   9   3 2909.65 1077.84   2
 -15  -9   3 2554.03 919.592   2
  15 -24   6 8198.50 1514.70   1
  -9  24   6 6524.96 1203.89   3
 -24   9   6 9273.49 1425.58   4
 -15  -9   6 7745.69 1349.75   4
  24 -15   6 7887.77 1336.82   1
 -24   9   6 5727.86 1380.72   2
   9  15   6 9145.23 1320.07   3
 -15  -9   6 6084.27 1203.14   2
  -9  24   9 5741.26 1313.57   3
  15 -24   9 7149.04 1721.84   1
 -24   9   9 5776.04 1465.68   4
 -15  -9   9 7118.62 1558.11   4
 -24   9   9 6233.70 1592.29   2
   9  15   9 8740.72 1641.08   3
 -15  -9   9 5591.88 1314.64   2
  24 -15   9 5559.37 1407.00   1
 -24  10  -7 1638.11 785.883   4
 -14 -10  -7 2320.54 1042.39   4
  10  14  -4 4226.02 940.083   3
 -14 -10  -4 4342.23 1325.16   2
 -10  24  -4 7365.91 1452.36   3
 -24  10  -4 6841.72 1074.59   4
 -14 -10  -4 5705.80 1163.38   4
 -24  10  -4 4745.32 780.491   2
  14 -24  -1 1219.47 656.698   1
  10  14  -1 1689.39 722.583   3
 -14 -10  -1 754.339 975.945   2
 -10  24  -1 1621.57 1005.71   3
  24 -14  -1 2784.84 1173.84   1
 -24  10  -1 57.2632 929.361   4
 -14 -10  -1 893.799 1046.25   4
 -24  10  -1 1237.61 739.328   2
 -10  24   2 12662.8 1337.79   3
  24 -14   2 12985.5 1326.54   1
  14 -24   2 16085.8 1297.61   1
 -24  10   2 15486.8 1566.87   4
 -14 -10   2 17285.2 1648.52   4
 -24  10   2 13431.7 1333.09   2
 -14 -10   2 13770.6 1360.62   2
  10  14   2 14576.4 1221.16   3
 -10  24   5 680.546 995.781   3
  14 -24   5 2182.55 1213.34   1
  24 -14   5 2222.04 1038.35   1
 -24  10   5 3530.86 1186.37   4
 -14 -10   5 2474.56 1083.61   4
 -24  10   5 430.622 1052.41   2
 -14 -10   5 1373.23 979.061   2
  10  14   5 1907.87 1002.33   3
  24 -14   8 3552.09 1241.95   1
 -10  24   8 4828.59 1266.40   3
  14 -24   8 3338.22 1524.76   1
 -24  10   8 3303.58 1353.09   4
 -24  10   8 2353.98 1390.51   2
 -14 -10   8 2995.85 1285.55   4
 -14 -10   8 3068.46 1112.05   2
  10  14   8 3654.43 1315.52   3
 -24  11  -5 6620.02 852.043   2
 -13 -11  -5 10814.9 1704.97   2
  11  13  -5 4386.55 913.679   3
 -11  24  -5 7718.56 1645.67   3
 -24  11  -5 7605.47 1092.28   4
 -13 -11  -5 8304.15 1290.23   4
  11  13  -2 14071.8 1009.95   3
 -13 -11  -2 13471.4 1479.84   2
 -11  24  -2 14130.9 1587.38   3
 -24  11  -2 15070.5 1405.88   4
  24 -13  -2 14822.5 1596.32   1
 -13 -11  -2 14965.3 1571.14   4
 -24  11  -2 16209.8 1081.14   2
  13 -24  -2 13317.0 910.376   1
 -13 -11   1 7099.81 1162.65   2
 -11  24   1 4882.07 1141.70   3
  13 -24   1 6026.35 952.307   1
  24 -13   1 3881.54 1053.62   1
 -24  11   1 6616.93 1286.76   4
 -24  11   1 5745.35 1040.00   2
 -13 -11   1 6608.81 1270.77   4
  11  13   1 7422.94 921.737   3
 -11  24   4 13098.5 1358.78   3
 -24  11   4 15991.8 1661.09   4
 -24  11   4 13111.4 1498.71   2
 -13 -11   4 15936.1 1629.91   4
 -13 -11   4 14126.8 1388.26   2
  11  13   4 13991.6 1352.78   3
  24 -13   4 12782.8 1370.36   1
  13 -24   4 15984.4 1609.05   1
 -11  24   7 2153.35 1042.98   3
  24 -13   7-278.548 1058.54   1
  13 -24   7-514.827 1305.25   1
 -24  11   7 124.918 1054.38   4
 -24  11   7-283.315 1201.20   2
 -13 -11   7 2562.49 1171.08   4
  11  13   7 1469.92 1153.80   3
 -13 -11   7 187.202 1005.54   2
 -24  12  -6 8820.10 1077.87   4
 -12 -12  -6 8871.72 1276.63   4
  12  12  -3 7929.06 866.909   3
 -12 -12  -3 7570.93 1389.18   2
 -12  24  -3 11613.4 1640.47   3
 -24  12  -3 7853.12 1126.62   4
  12 -24  -3 8163.33 678.469   1
 -12 -12  -3 9060.03 1308.71   4
  24 -12  -3 7413.33 1443.79   1
 -24  12  -3 7659.87 805.908   2
 -12  24   0 8190.12 1226.39   3
 -12 -12   0 5451.92 1224.82   2
  12 -24   0 8715.21 938.077   1
 -24  12   0 7975.62 1262.35   4
 -24  12   0 8161.14 1029.67   2
 -12 -12   0 8509.60 1369.87   4
  24 -12   0 6903.30 1290.08   1
  12  12   0 7088.92 862.266   3
 -12  24   3 8444.68 1212.16   3
  24 -12   3 9064.28 1246.06   1
 -24  12   3 10698.6 1394.13   4
 -24  12   3 9958.23 1279.68   2
 -12 -12   3 10459.2 1376.55   4
  12  12   3 7679.36 1082.50   3
 -12 -12   3 9779.54 1259.04   2
  12 -24   3 10121.3 1326.60   1
 -12  24   6 5884.18 1231.12   3
  12 -24   6 6972.47 1578.00   1
 -24  12   6 8081.09 1378.64   4
 -24  12   6 9465.47 1524.74   2
 -12 -12   6 9174.51 1454.28   4
  24 -12   6 6538.05 1237.08   1
  12  12   6 9035.55 1375.50   3
 -12 -12   6 5521.77 1135.74   2
 -12  24   9 3376.70 1204.96   3
  24 -12   9 2217.48 1227.47   1
  12 -24   9 7644.49 1861.65   1
 -12 -12   9 4069.52 2168.36   1
 -24  12   9 6376.37 1453.41   4
 -24  12   9 5459.44 1575.05   2
 -12 -12   9 2652.56 1318.41   4
  12  12   9 3717.00 1384.32   3
 -12 -12   9 4921.09 1244.96   2
 -24  13  -7 238.615 707.117   4
  13  11  -4 14329.3 965.228   3
 -11 -13  -4 17230.9 1886.88   2
 -13  24  -4 15212.4 1780.89   3
 -24  13  -4 18277.0 1439.96   4
 -11 -13  -4 17101.9 1571.22   4
 -24  13  -4 14144.4 911.130   2
  13  11  -1 6658.28 761.262   3
 -11 -13  -1 6414.73 1243.68   2
 -13  24  -1 6663.13 1204.40   3
  11 -24  -1 7084.36 745.113   1
 -24  13  -1 8306.74 1236.00   4
 -24  13  -1 7531.19 919.034   2
 -11 -13  -1 8771.53 1372.46   4
  24 -11  -1 6469.68 1254.28   1
  11 -24   2 18396.0 1444.84   1
 -13  24   2 17160.4 1449.48   3
  24 -11   2 16602.2 1518.27   1
 -24  13   2 20063.8 1663.54   4
 -24  13   2 17736.9 1498.96   2
 -11 -13   2 21648.0 1808.34   4
  13  11   2 19523.3 1304.54   3
 -11 -13   2 16650.2 1487.50   2
 -13  24   5 7229.68 1189.05   3
  11 -24   5 5586.16 1466.22   1
 -24  13   5 9292.42 1398.52   4
 -24  13   5 9988.98 1472.38   2
 -11 -13   5 8662.78 1434.25   4
  13  11   5 10848.1 1328.68   3
 -11 -13   5 6468.69 1215.93   2
  24 -11   5 7713.37 1274.93   1
 -13  24   8 24777.6 1809.00   3
 -24  13   8 24188.2 2022.27   4
 -24  13   8 23574.3 2143.80   2
 -11 -13   8 27117.1 2041.59   4
  24 -11   8 18955.5 1704.84   1
  11 -24   8 28939.3 2535.38   1
 -11 -13   8 23730.0 1796.33   2
  13  11   8 24951.2 2043.32   3
 -24  14  -5 746.392 481.869   2
 -14  24  -5 2720.74 1405.49   3
 -24  14  -5 3100.92 930.091   4
 -10 -14  -5 1463.94 1011.50   4
  24 -10  -2 17586.5 1734.73   1
  24 -10  -2 12149.5 779.734   3
  14  10  -2 14160.1 894.355   3
 -10 -14  -2 13128.5 1611.81   2
 -14  24  -2 13613.9 1594.48   3
 -24  14  -2 14480.7 1400.51   4
  10 -24  -2 14575.5 809.389   1
 -24  14  -2 13625.2 1025.97   2
 -10 -14  -2 11616.3 1423.72   4
 -10 -14   1 1616.47 1000.78   2
 -14  24   1 1882.32 1029.55   3
  10 -24   1 636.510 782.599   1
 -24  14   1 1839.28 1042.95   4
 -24  14   1 1345.81 858.212   2
 -10 -14   1 1475.91 1006.25   4
  24 -10   1 1884.96 978.263   1
  14  10   1 882.283 710.990   3
 -10 -14   4 4315.09 1077.47   2
  24 -10   4 7280.38 1220.96   1
 -14  24   4 6019.76 1111.46   3
 -24  14   4 7731.20 1327.11   4
 -24  14   4 5896.54 1286.55   2
 -10 -14   4 7582.79 1390.86   4
  10 -24   4 6648.58 1447.22   1
  14  10   4 8022.97 1206.51   3
 -10 -14   7 2072.34 1032.23   2
  10 -24   7-678.730 1372.63   1
 -14  24   7 798.754 1066.40   3
  24 -10   7-3.05544 1019.35   1
 -24  14   7 1153.29 1116.00   4
 -24  14   7-340.448 1226.57   2
 -10 -14   7 1344.03 1088.39   4
  14  10   7 480.009 1121.33   3
 -24  15  -6 13907.8 1239.09   4
   9 -24  -3 838.448 247.474   1
  15   9  -3 1921.02 548.353   3
  -9 -15  -3 3007.03 1326.51   2
 -15  24  -3 3224.03 1402.06   3
 -24  15  -3 2849.90 930.970   4
  -9 -15  -3 4155.63 1163.74   4
 -24  15  -3 2466.07 637.969   2
  -9 -15   0 18920.9 1626.00   2
   9 -24   0 19803.0 1173.47   1
  24  -9   0 15313.6 1542.54   1
 -15  24   0 21604.1 1715.35   3
 -24  15   0 19328.2 1615.27   4
 -24  15   0 18757.8 1325.58   2
  -9 -15   0 22645.0 1840.02   4
  15   9   0 21054.2 1102.36   3
 -15  24   3 16912.7 1495.20   3
  24  -9   3 17229.5 1513.03   1
 -24  15   3 20258.8 1696.93   4
 -24  15   3 19311.5 1674.40   2
  -9 -15   3 21534.4 1770.05   4
   9 -24   3 18909.7 1652.93   1
  15   9   3 21388.7 1497.39   3
  -9 -15   3 16103.4 1536.28   2
 -15  24   6 24827.4 1745.12   3
 -24  15   6 25708.5 1952.96   4
 -24  15   6 24969.4 2074.90   2
  -9 -15   6 26339.5 1951.91   4
   9 -24   6 30366.0 2341.78   1
  15   9   6 26733.2 1978.83   3
  -9 -15   6 22886.9 1746.51   2
  15   9   6 17490.6 1449.61   1
  24  -9   6 21334.7 1699.83   1
  -9 -15   9 6599.96 1318.57   2
 -15  24   9 3785.86 1217.65   3
  24  -9   9 5226.66 1302.24   1
 -15  24   9 8344.91 1585.07   4
 -24  15   9 6466.66 1470.81   4
 -24  15   9 8137.35 1714.66   2
  -9 -15   9 8412.94 1548.50   4
   9 -24   9 10864.0 2091.58   1
  15   9   9 9148.70 1604.87   3
  -9 -15   9 8386.10 2395.27   1
 -24  16  -7 4811.55 914.025   4
  -8 -16  -4 17642.9 1953.92   2
 -16  24  -4 16705.0 1999.44   3
 -24  16  -4 19450.0 1510.50   4
  -8 -16  -4 22328.8 1810.03   4
 -24  16  -4 17942.4 845.100   2
  24  -8  -1 11084.3 864.758   3
  -8 -16  -1 11637.8 1555.92   2
   8 -24  -1 11967.0 839.464   1
 -16  24  -1 8411.38 1434.31   3
 -24  16  -1 11420.4 1338.59   4
 -24  16  -1 11382.9 1081.60   2
  -8 -16  -1 14092.3 1575.68   4
  24  -8  -1 12049.9 1521.50   1
  16   8  -1 13382.3 851.360   3
  -8 -16   2 24052.3 1733.12   2
 -16  24   2 24113.1 1705.83   3
 -24  16   2 28585.3 1971.40   4
 -24  16   2 24641.3 1742.49   2
  24  -8   2 22075.6 1674.78   1
  -8 -16   2 29729.0 2050.49   4
   8 -24   2 29153.1 1821.66   1
  16   8   2 29949.4 1591.92   3
  16   8   5 6075.90 1190.01   1
 -16  24   5 7411.44 1223.25   3
  -8 -16   5 6169.81 1176.89   2
 -24  16   5 5828.97 1009.68   3
 -24  16   5 8034.61 1363.36   4
 -24  16   5 7802.32 1480.14   2
  -8 -16   5 7566.66 1337.76   4
  24  -8   5 4807.15 1190.50   1
  16   8   5 7791.52 1290.17   3
   8 -24   5 6963.81 1558.92   1
  -8 -16   8 7201.10 1273.43   2
 -16  24   8 8045.51 1318.71   3
 -16  24   8 12217.2 1784.17   4
  -8 -16   8 11589.9 2613.23   1
 -24  16   8 9678.84 1501.01   4
  24  -8   8 7003.38 1324.09   1
 -24  16   8 9998.21 1683.29   2
  -8 -16   8 10390.9 1560.05   4
  16   8   8 10070.9 1607.16   3
   8 -24   8 9033.89 1858.32   1
 -24  17  -5 5924.23 1050.98   4
  17   7  -2 221.612 478.042   3
  -7 -17  -2-93.9680 1244.32   2
 -17  24  -2-1303.78 1272.02   3
 -24  17  -2 1595.98 969.562   4
 -24  17  -2 1011.72 661.280   2
  -7 -17  -2 740.788 1082.99   4
  24  -7  -2 1036.68 1214.11   1
   7 -24  -2 890.677 405.040   1
   7 -24   1 2350.00 929.862   1
  -7 -17   1 1437.00 1109.44   2
 -17  24   1-509.846 1036.27   3
 -24  17   1 2536.58 1083.02   4
 -24  17   1 1892.11 933.921   2
  24  -7   1 775.972 1027.84   1
  -7 -17   1 2092.27 1175.91   4
  17   7   1 2405.11 755.123   3
  -7 -17   4 12358.0 1447.10   2
 -17  24   4 13019.8 1444.79   3
  17   7   4 9947.52 1345.93   1
 -24  17   4 9956.34 1157.42   3
  24  -7   4 9084.14 1346.24   1
 -24  17   4 13254.2 1544.46   4
 -24  17   4 13708.0 1531.43   2
  -7 -17   4 13392.1 1526.44   4
   7 -24   4 12738.7 1631.69   1
  17   7   4 10928.2 1369.70   3
  -7 -17   7 2569.05 1137.82   2
 -17  24   7 3974.07 1184.43   3
 -24  17   7 4009.52 1276.70   4
  -7 -17   7 6370.93 2230.48   1
 -24  17   7 3624.72 1392.28   2
  24  -7   7 2205.12 1157.27   1
 -17  24   7 3044.55 1441.69   4
  -7 -17   7 4252.79 1270.17   4
  17   7   7 2640.79 1148.15   1
  17   7   7 2893.49 1271.10   3
   7 -24   7 4690.42 1680.62   1
 -24  18  -6 23978.1 1531.00   4
 -18  24  -3 4959.09 1503.05   3
  -6 -18  -3 4706.21 1478.94   2
 -24  18  -3 4370.94 1116.94   4
 -24  18  -3 5572.38 709.742   2
  -6 -18  -3 5440.56 1333.48   4
  -6 -18   0 34294.6 2201.28   2
 -18  24   0 33368.8 2119.82   3
 -24  18   0 37514.8 2128.85   4
 -24  18   0 37066.1 1793.91   2
  24  -6   0 30626.9 2051.75   1
  -6 -18   0 37828.7 2238.98   4
   6 -24   0 35418.4 1539.06   1
  18   6   0 37488.8 1366.77   3
  -6 -18   3 5871.22 1238.18   2
 -18  24   3 4992.88 1173.42   3
 -24  18   3 5466.09 1110.10   3
 -24  18   3 8841.42 1426.40   4
 -24  18   3 7340.34 1331.76   2
  -6 -18   3 4915.19 1266.91   4
  24  -6   3 5895.75 1209.65   1
  18   6   3 4127.15 1069.61   3
   6 -24   3 4629.77 1330.84   1
 -18  24   6 16704.8 1586.72   3
  24  -6   6 11897.1 1466.27   1
 -24  18   6 14185.1 1315.99   3
  18   6   6 13976.6 1466.45   1
  -6 -18   6 17567.8 2370.03   1
 -24  18   6 17303.8 1722.93   4
 -24  18   6 20037.4 2021.99   2
   6 -24   6 18293.1 2074.19   1
  -6 -18   6 17163.7 1765.39   4
  18   6   6 19736.0 1798.09   3
  -6 -18   6 14557.1 1501.39   2
 -18  24   9 7635.74 1407.20   3
  -6 -18   9 5009.14 1273.67   2
 -18  24   9 7295.19 1559.47   4
 -18  24   9 6870.64 2152.90   2
 -24  18   9 11031.5 1680.35   4
 -24  18   9 10172.3 1905.93   2
  24  -6   9 6513.66 1520.83   1
  -6 -18   9 9487.20 2639.64   1
  -6 -18   9 9059.80 1626.99   4
  24  -6   9 11122.8 2289.52   3
  18   6   9 8580.82 1703.56   3
   6 -24   9 8322.74 2008.74   1
 -19  24  -7 11487.4 1356.47   4
 -24  19  -7 9306.82 1111.44   4
 -19  24  -4 10692.3 866.819   2
 -24  19  -4 10481.7 1293.70   4
 -24  19  -4 10854.5 635.163   2
  -5 -19  -1 15177.6 1796.03   2
 -19  24  -1 14374.6 1793.78   3
  24  -5  -1 15662.8 1794.47   1
 -24  19  -1 14061.5 1513.71   4
 -24  19  -1 14331.8 1202.06   2
  -5 -19  -1 17908.4 1752.55   4
  24  -5  -1 16413.9 1097.17   3
  19   5  -1 15266.6 829.046   3
   5 -24  -1 16242.2 957.729   1
 -19  24   2 6246.63 1261.49   3
  -5 -19   2 6253.63 1302.96   2
 -24  19   2 4725.97 1197.57   3
 -24  19   2 4479.36 1223.07   4
  -5 -19   2 5748.02 1518.76   1
 -24  19   2 3568.43 1131.89   2
  24  -5   2 5758.74 1309.58   1
   5 -24   2 5341.06 1300.78   1
  -5 -19   2 5365.35 1202.35   4
  19   5   2 5067.03 1014.68   3
  19   5   5 3605.13 1209.37   1
  -5 -19   5 5208.56 1254.78   2
 -19  24   5 4424.86 1133.64   3
  24  -5   5 5057.14 1244.90   1
 -24  19   5 5631.45 1110.93   3
   5 -24   5 4937.11 1338.14   2
 -24  19   5 4777.82 1230.99   4
  -5 -19   5 7019.93 1834.72   1
 -24  19   5 4756.95 1444.15   2
  -5 -19   5 5751.31 1320.96   4
   5 -24   5 5116.85 1621.55   1
  19   5   5 5551.33 1290.28   3
  -5 -19   8 5055.33 1247.73   2
 -19  24   8 4996.98 1243.76   3
  19   5   8 4773.48 1277.60   1
 -19  24   8 6656.69 1605.84   4
 -24  19   8 7668.77 1510.54   4
 -19  24   8 6439.16 2040.58   2
 -24  19   8 7423.93 1721.16   2
  -5 -19   8 8472.85 2369.84   1
  -5 -19   8 9247.97 1582.46   4
  24  -5   8 5367.36 1327.68   1
  24  -5   8 4722.50 1851.45   3
  19   5   8 7407.04 1548.55   3
   5 -24   8 6900.07 2078.91   1
 -24  20  -5 4177.06 1056.17   4
  20   4  -2 4349.97 448.837   3
  -4 -20  -2 4696.41 954.062   1
   4 -24  -2 4415.37 468.663   1
 -20  24  -2 1989.55 1370.42   3
  -4 -20  -2 5387.99 1510.41   2
 -20  24  -2 8868.99 1193.87   2
 -24  20  -2 3850.36 1135.56   4
 -24  20  -2 5861.42 876.979   2
  -4 -20  -2 6700.76 1402.54   4
  24  -4  -2 4040.80 382.931   3
  -4 -20   1 10419.7 1539.79   2
 -20  24   1 7289.06 1428.84   3
 -24  20   1 10015.7 1492.41   3
 -20  24   1 8874.17 1469.22   2
  -4 -20   1 11888.5 1594.19   1
 -24  20   1 8873.92 1383.93   4
 -24  20   1 8379.40 1284.90   2
  24  -4   1 9608.11 1487.88   1
   4 -24   1 9100.16 1284.69   1
  -4 -20   1 11474.8 1539.47   4
  24  -4   1 11454.7 1264.16   3
  20   4   1 10399.7 1077.87   3
 -20  24   4 2415.46 1131.93   3
  -4 -20   4 3279.51 1227.73   2
 -20  24   4 4550.65 1473.51   4
 -24  20   4 2822.98 1137.38   3
   4 -24   4 4712.46 1370.92   2
 -20  24   4 2345.50 1508.85   2
 -24  20   4 4526.65 1311.60   4
  20   4   4 4303.83 1295.54   1
 -24  20   4 3066.76 1258.57   2
  -4 -20   4 2876.17 1637.76   1
  -4 -20   4 5175.34 1315.36   4
  24  -4   4 3612.58 1302.66   3
  24  -4   4 3691.31 1237.72   1
   4 -24   4 4039.44 1483.78   1
  20   4   4 3835.72 1138.58   3
  24  -4   7 4727.30 1278.76   1
  -4 -20   7 3119.45 1134.04   2
 -20  24   7 2951.90 1150.78   3
   4 -24   7 1316.52 1124.43   2
 -20  24   7 4671.50 1469.34   4
 -20  24   7 4945.17 1811.28   2
 -24  20   7 4358.75 1291.56   4
  20   4   7 2726.49 1165.49   1
 -24  20   7 3009.09 1520.25   2
  -4 -20   7 5964.71 2213.90   1
  -4 -20   7 4401.88 1394.12   4
  24  -4   7 4793.46 1638.79   3
   4 -24   7 5451.77 1808.05   1
  20   4   7 4485.81 1382.59   3
 -21  24  -6 16959.9 1543.53   4
 -24  21  -6 15951.8 1460.42   4
 -24  21  -3 4512.76 1193.10   4
 -21  24  -3 3394.47 853.810   2
 -24  21  -3 1726.54 623.811   2
  -3 -21   0 32261.3 2291.73   2
  24  -3   0 34113.8 2315.67   1
 -21  24   0 29097.6 2159.01   3
 -24  21   0 30783.7 2161.23   3
 -21  24   0 37939.4 2143.68   2
 -24  21   0 30938.3 2049.75   4
  -3 -21   0 28254.9 1831.51   1
 -24  21   0 29547.7 1782.34   2
   3 -24   0 36005.8 1710.73   1
  -3 -21   0 35363.2 2355.73   4
  24  -3   0 39864.4 1682.77   3
  21   3   0 37443.8 1413.50   3
 -21  24   3 2058.51 1163.55   3
  -3 -21   3 3468.42 1276.72   2
 -24  21   3 3603.94 1227.05   3
   3 -24   3 4035.80 1365.51   2
 -21  24   3 9159.74 1649.52   2
 -21  24   3 4262.22 1370.78   4
 -24  21   3 2362.85 1236.23   4
 -24  21   3 3620.39 1362.14   2
  24  -3   3 2423.08 1222.40   1
  -3 -21   3 2501.83 1578.10   1
  -3 -21   3 4659.18 1320.98   4
   3 -24   3 4490.46 1435.22   1
  24  -3   3 4367.38 1197.50   3
  21   3   3 4156.56 1113.51   3
  21   3   3 1171.94 1234.41   1
  21   3   6 35208.8 2186.73   1
  -3 -21   6 31172.4 2041.10   2
 -21  24   6 30657.1 1916.78   3
 -24  21   6 32574.3 1913.22   3
   3 -24   6 29834.1 2017.26   2
 -21  24   6 43529.5 2678.33   4
 -21  24   6 42224.6 3032.87   2
 -24  21   6 37960.4 2442.24   4
 -24  21   6 39932.6 2795.23   2
  -3 -21   6 43549.0 3251.89   1
  24  -3   6 33695.5 2160.32   1
   3 -24   6 45028.9 3012.13   1
  -3 -21   6 39363.4 2420.36   4
  24  -3   6 47469.4 2853.79   3
  21   3   6 40006.4 2362.63   3
 -22  24  -7 4487.55 1112.20   4
 -24  22  -7 3252.82 989.445   4
 -22  24  -4 4758.82 1198.06   4
 -24  22  -4 2751.78 1073.26   4
  -2 -22  -1 10710.9 1725.31   2
 -22  24  -1 9138.48 1616.71   3
 -22  24  -1 14143.4 1658.57   4
 -24  22  -1 11505.9 1491.29   4
 -22  24  -1 13109.9 1391.43   2
  -2 -22  -1 11081.1 1236.96   1
 -24  22  -1 11256.3 1196.45   2
   2 -24  -1 10241.5 959.026   1
  24  -2  -1 11161.1 795.314   3
  22   2  -1 11896.2 735.530   3
  24  -2   2 4518.42 1361.82   1
 -22  24   2 5506.09 1415.33   4
 -22  24   2 4892.87 1298.16   3
  -2 -22   2 5121.63 1366.36   2
 -24  22   2 6004.97 1373.15   3
   2 -24   2 1609.34 1301.56   2
 -22  24   2 7176.89 1577.68   2
 -24  22   2 5472.54 1361.44   4
 -24  22   2 7745.77 1434.01   2
  -2 -22   2 6670.30 1530.72   1
  -2 -22   2 3440.16 1290.22   4
  24  -2   2 7369.45 1227.17   3
   2 -24   2 2637.79 1322.49   1
  22   2   2 5119.61 1064.24   3
  22   2   2 4427.15 1370.67   1
  24  -2   5 2363.05 1236.53   1
 -22  24   5 581.119 1074.11   3
  -2 -22   5 2833.10 1236.57   2
 -24  22   5 2081.14 1158.05   3
   2 -24   5 2629.09 1225.80   2
 -22  24   5 4370.04 1469.30   4
 -24  22   5 3344.02 1319.85   4
 -22  24   5 2869.27 1602.94   2
 -24  22   5 3647.23 1509.21   2
  -2 -22   5 1985.21 1781.74   1
  -2 -22   5 4917.27 1366.81   4
  22   2   5 2624.52 1239.85   1
   2 -24   5 5177.48 1748.21   1
  24  -2   5 4296.14 1372.76   3
  22   2   5 4261.07 1283.07   3
 -22  24   8 2276.31 1128.90   3
  -2 -22   8 1171.07 1174.45   2
  24  -2   8 4139.79 1413.10   1
 -22  24   8 920.311 1356.76   4
 -24  22   8 1487.80 1398.31   4
 -22  24   8 6389.69 1967.98   2
 -24  22   8 3747.97 1814.18   2
  -2 -22   8 6870.32 2339.08   1
   2 -24   8 3456.56 2026.24   1
  24  -2   8 5359.48 1762.58   3
  22   2   8 3398.94 1484.06   3
  22   2   8 1167.13 1265.07   1
 -23  24  -5 4296.51 1145.55   4
 -24  23  -5 4734.61 1143.41   4
 -23  24  -2 1237.89 1449.83   3
 -23  24  -2 2642.54 1220.04   4
 -24  23  -2 3317.97 1185.96   4
 -23  24  -2 2892.94 905.702   2
 -24  23  -2 3857.15 857.075   2
  -1 -23  -2 2096.41 625.241   1
 -23  24   1 4068.88 1400.76   3
 -24  23   1 3687.13 1270.79   3
  -1 -23   1 2648.17 1363.47   2
   1 -24   1 5456.94 1620.93   2
 -24  23   1 4075.50 1235.79   4
 -23  24   1 3215.07 1266.08   2
 -24  23   1 4961.15 1280.64   2
  -1 -23   1 4243.57 1300.84   1
 -23  24   1 6067.74 1383.61   4
   1 -24   1 4905.25 1228.83   1
  24  -1   1 2855.71 1430.61   1
  24  -1   1 3432.78 936.198   3
  23   1   1 4927.47 970.809   3
  23   1   4-372.759 1186.28   1
 -23  24   4 1453.68 1139.61   3
 -24  23   4-631.250 1058.02   3
  -1 -23   4 1912.89 1245.35   2
   1 -24   4 1676.62 1244.74   2
 -23  24   4 1679.45 1272.23   4
 -24  23   4 1494.36 1214.86   4
 -23  24   4 146.322 1329.30   2
 -24  23   4 2200.06 1498.63   2
  -1 -23   4 645.575 1444.87   1
  24  -1   4 3477.73 1322.37   1
   1 -24   4 134.470 1456.49   1
  24  -1   4 2378.02 1227.63   3
  23   1   4 1575.78 1161.61   3
  23   1   7 6508.47 1469.82   1
 -23  24   7 5400.16 1228.30   3
 -24  23   7 5473.40 1267.07   3
  -1 -23   7 3054.23 1197.80   2
   1 -24   7 3462.56 1286.22   2
 -24  23   7 10615.8 1733.06   4
 -23  24   7 6495.87 1642.47   4
 -23  24   7 6307.18 1874.29   2
 -24  23   7 5562.21 1791.72   2
  24  -1   7 3975.39 1410.01   1
  -1 -23   7 6647.48 2051.34   1
   1 -24   7 4484.87 1914.55   1
  24  -1   7 4509.78 1579.85   3
  23   1   7 7407.53 1638.17   3
 -24  24  -6 37701.3 2124.77   4
 -24  24  -3 2538.39 1126.44   4
 -24  24  -3 124.363 666.230   2
 -24  24   0 33735.3 2285.83   4
 -24  24   0 32636.4 2026.62   2
   0 -24   0 33134.4 1858.07   1
  24   0   0 35639.4 1478.58   3
 -24  24   3-406.963 1183.38   3
   0 -24   3 987.794 1305.65   2
  24   0   3 1144.70 1288.74   1
 -24  24   3 1493.50 1317.92   4
 -24  24   3 755.065 1293.07   2
   0 -24   3 316.486 1348.46   1
  24   0   3 2835.24 1197.81   3
 -24  24   6 6919.12 1361.76   3
   0 -24   6 7029.99 1479.24   2
 -24  24   6 9160.06 1675.27   4
 -24  24   6 8628.62 1906.26   2
  24   0   6 8117.81 1529.64   1
   0 -24   6 10657.6 2083.47   1
  24   0   6 6917.60 1590.12   3
 -25   0  -7-2283.62 1498.88   2
 -25   0  -7-269.234 982.714   4
 -25   0  -4 7631.66 1349.45   2
  25 -25  -4 6269.01 1426.17   1
   0  25  -4 8427.22 1588.28   3
 -25   0  -4 10663.2 1432.69   4
 -25   0  -1-885.075 995.182   2
   0  25  -1-409.317 999.704   3
  25 -25  -1 1065.43 995.016   1
 -25   0  -1-1003.12 1057.22   4
   0  25   2 10967.1 1392.06   3
 -25   0   2 14077.5 1670.70   4
 -25   0   2 9810.33 1351.31   2
  25 -25   2 10069.0 1367.54   1
   0  25   5 2522.35 1153.95   3
 -25   0   5 571.581 1186.14   4
 -25   0   5 812.339 1079.79   2
  25 -25   5-1431.67 1206.97   1
 -25   1  -5 9238.35 1408.79   2
 -24  -1  -5 6620.02 1395.07   2
   1  24  -5 5507.10 1630.21   3
  -1  25  -5 6183.02 1536.97   3
 -25   1  -5 10363.8 1394.32   4
 -24  -1  -5 6393.37 1312.57   4
 -24  -1  -2 6534.20 1165.91   2
   1  24  -2 8754.54 1322.93   3
  -1  25  -2 7469.64 1382.51   3
 -25   1  -2 11365.5 1436.03   4
 -24  -1  -2 11028.3 1476.03   4
  24 -25  -2 10371.6 1369.08   1
  25 -24  -2 10325.6 1397.17   1
 -25   1  -2 9413.22 1228.44   2
  25 -24   1 9724.72 1289.54   1
   1  24   1 8635.75 1260.16   3
  -1  25   1 8031.84 1268.02   3
 -25   1   1 10609.1 1518.20   4
 -24  -1   1 14012.7 1577.09   4
 -25   1   1 11167.0 1341.73   2
 -24  -1   1 9407.48 1274.69   2
  24 -25   1 8674.60 1248.70   1
   1  24   4 2287.18 1113.29   3
  25 -24   4 2350.61 1097.31   1
  -1  25   4 327.842 1025.72   3
 -25   1   4 1735.37 1235.78   4
 -24  -1   4 2196.33 1208.67   4
 -25   1   4 880.949 1001.10   2
 -24  -1   4 1702.09 1017.79   2
  24 -25   4 330.668 992.292   1
   1  24   7 912.932 1224.08   3
 -25   1   7 1888.80 1353.39   4
 -24  -1   7 1692.93 1324.22   4
  24 -25   7 1306.09 1250.53   1
 -25   1   7 49.4954 1207.05   2
  25 -24   7 2550.58 1309.26   1
 -24  -1   7 1928.44 1319.15   2
 -25   2  -6 130.128 1213.09   2
 -23  -2  -6 2088.63 1310.50   2
   2  23  -6-418.750 1403.41   3
  -2  25  -6-1381.32 1544.29   3
 -25   2  -6 2168.76 1007.96   4
 -23  -2  -6 2074.19 1046.00   4
 -23  -2  -3 20573.2 1658.11   2
  23 -25  -3 26653.0 1830.07   1
   2  23  -3 23821.4 1805.14   3
  -2  25  -3 24371.0 1910.49   3
  25 -23  -3 26410.5 1945.13   1
 -25   2  -3 31694.6 1965.06   4
 -23  -2  -3 29643.0 1969.02   4
 -25   2  -3 25094.3 1684.76   2
  23 -25   0 9642.72 1170.41   1
   2  23   0 13630.0 1345.56   3
  -2  25   0 9290.23 1289.49   3
  25 -23   0 9058.97 1303.19   1
 -25   2   0 14344.6 1606.52   4
 -23  -2   0 13568.8 1558.99   4
 -25   2   0 10160.8 1253.22   2
 -23  -2   0 10989.4 1343.37   2
   2  23   3 22566.7 1658.74   3
  -2  25   3 19173.5 1599.47   3
 -23  -2   3 22317.8 1859.72   4
  23 -25   3 20550.6 1627.82   1
  25 -23   3 22478.2 1719.19   1
 -25   2   3 20788.8 1696.88   2
 -23  -2   3 20146.8 1699.50   2
  -2  25   6 9264.79 1408.58   3
   2  23   6 6852.54 1375.88   3
  23 -25   6 8372.26 1538.95   1
 -25   2   6 9026.90 1614.29   4
 -23  -2   6 8849.17 1601.10   4
 -25   2   6 9366.84 1510.46   2
 -23  -2   6 7592.62 1429.11   2
  25 -23   6 4491.81 1325.92   1
 -25   3  -7 1307.83 926.262   4
 -22  -3  -7-50.1792 972.186   4
 -25   3  -4 6017.63 1113.61   2
 -22  -3  -4 2035.99 1092.78   2
   3  22  -4 2016.84 1195.59   3
  -3  25  -4 6574.98 1465.18   3
  25 -22  -4 2691.80 1252.73   1
 -25   3  -4 4680.11 1085.35   4
 -22  -3  -4 6680.43 1249.76   4
  22 -25  -4 5491.91 1204.81   1
 -22  -3  -1 494.717 977.610   2
   3  22  -1 758.492 922.946   3
  -3  25  -1 1982.60 1033.33   3
  25 -22  -1 323.611 995.790   1
 -25   3  -1-525.021 1023.70   4
 -22  -3  -1-583.868 1105.81   4
  22 -25  -1 1429.73 890.562   1
 -25   3  -1 563.785 852.100   2
   3  22   2 5599.86 1102.58   3
  22 -25   2 4026.66 1046.06   1
  -3  25   2 5521.85 1178.78   3
  25 -22   2 4638.54 1089.46   1
 -25   3   2 5214.01 1298.26   4
 -22  -3   2 3551.41 1214.03   4
 -25   3   2 5801.14 1165.30   2
 -22  -3   2 4158.68 1077.18   2
  25 -22   5 3905.83 1221.31   1
   3  22   5 4008.92 1097.48   3
  -3  25   5 2673.72 1136.57   3
 -25   3   5 2708.43 1266.56   4
 -22  -3   5 2167.22 1195.84   4
  22 -25   5 3006.35 1132.79   1
 -25   3   5 3360.08 1228.83   2
 -22  -3   5 3180.99 1152.03   2
   3  22   8 3781.43 1361.23   3
  -3  25   8 2631.29 1304.85   3
 -25   3   8 4920.21 1545.17   4
 -22  -3   8 4431.03 1466.48   4
  22 -25   8 2495.55 1435.37   1
 -25   3   8 5024.73 1444.68   2
  25 -22   8 3150.83 1406.90   1
 -22  -3   8 1508.82 1289.92   2
 -25   4  -5 4642.49 1120.18   2
 -21  -4  -5 5065.85 1340.74   2
   4  21  -5 7359.98 1501.70   3
  -4  25  -5 3584.39 1437.46   3
 -25   4  -5 5223.44 1109.43   4
 -21  -4  -5 5486.28 1212.80   4
   4  21  -2 10251.5 1253.39   3
  -4  25  -2 11761.1 1441.51   3
  21 -25  -2 12803.9 1280.90   1
 -25   4  -2 11774.7 1463.74   4
 -21  -4  -2 11814.9 1440.69   4
 -25   4  -2 10912.2 1184.14   2
  25 -21  -2 9330.53 1398.87   1
 -21  -4  -2 11228.9 1357.82   2
   4  21   1 7236.61 1098.04   3
  -4  25   1 9297.33 1244.74   3
 -25   4   1 9787.55 1415.64   4
 -21  -4   1 9880.35 1451.19   4
  21 -25   1 8636.03 1116.26   1
  25 -21   1 6729.08 1161.21   1
 -25   4   1 7768.87 1180.94   2
 -21  -4   1 7811.33 1228.86   2
  -4  25   4 14854.2 1480.54   3
  21 -25   4 13724.2 1508.04   1
 -25   4   4 17946.3 1771.75   4
 -21  -4   4 14665.3 1631.62   4
  25 -21   4 14078.7 1492.05   1
 -25   4   4 16088.3 1579.31   2
 -21  -4   4 15460.7 1542.92   2
   4  21   4 12049.0 1370.78   3
   4  21   7 7269.71 1342.50   3
  -4  25   7 2446.88 1183.92   3
 -25   4   7 6809.81 1515.87   4
  21 -25   7 6274.23 1478.43   1
 -21  -4   7 4956.08 1377.00   4
 -25   4   7 6996.56 1516.85   2
 -21  -4   7 4142.23 1311.77   2
  25 -21   7 1640.10 1236.28   1
 -25   5  -6 1448.12 1019.13   2
 -20  -5  -6 1758.92 1399.21   2
   5  20  -6 2645.64 1331.90   3
  -5  25  -6 1584.97 1508.35   3
 -25   5  -6 3990.33 1024.04   4
 -20  -5  -6 5299.26 1211.96   4
 -20  -5  -3 26483.9 1863.72   2
   5  20  -3 31769.3 1807.47   3
  -5  25  -3 29427.2 2018.69   3
  25 -20  -3 27656.3 2032.59   1
 -25   5  -3 34215.7 1985.46   4
 -20  -5  -3 33271.9 2024.92   4
  20 -25  -3 26605.1 1601.30   1
 -25   5  -3 28481.2 1574.35   2
   5  20   0 15714.2 1302.79   3
  -5  25   0 12560.7 1364.18   3
  25 -20   0 12471.8 1378.58   1
 -25   5   0 14343.1 1517.80   4
 -20  -5   0 17377.5 1709.10   4
 -25   5   0 13530.9 1292.05   2
  20 -25   0 13195.9 1215.80   1
 -20  -5   0 13865.7 1366.73   2
  -5  25   3 25306.4 1714.04   3
  20 -25   3 25455.2 1700.06   1
 -25   5   3 32821.9 2133.05   4
 -20  -5   3 30850.6 2085.71   4
 -25   5   3 28503.2 1841.82   2
  25 -20   3 25487.9 1775.23   1
 -20  -5   3 24664.1 1765.03   2
   5  20   3 24309.5 1583.76   3
  -5  25   6 11624.1 1452.91   3
  20 -25   6 10404.5 1543.63   1
 -25   5   6 12633.3 1647.75   4
 -20  -5   6 13222.4 1644.60   4
  25 -20   6 10973.7 1512.03   1
 -25   5   6 11992.8 1581.99   2
 -20  -5   6 13272.0 1582.30   2
   5  20   6 13509.2 1537.38   3
 -25   6  -7 1978.70 889.821   4
 -19  -6  -7 1929.73 1001.43   4
   6  19  -4 5777.12 1223.46   3
 -19  -6  -4 5641.34 1285.53   2
  -6  25  -4 3133.61 1265.50   3
  19 -25  -4 3507.37 968.072   1
 -25   6  -4 6550.48 1157.82   4
 -19  -6  -4 6961.87 1249.40   4
  25 -19  -4 3714.61 1329.76   1
 -25   6  -4 5182.67 958.213   2
 -19  -6  -1 2737.39 1057.72   2
   6  19  -1 4242.55 965.916   3
  -6  25  -1 3942.67 1165.95   3
 -25   6  -1 3200.60 1079.99   4
 -19  -6  -1 4475.21 1201.36   4
  25 -19  -1 4206.46 1173.06   1
 -25   6  -1 2627.49 837.076   2
  19 -25  -1 4674.01 907.607   1
   6  19   2 1654.69 880.060   3
  -6  25   2-282.643 947.698   3
 -25   6   2 2172.27 1094.17   4
  25 -19   2-1647.61 967.806   1
 -19  -6   2 133.851 1014.02   4
 -25   6   2 2258.55 987.823   2
  19 -25   2 1945.70 918.770   1
 -19  -6   2-412.336 875.622   2
  -6  25   5 5032.59 1162.18   3
  25 -19   5 5322.56 1167.34   1
  19 -25   5 8404.04 1426.89   1
 -25   6   5 7546.82 1396.20   4
 -19  -6   5 8356.68 1401.56   4
 -25   6   5 7983.15 1340.64   2
 -19  -6   5 8435.95 1343.03   2
   6  19   5 7570.64 1222.14   3
  -6  25   8 4603.27 1287.37   3
  19 -25   8 4149.91 1457.03   1
 -25   6   8 3745.84 1462.81   4
 -19  -6   8 5545.45 1449.01   4
 -25   6   8 5069.25 1461.67   2
 -19  -6   8 3165.88 1256.60   2
  25 -19   8 2234.08 1398.45   1
   6  19   8 3429.06 1296.21   3
 -18  -7  -8 7895.96 1226.61   4
 -25   7  -5 5793.67 1039.00   2
 -18  -7  -5 8794.67 1544.54   2
   7  18  -5 8611.86 1388.87   3
  -7  25  -5 9213.75 1675.64   3
 -25   7  -5 10710.6 1226.60   4
 -18  -7  -5 11291.4 1424.55   4
 -18  -7  -2 8704.27 1334.42   2
  25 -18  -2 12557.9 1540.23   1
   7  18  -2 10737.7 1123.83   3
  -7  25  -2 10612.9 1388.81   3
  18 -25  -2 10164.8 1067.57   1
 -25   7  -2 11209.0 1376.09   4
 -18  -7  -2 11222.8 1413.21   4
 -25   7  -2 10636.9 1099.17   2
   7  18   1 24063.7 1463.15   3
  -7  25   1 19667.4 1582.79   3
  25 -18   1 20933.7 1590.35   1
 -25   7   1 28490.0 1963.68   4
  18 -25   1 23620.2 1445.79   1
 -18  -7   1 25499.0 1919.63   4
 -25   7   1 20508.3 1479.42   2
 -18  -7   1 21162.2 1602.14   2
  -7  25   4 11809.9 1356.80   3
  18 -25   4 16689.7 1610.02   1
 -25   7   4 12200.1 1558.46   4
 -18  -7   4 14187.2 1586.17   4
 -25   7   4 13758.0 1493.20   2
  25 -18   4 9233.80 1326.57   1
 -18  -7   4 10641.0 1344.55   2
   7  18   4 13710.9 1389.83   3
  -7  25   7 10489.9 1432.46   3
  18 -25   7 11208.0 1711.14   1
 -25   7   7 10822.6 1620.06   4
  25 -18   7 10439.0 1517.77   1
 -18  -7   7 11974.6 1605.02   4
 -25   7   7 11564.3 1666.14   2
 -18  -7   7 8934.40 1396.90   2
   7  18   7 8710.62 1475.07   3
 -25   8  -6 2782.94 983.073   2
 -17  -8  -6 1520.33 1424.32   2
  -8  25  -6 3315.66 1645.72   3
 -25   8  -6 4382.10 995.616   4
 -17  -8  -6 6482.56 1241.91   4
 -17  -8  -3 38434.7 2161.10   2
   8  17  -3 41318.5 1836.06   3
  -8  25  -3 44484.6 2459.02   3
 -25   8  -3 45201.6 2154.82   4
 -17  -8  -3 48127.6 2319.34   4
  17 -25  -3 37864.1 1606.37   1
  25 -17  -3 38836.3 2292.68   1
 -25   8  -3 38468.4 1639.47   2
  17 -25   0 2819.31 818.353   1
 -17  -8   0 3311.88 1079.21   2
   8  17   0 1885.99 799.322   3
  -8  25   0 2532.73 1075.79   3
  25 -17   0 2316.93 1131.33   1
 -25   8   0 3281.45 1108.38   4
 -17  -8   0 3556.65 1167.33   4
 -25   8   0 2459.03 873.481   2
  -8  25   3 18742.9 1515.27   3
  17 -25   3 20459.9 1584.27   1
 -25   8   3 20546.8 1791.95   4
 -17  -8   3 20684.1 1823.91   4
 -25   8   3 20345.5 1605.82   2
 -17  -8   3 19771.9 1558.39   2
  25 -17   3 18243.5 1551.89   1
   8  17   3 17842.7 1397.41   3
  -8  25   6 6983.64 1305.73   3
  17 -25   6 8803.44 1549.05   1
 -25   8   6 8969.83 1506.76   4
 -17  -8   6 7952.29 1428.89   4
 -25   8   6 7594.60 1463.81   2
  25 -17   6 9375.74 1429.38   1
 -17  -8   6 7297.52 1274.57   2
   8  17   6 8401.25 1343.29   3
 -25   9  -7 5551.74 972.153   4
 -16  -9  -7 3867.90 1093.60   4
 -25   9  -4 1307.33 712.728   2
   9  16  -4 2435.67 936.867   3
 -16  -9  -4 2499.70 1240.11   2
  -9  25  -4 1789.29 1362.28   3
 -25   9  -4 1834.98 960.449   4
  16 -25  -4 2103.14 713.486   1
 -16  -9  -4 4137.77 1252.91   4
   9  16  -1 5519.43 882.358   3
 -16  -9  -1 5735.72 1227.76   2
  -9  25  -1 6362.95 1239.83   3
  25 -16  -1 5848.97 1202.26   1
 -25   9  -1 7319.57 1246.50   4
 -16  -9  -1 8145.71 1331.36   4
 -25   9  -1 7198.96 989.751   2
  16 -25  -1 6966.00 895.759   1
 -16  -9   2 4175.68 1063.70   2
   9  16   2 3184.37 881.903   3
  -9  25   2 2472.57 1029.46   3
 -25   9   2 2850.57 1117.10   4
  16 -25   2 4302.08 1044.74   1
 -16  -9   2 4932.66 1197.58   4
 -25   9   2 3190.73 1008.57   2
  25 -16   2 3617.97 1064.17   1
  -9  25   5 8432.86 1278.92   3
  16 -25   5 10083.4 1501.75   1
 -25   9   5 9771.30 1486.67   4
 -25   9   5 10755.3 1491.76   2
 -16  -9   5 6985.06 1301.81   4
  25 -16   5 6950.46 1244.38   1
 -16  -9   5 7480.14 1238.58   2
   9  16   5 8695.32 1300.24   3
  25 -16   8 1653.86 1193.63   1
  -9  25   8 574.285 1075.24   3
  16 -25   8 2774.32 1414.13   1
 -25   9   8 3188.71 1339.73   4
 -16  -9   8 2388.88 1241.36   4
 -25   9   8 4966.90 1531.85   2
 -16  -9   8 1913.64 1100.31   2
   9  16   8 2045.85 1227.35   3
 -15 -10  -8 3089.18 1165.18   4
 -25  10  -5 17496.5 1212.79   2
 -15 -10  -5 16469.8 1933.49   2
  10  15  -5 17569.2 1398.52   3
 -10  25  -5 18391.4 2046.35   3
 -25  10  -5 22083.1 1538.45   4
 -15 -10  -5 24254.4 1832.59   4
  15 -25  -2 22585.8 1191.31   1
 -15 -10  -2 22789.8 1783.85   2
  10  15  -2 21489.1 1258.98   3
 -10  25  -2 19252.8 1715.18   3
  25 -15  -2 21428.9 1798.16   1
 -25  10  -2 24237.0 1747.42   4
 -15 -10  -2 26868.0 1905.71   4
 -25  10  -2 21206.1 1285.54   2
 -10  25   1 8628.54 1235.06   3
  15 -25   1 12109.4 1141.75   1
  25 -15   1 11653.5 1386.33   1
 -25  10   1 11311.3 1417.18   4
 -15 -10   1 11581.1 1483.48   4
 -25  10   1 12996.9 1304.74   2
 -15 -10   1 10984.2 1314.78   2
  10  15   1 12289.3 1136.07   3
 -10  25   4 14925.3 1434.09   3
  15 -25   4 16329.2 1614.56   1
 -25  10   4 14596.9 1567.60   4
 -25  10   4 15694.1 1570.49   2
 -15 -10   4 14513.6 1598.28   4
 -15 -10   4 11155.5 1373.27   2
  25 -15   4 10424.7 1288.65   1
  10  15   4 15806.6 1439.78   3
  15 -25   7 17549.9 1924.30   1
 -10  25   7 16754.3 1592.55   3
 -25  10   7 17574.1 1781.79   4
 -25  10   7 14985.4 1786.59   2
 -15 -10   7 19112.7 1828.97   4
  25 -15   7 16189.5 1636.64   1
 -15 -10   7 14183.4 1553.49   2
  10  15   7 15194.5 1679.83   3
 -25  11  -6 2431.72 876.377   4
 -14 -11  -6 1665.53 1044.72   4
 -14 -11  -3 18794.2 1830.68   2
  11  14  -3 16188.1 1148.50   3
 -11  25  -3 16301.0 1747.13   3
 -25  11  -3 20251.4 1541.34   4
  14 -25  -3 14949.2 945.704   1
 -14 -11  -3 20415.9 1724.08   4
 -25  11  -3 18047.0 1124.04   2
  11  14   0 3683.94 814.503   3
 -14 -11   0 3566.86 1135.74   2
 -11  25   0 3447.68 1085.52   3
 -25  11   0 5142.95 1190.42   4
 -25  11   0 5571.51 968.409   2
 -14 -11   0 4652.19 1178.06   4
  14 -25   0 2670.90 748.259   1
  25 -14   0 3957.08 1169.55   1
 -14 -11   3 3075.28 1027.38   2
 -11  25   3 2605.99 1086.39   3
  14 -25   3 2921.66 1081.22   1
 -25  11   3 5169.18 1249.92   4
 -14 -11   3 3643.24 1222.71   4
 -25  11   3 5837.12 1173.41   2
  25 -14   3 2828.63 1048.02   1
  11  14   3 4861.28 1014.41   3
 -11  25   6 7865.88 1265.89   3
  14 -25   6 8469.59 1504.80   1
 -25  11   6 9179.92 1463.20   4
 -25  11   6 8288.23 1454.42   2
 -14 -11   6 11094.2 1527.47   4
  25 -14   6 9976.81 1429.84   1
  11  14   6 10420.8 1392.88   3
 -14 -11   6 5784.25 1248.71   2
 -11  25   9 8173.10 1463.75   3
  25 -14   9 8174.78 1466.60   1
  14 -25   9 9407.76 1925.70   1
 -25  11   9 13462.0 1814.92   4
 -25  11   9 12699.4 1864.40   2
 -14 -11   9 11894.9 1873.97   4
 -14 -11   9 9591.30 1504.53   2
  11  14   9 9949.99 1624.93   3
 -25  12  -7 7570.13 1023.11   4
 -13 -12  -7 4386.86 1231.78   4
  12  13  -4 4154.57 875.646   3
 -13 -12  -4 5406.62 1471.88   2
 -12  25  -4 7577.71 1562.88   3
 -25  12  -4 7320.74 1137.18   4
 -13 -12  -4 9114.96 1350.39   4
 -25  12  -4 6418.08 776.623   2
  12  13  -1 6782.86 833.513   3
 -13 -12  -1 8900.03 1396.86   2
 -12  25  -1 6273.52 1270.79   3
 -25  12  -1 8605.98 1292.18   4
  13 -25  -1 8264.93 844.390   1
 -13 -12  -1 9596.43 1443.66   4
 -25  12  -1 8465.59 999.088   2
  25 -13  -1 6351.13 1281.94   1
 -12  25   2 21649.0 1576.74   3
  13 -25   2 25799.2 1567.56   1
  25 -13   2 19895.4 1570.51   1
 -25  12   2 25652.3 1904.28   4
 -25  12   2 27531.7 1783.26   2
 -13 -12   2 29494.7 1987.72   4
  12  13   2 27069.2 1501.85   3
 -13 -12   2 24870.2 1725.58   2
 -13 -12   5 3112.51 1078.59   2
  25 -13   5 3724.46 1129.24   1
 -25  12   5 4817.49 1196.20   4
 -25  12   5 4457.27 1321.68   2
 -13 -12   5 5631.56 1269.23   4
  12  13   5 6111.98 1229.76   3
  13 -25   5 6469.62 1450.18   1
 -12  25   8 2063.99 1140.79   3
  13 -25   8 5958.22 1632.89   1
  25 -13   8 2332.93 1153.14   1
 -25  12   8 2037.19 1267.88   4
 -25  12   8 4099.95 1420.36   2
 -13 -12   8 1834.17 1245.04   4
  12  13   8 3379.63 1339.63   3
 -13 -12   8 3426.15 1163.20   2
 -25  13  -5 2672.54 680.000   2
 -13  25  -5 2726.51 1572.79   3
 -12 -13  -5 5947.12 1555.82   2
 -25  13  -5 4182.92 1019.61   4
 -12 -13  -5 3659.92 1136.47   4
  13  12  -2 24095.0 1162.99   3
 -12 -13  -2 23270.6 1874.83   2
 -13  25  -2 19017.7 1786.60   3
 -25  13  -2 26714.0 1770.38   4
 -12 -13  -2 26155.1 1883.45   4
 -25  13  -2 23600.8 1275.36   2
  25 -12  -2 21695.3 1867.62   1
  12 -25  -2 23361.5 1056.43   1
 -12 -13   1 9412.12 1366.92   2
 -13  25   1 11146.3 1348.38   3
  12 -25   1 12469.1 1122.45   1
 -25  13   1 11234.4 1417.17   4
  25 -12   1 9238.09 1337.40   1
 -25  13   1 10508.7 1208.11   2
 -12 -13   1 12237.5 1565.36   4
  13  12   1 9370.23 989.787   3
 -12 -13   4 6057.90 1172.29   2
  25 -12   4 8382.49 1242.07   1
 -13  25   4 9493.23 1286.29   3
 -25  13   4 7406.82 1356.76   4
 -25  13   4 5840.44 1271.99   2
 -12 -13   4 7363.24 1392.02   4
  13  12   4 8629.34 1182.13   3
  12 -25   4 8058.09 1470.46   1
 -13  25   7 5969.01 1238.27   3
  25 -12   7 6796.51 1287.47   1
 -25  13   7 6019.37 1361.52   4
 -25  13   7 6454.09 1532.60   2
 -12 -13   7 9061.58 1510.76   4
  13  12   7 7268.58 1401.61   3
  12 -25   7 10355.8 1753.29   1
 -12 -13   7 4736.98 1195.37   2
 -25  14  -6 8503.52 1148.63   4
 -11 -14  -6 10993.7 1439.03   4
  14  11  -3 4558.62 764.143   3
 -11 -14  -3 5274.87 1439.48   2
 -14  25  -3 6455.02 1507.00   3
 -25  14  -3 5700.61 1124.48   4
  11 -25  -3 3219.15 455.928   1
 -11 -14  -3 3393.93 1112.96   4
 -25  14  -3 4287.03 704.766   2
  14  11   0 2770.78 737.366   3
 -11 -14   0 4298.26 1241.15   2
  11 -25   0 6431.37 838.706   1
 -14  25   0 4943.05 1225.91   3
 -25  14   0 3286.13 1105.40   4
  25 -11   0 5400.69 1259.87   1
 -25  14   0 3795.50 908.800   2
 -11 -14   0 4035.19 1174.25   4
 -14  25   3 18183.1 1524.08   3
  25 -11   3 19982.2 1650.82   1
 -25  14   3 22984.1 1798.08   4
 -25  14   3 21667.4 1701.80   2
 -11 -14   3 24009.1 1921.34   4
  14  11   3 22416.2 1502.94   3
  11 -25   3 21455.8 1695.99   1
 -11 -14   3 20056.3 1620.70   2
 -11 -14   6 3291.95 1121.73   2
 -14  25   6 3545.38 1184.05   3
 -25  14   6 2149.64 1177.40   4
  25 -11   6 2845.97 1103.07   1
 -25  14   6 2213.93 1251.73   2
 -11 -14   6 2584.83 1195.04   4
  11 -25   6 4905.68 1661.18   1
  14  11   6 2908.82 1140.16   3
 -11 -14   9 6586.50 1368.32   2
 -14  25   9 7309.76 1392.22   3
 -25  14   9 12004.6 1756.58   4
 -11 -14   9 12189.9 2568.13   1
 -25  14   9 9915.46 1784.76   2
 -11 -14   9 11353.2 1710.40   4
  25 -11   9 7921.65 1521.18   1
  11 -25   9 11323.1 2153.90   1
  14  11   9 11585.1 1737.94   3
 -25  15  -7 15555.2 1275.71   4
  15  10  -4 10581.4 744.682   3
 -10 -15  -4 16686.9 1985.52   2
 -15  25  -4 12840.7 1853.77   3
 -25  15  -4 17303.9 1466.00   4
 -10 -15  -4 21318.2 1770.34   4
 -25  15  -4 14601.7 870.125   2
  15  10  -1 11290.9 873.018   3
 -10 -15  -1 10682.9 1537.52   2
 -15  25  -1 10422.1 1449.95   3
  10 -25  -1 12747.7 874.549   1
 -25  15  -1 13539.1 1458.53   4
  25 -10  -1 11600.2 1483.63   1
 -25  15  -1 12061.4 1119.56   2
 -10 -15  -1 14433.0 1605.15   4
 -10 -15   2 20650.8 1716.27   2
 -15  25   2 21782.5 1666.91   3
 -25  15   2 26268.2 1909.00   4
  25 -10   2 20663.4 1689.50   1
 -25  15   2 24367.6 1735.46   2
 -10 -15   2 26360.1 1934.11   4
  15  10   2 25572.5 1476.75   3
  10 -25   2 27140.1 1712.05   1
  25 -10   5 16740.7 1561.37   1
 -15  25   5 16997.7 1559.14   3
 -25  15   5 20058.8 1792.29   4
 -25  15   5 21113.2 1858.98   2
 -10 -15   5 20945.0 1817.23   4
  10 -25   5 22440.8 2017.42   1
  15  10   5 23912.8 1796.95   3
 -10 -15   5 17245.2 1640.86   2
 -10 -15   8 3228.39 1226.89   2
  10 -25   8 5309.55 1840.02   1
 -15  25   8 862.360 1089.09   3
  25 -10   8 4159.79 1218.06   1
 -25  15   8 8066.67 1513.07   4
 -10 -15   8 6912.73 2350.51   1
 -25  15   8 5852.66 1565.03   2
 -10 -15   8 5392.38 1352.55   4
  15  10   8 5425.08 1360.80   3
 -25  16  -5 10082.1 1208.84   4
  -9 -16  -5 13063.7 1570.94   4
   9 -25  -2 2002.57 481.866   1
  16   9  -2 1310.34 560.974   3
  25  -9  -2 2377.99 1224.34   1
  -9 -16  -2 1747.96 1248.04   2
 -16  25  -2 1718.08 1310.75   3
 -25  16  -2 2838.23 995.608   4
  -9 -16  -2 613.544 1059.23   4
 -25  16  -2 2443.03 717.757   2
  -9 -16   1 4659.25 1226.06   2
 -16  25   1 5937.68 1243.49   3
  25  -9   1 5310.20 1258.88   1
 -25  16   1 6424.63 1292.60   4
 -25  16   1 5921.15 1059.64   2
  -9 -16   1 8079.20 1404.90   4
  16   9   1 5872.75 864.350   3
   9 -25   1 6613.75 1028.96   1
  25  -9   4 2600.17 1080.52   1
   9 -25   4 3345.52 1262.43   1
  -9 -16   4 4001.27 1097.58   2
 -16  25   4 2226.81 1019.23   3
 -25  16   4 2650.24 1166.52   4
 -25  16   4 2627.64 1201.33   2
  -9 -16   4 3145.40 1159.68   4
  16   9   4 3293.73 1080.59   3
   9 -25   7 4738.09 1692.99   1
  -9 -16   7 1641.50 1137.34   2
 -16  25   7 4198.50 1225.98   3
  -9 -16   7 2077.14 1913.85   1
 -25  16   7 2657.25 1252.80   4
  25  -9   7 2197.51 1140.59   1
 -25  16   7 3420.02 1395.81   2
  -9 -16   7 4692.46 1327.82   4
  16   9   7 5455.22 1432.53   3
 -25  17  -6 8514.92 1136.76   4
  17   8  -3 17667.7 796.591   3
  -8 -17  -3 21427.1 2065.09   2
 -17  25  -3 19705.5 1978.68   3
 -25  17  -3 21898.3 1677.18   4
 -25  17  -3 20613.1 1078.96   2
  -8 -17  -3 24002.3 1896.11   4
   8 -25   0 4914.36 823.198   1
  25  -8   0 3781.40 1250.07   1
  -8 -17   0 5100.97 1379.21   2
 -17  25   0 5009.56 1356.76   3
 -25  17   0 2952.29 1093.65   4
 -25  17   0 2873.21 877.386   2
  -8 -17   0 4638.07 1252.04   4
  17   8   0 5286.62 760.304   3
  -8 -17   3 41718.7 2209.59   2
 -17  25   3 42566.4 2152.29   3
 -25  17   3 47576.9 2446.00   4
  25  -8   3 41093.3 2217.99   1
 -25  17   3 43910.2 2363.49   2
  -8 -17   3 48993.5 2532.58   4
   8 -25   3 52692.3 2493.66   1
  17   8   3 50780.6 2117.25   3
  -8 -17   6 3375.12 1179.62   2
 -17  25   6 3695.84 1152.70   3
 -25  17   6 4385.72 1281.50   4
  -8 -17   6 4717.53 1960.49   1
 -25  17   6 5814.74 1501.74   2
  -8 -17   6 4524.93 1264.38   4
  17   8   6 3815.75 1200.39   1
  25  -8   6 3417.90 1155.65   1
  17   8   6 2288.60 1253.28   3
   8 -25   6 3413.06 1535.07   1
 -25  18  -7 12019.6 1214.71   4
 -18  25  -4 11932.3 1904.55   3
 -18  25  -4 12731.8 1046.47   2
 -25  18  -4 14941.8 1423.61   4
  -7 -18  -4 16072.3 1714.17   4
 -25  18  -4 14540.4 773.159   2
  25  -7  -1 22676.7 1924.62   1
   7 -25  -1 28960.6 1163.20   1
  -7 -18  -1 23869.3 2055.49   2
 -18  25  -1 21998.4 1926.83   3
 -25  18  -1 27248.5 1891.72   4
 -25  18  -1 27825.1 1503.54   2
  -7 -18  -1 27592.3 2050.32   4
  18   7  -1 25652.9 1054.08   3
  -7 -18   2 10033.0 1452.67   2
 -18  25   2 9191.66 1388.19   3
 -25  18   2 11076.9 1494.41   4
 -25  18   2 10136.3 1390.28   2
  -7 -18   2 9674.21 1441.21   4
   7 -25   2 9878.82 1340.91   1
  25  -7   2 11959.0 1472.79   1
  18   7   2 10696.0 1195.25   3
  18   7   5 5957.19 1251.12   1
 -18  25   5 6736.66 1246.53   3
 -25  18   5 7537.98 1182.52   3
  25  -7   5 7917.53 1381.23   1
 -25  18   5 11316.9 1590.97   4
  -7 -18   5 8848.87 2025.96   1
 -25  18   5 7336.65 1435.25   2
  -7 -18   5 6653.39 1401.40   4
   7 -25   5 9446.25 1730.80   1
  18   7   5 9510.34 1374.01   3
  -7 -18   5 9175.09 1391.04   2
  25  -7   8 10151.8 1543.52   1
  -7 -18   8 7231.28 1366.77   2
 -18  25   8 7323.78 1369.20   3
 -18  25   8 14389.0 2555.95   2
 -18  25   8 11929.5 1848.07   4
 -25  18   8 11725.4 1655.13   4
 -25  18   8 12208.7 1911.14   2
  -7 -18   8 10190.4 2433.41   1
  -7 -18   8 8590.34 1554.34   4
   7 -25   8 9882.19 2034.27   1
  18   7   8 14255.2 1840.16   3
 -25  19  -5 7507.90 1174.49   4
  19   6  -2 1529.72 461.933   3
 -19  25  -2 1582.35 1375.00   3
  -6 -19  -2 789.474 1382.11   2
 -25  19  -2-2030.47 1061.84   4
 -25  19  -2 1589.79 730.713   2
   6 -25  -2 1116.92 373.547   1
  -6 -19  -2 771.384 1158.49   4
  25  -6  -2 1153.91 445.926   3
   6 -25   1 4013.76 1064.37   1
 -19  25   1 3599.02 1231.06   3
  -6 -19   1 3419.73 1297.21   2
 -25  19   1 5255.48 1256.77   4
 -25  19   1 2876.56 1046.03   2
  -6 -19   1 6070.07 1352.18   4
  19   6   1 4573.10 885.373   3
  25  -6   1 2287.33 1200.30   1
  -6 -19   4 4333.26 1243.10   2
 -19  25   4 4829.99 1232.22   3
 -25  19   4 5578.54 1160.10   3
 -25  19   4 8497.54 1397.79   4
 -25  19   4 7372.11 1457.82   2
  -6 -19   4 6790.61 1806.74   1
  25  -6   4 5755.38 1328.99   1
  19   6   4 4580.51 1325.70   1
  -6 -19   4 7024.12 1366.66   4
  19   6   4 7833.00 1272.96   3
   6 -25   4 7300.80 1537.65   1
  -6 -19   7 1630.96 1171.80   2
 -19  25   7 1508.51 1157.17   3
 -19  25   7 3211.71 1584.63   4
 -19  25   7 2592.15 1941.47   2
 -25  19   7 1797.57 1225.69   4
 -25  19   7 1489.60 1394.55   2
  -6 -19   7 2588.14 2068.62   1
  -6 -19   7 796.976 1214.85   4
  19   6   7 689.734 1037.18   1
  19   6   7 5144.54 1474.09   3
  25  -6   7 2675.40 1282.69   1
   6 -25   7 2962.44 1672.02   1
 -20  25  -6 11524.8 1484.49   4
 -25  20  -6 12117.9 1328.43   4
 -20  25  -3 28268.1 1524.44   2
 -25  20  -3 26974.0 1836.25   4
 -25  20  -3 27395.8 1208.17   2
  -5 -20  -3 30961.9 2221.33   4
  -5 -20   0 13147.9 1741.01   2
 -20  25   0 14908.7 1738.89   3
  -5 -20   0 16206.4 1653.90   1
 -25  20   0 18761.1 1738.58   4
 -25  20   0 15488.3 1377.93   2
  -5 -20   0 17105.5 1789.94   4
  25  -5   0 15112.4 1280.17   3
   5 -25   0 15152.6 1212.33   1
  20   5   0 17789.2 1041.55   3
  25  -5   0 14337.0 1743.04   1
  -5 -20   3 30953.3 2152.20   2
 -20  25   3 31866.7 1997.74   3
 -25  20   3 29290.4 1887.59   3
  -5 -20   3 36532.8 2592.01   1
 -25  20   3 39431.3 2334.98   4
  20   5   3 29958.6 2100.43   1
 -25  20   3 31585.4 2184.26   2
   5 -25   3 36837.3 2276.46   1
  -5 -20   3 35040.2 2231.01   4
  20   5   3 36284.8 1944.58   3
  25  -5   3 29543.5 2005.84   1
  -5 -20   6 4121.55 1240.98   2
 -20  25   6 2995.12 1189.45   3
  25  -5   6 3512.93 1255.38   1
 -25  20   6 1873.22 1031.02   3
   5 -25   6 3201.89 1194.61   2
 -20  25   6 3936.49 1473.88   4
 -20  25   6 6250.66 1947.25   2
 -25  20   6 6040.50 1405.66   4
 -25  20   6 2609.68 1546.32   2
  -5 -20   6 4269.69 1980.86   1
  -5 -20   6 3075.54 1277.64   4
  25  -5   6 3343.54 1480.72   3
   5 -25   6 5140.09 1720.94   1
  20   5   6 6018.15 1401.89   3
  20   5   6 1799.45 1170.73   1
 -21  25  -7 4428.63 1128.84   4
 -25  21  -7 5252.27 1054.38   4
 -25  21  -4 15524.1 1534.18   4
 -21  25  -1 9819.35 1745.00   3
  -4 -21  -1 5177.10 1554.15   2
 -21  25  -1 10137.7 1343.93   2
 -25  21  -1 8711.25 1382.59   4
 -25  21  -1 9823.20 1134.92   2
  -4 -21  -1 6389.52 1184.60   1
  -4 -21  -1 7323.67 1495.42   4
  25  -4  -1 9560.95 855.371   3
   4 -25  -1 8423.81 833.015   1
  21   4  -1 8830.94 714.462   3
  -4 -21   2 8841.26 1543.03   2
 -21  25   2 8846.11 1403.05   3
  25  -4   2 9167.48 1531.97   1
 -25  21   2 11008.7 1499.93   3
 -21  25   2 13829.0 1785.05   2
 -25  21   2 10298.3 1467.86   4
  -4 -21   2 9929.58 1691.07   1
 -25  21   2 10869.1 1502.52   2
   4 -25   2 12408.5 1588.16   1
  -4 -21   2 11468.2 1689.36   4
  25  -4   2 9985.88 1346.24   3
  21   4   2 11240.6 1229.24   3
  21   4   5 4171.75 1321.75   1
 -21  25   5 4391.02 1219.79   3
  -4 -21   5 5819.77 1278.84   2
 -25  21   5 4215.07 1169.83   3
   4 -25   5 4212.35 1376.77   2
 -21  25   5 10543.6 1929.98   2
 -21  25   5 5472.21 1535.64   4
 -25  21   5 5400.65 1401.15   4
 -25  21   5 7411.57 1723.85   2
  -4 -21   5 6656.37 1980.74   1
  25  -4   5 3272.14 1270.43   1
  -4 -21   5 4712.76 1341.30   4
  25  -4   5 7864.45 1566.17   3
  21   4   5 7479.08 1407.47   3
   4 -25   5 6610.44 1742.51   1
  25  -4   8 5033.04 1449.39   1
 -21  25   8 6712.56 1356.99   3
  -4 -21   8 6547.36 1431.60   2
 -21  25   8 9235.33 1756.49   4
 -25  21   8 10865.6 2008.27   2
 -21  25   8 12198.9 2373.28   2
  21   4   8 6128.02 1439.96   1
 -25  21   8 7855.30 1605.63   4
  -4 -21   8 10961.3 2543.39   1
   4 -25   8 9642.42 2309.55   1
  -4 -21   8 9027.54 1680.34   4
  25  -4   8 17029.9 2411.67   3
  21   4   8 11726.4 1812.84   3
 -22  25  -5 1807.47 1143.68   4
 -25  22  -5 3016.41 1089.08   4
 -22  25  -2 7760.37 1702.65   3
 -25  22  -2 6947.50 1326.62   4
 -22  25  -2 5971.28 1105.50   2
  -3 -22  -2 5254.39 872.154   1
 -25  22  -2 4967.59 942.550   2
 -22  25   1 2377.60 1250.19   3
  -3 -22   1 3034.51 1362.77   2
 -25  22   1-9.58438 1191.29   3
 -22  25   1 3044.21 1297.17   4
 -25  22   1 1169.96 1141.58   4
 -22  25   1 515.533 1216.46   2
 -25  22   1 3131.05 1108.36   2
  -3 -22   1 744.349 1199.58   1
  -3 -22   1-390.437 1233.80   4
  25  -3   1 2015.43 1334.77   1
  25  -3   1 701.179 911.009   3
   3 -25   1 1208.80 999.632   1
  22   3   1 1775.11 823.853   3
 -25  22   4 9188.49 1506.47   4
 -22  25   4 4788.06 1321.37   3
  -3 -22   4 3623.32 1317.44   2
 -25  22   4 5604.55 1340.09   3
   3 -25   4 4278.74 1459.54   2
 -22  25   4 4053.43 1410.49   4
 -22  25   4 7434.15 1726.63   2
  25  -3   4 4851.51 1428.20   1
  22   3   4 4928.72 1437.23   1
 -25  22   4 5447.85 1516.87   2
  -3 -22   4 6110.12 1765.61   1
   3 -25   4 9322.84 1770.38   1
  -3 -22   4 6122.57 1468.20   4
  25  -3   4 9240.29 1523.26   3
  22   3   4 7453.11 1299.23   3
 -22  25   7 680.246 1157.22   3
  -3 -22   7 2024.39 1261.12   2
 -22  25   7 102.608 1249.01   4
 -22  25   7-1842.04 1771.42   2
  25  -3   7 534.545 1272.99   1
 -25  22   7 439.044 1514.85   2
  22   3   7 1095.14 1236.53   1
 -25  22   7 1382.76 1195.92   4
  -3 -22   7-861.166 1942.80   1
  -3 -22   7 830.745 1287.28   4
  25  -3   7 32.7771 1549.87   3
   3 -25   7-2161.24 1693.63   1
  22   3   7 1451.30 1263.80   3
 -23  25  -6 11763.9 1473.60   4
 -25  23  -6 12743.2 1471.17   4
 -23  25  -3 28332.9 2106.85   4
 -25  23  -3 26090.3 1940.77   4
 -23  25  -3 26183.8 1337.89   2
 -25  23  -3 27121.4 1278.67   2
  -2 -23   0 12829.6 1943.47   2
 -25  23   0 11563.9 1700.65   3
 -23  25   0 9191.71 1649.93   3
 -23  25   0 12091.7 1661.31   4
 -25  23   0 11820.0 1642.40   4
 -23  25   0 13261.4 1562.89   2
 -25  23   0 11579.1 1378.02   2
  -2 -23   0 12681.0 1420.83   1
   2 -25   0 13239.8 1290.01   1
  25  -2   0 13330.6 1108.69   3
  23   2   0 14834.5 1021.82   3
  23   2   3 30143.8 2319.19   1
  -2 -23   3 22135.1 2012.26   2
 -23  25   3 29083.6 2072.18   3
 -25  23   3 27818.4 1998.21   3
   2 -25   3 27841.9 2240.57   2
  25  -2   3 27272.9 2130.33   1
 -23  25   3 36595.9 2475.05   4
 -25  23   3 36563.7 2341.98   4
 -23  25   3 35530.1 2525.25   2
 -25  23   3 36651.5 2483.44   2
  -2 -23   3 36447.3 2648.26   1
   2 -25   3 35142.0 2399.29   1
  -2 -23   3 33588.5 2348.54   4
  25  -2   3 35953.8 2129.80   3
  23   2   3 34826.2 2007.40   3
 -23  25   6 3484.84 1195.29   3
 -25  23   6 4817.61 1335.49   3
  -2 -23   6-310.572 1228.05   2
   2 -25   6 410.138 1283.70   2
 -23  25   6 2489.49 1423.69   4
 -25  23   6 3788.37 1476.46   4
 -23  25   6 6373.83 1911.28   2
 -25  23   6 2700.70 1648.87   2
  -2 -23   6 6895.35 2062.14   1
  23   2   6-934.304 1221.49   1
   2 -25   6 529.538 1693.03   1
  25  -2   6-102.375 1365.73   3
  23   2   6 3727.28 1419.76   3
  25  -2   6 2415.23 1346.77   1
 -24  25  -4 3200.82 1171.01   4
 -25  24  -4 1346.32 1135.60   4
 -24  25  -1 8797.62 1799.40   3
 -25  24  -1 11212.3 1802.51   3
 -24  25  -1 12253.5 1655.21   4
 -25  24  -1 11447.0 1600.53   4
 -24  25  -1 9212.56 1265.71   2
 -25  24  -1 12675.6 1309.02   2
  -1 -24  -1 8899.78 1110.02   1
   1 -25  -1 10063.6 1008.91   1
  24   1   2 8454.17 1611.12   1
 -24  25   2 7939.09 1588.53   3
 -25  24   2 7977.99 1554.00   3
  -1 -24   2 8643.30 1677.71   2
   1 -25   2 7815.69 1623.04   2
 -24  25   2 15124.2 1836.68   4
 -25  24   2 12366.4 1741.97   4
 -24  25   2 8526.11 1613.85   2
 -25  24   2 13794.1 1752.10   2
  -1 -24   2 10448.9 1621.60   1
   1 -25   2 13050.5 1682.31   1
  25  -1   2 13867.6 1442.11   3
  24   1   2 10439.2 1299.63   3
  25  -1   2 10795.9 1718.93   1
  -1 -24   5 9747.63 1594.72   2
 -24  25   5 9600.30 1436.87   3
 -25  24   5 5611.97 1345.98   3
   1 -25   5 8269.07 1593.06   2
 -24  25   5 7953.05 1673.81   4
 -25  24   5 9955.74 1713.03   4
  -1 -24   5 10390.8 2050.76   1
 -25  24   5 8902.04 1808.20   2
   1 -25   5 12147.7 2069.15   1
 -24  25   5 9128.10 1851.14   2
  25  -1   5 5895.09 1538.26   1
  25  -1   5 12363.5 1723.41   3
  24   1   5 9028.64 1522.57   3
  24   1   5 5470.92 1533.63   1
 -25  25  -5 1146.34 1107.45   4
 -25  25  -2 16612.4 1788.88   4
 -25  25  -2 14836.9 1233.11   2
 -25  25   1-741.945 1307.33   3
   0 -25   1 1401.83 1428.44   2
 -25  25   1-989.088 1200.47   4
 -25  25   1 2009.91 1220.54   2
   0 -25   1-1029.96 1182.84   1
  25   0   1-658.203 842.792   3
 -25  25   4 6571.46 1465.23   3
   0 -25   4 5422.43 1573.89   2
 -25  25   4 8980.01 1639.46   4
 -25  25   4 10537.5 1918.78   2
  25   0   4 8710.78 1677.58   1
   0 -25   4 10923.8 1924.76   1
  25   0   4 14117.5 1647.05   3
 -25  25   7 2605.43 1311.94   3
   0 -25   7 3006.57 1404.02   2
  25   0   7 2480.72 1466.48   1
 -25  25   7 2256.59 1451.03   4
 -25  25   7 1391.20 1717.12   2
   0 -25   7-744.458 1928.29   1
  25   0   7 606.486 1423.85   3
 -26   0  -5 1224.44 1177.23   2
 -26   0  -5 2429.20 1198.41   4
   0  26  -2 11363.5 1565.23   3
 -26   0  -2 15057.3 1632.35   4
  26 -26  -2 11256.5 1468.12   1
 -26   0  -2 10787.3 1385.46   2
   0  26   1-1029.84 1051.53   3
 -26   0   1-1461.83 1224.77   4
  26 -26   1 672.696 985.737   1
 -26   0   1 2092.51 1049.37   2
   0  26   4 1798.45 1126.32   3
  26 -26   4 3905.80 1286.18   1
 -26   0   4 4760.46 1389.51   4
 -26   0   4 3284.54 1190.03   2
 -26   1  -6 3376.00 1282.94   2
 -25  -1  -6 4706.21 1497.17   2
   1  25  -6 4187.85 1778.93   3
  -1  26  -6 3896.58 1721.75   3
 -26   1  -6 9026.81 1385.41   4
 -25  -1  -6 4988.15 1234.31   4
 -25  -1  -3 20319.3 1735.98   2
   1  25  -3 18636.2 1772.07   3
  -1  26  -3 19561.2 1824.00   3
  25 -26  -3 14614.1 1609.20   1
  26 -25  -3 19174.7 1761.35   1
 -26   1  -3 23378.5 1868.56   4
 -25  -1  -3 22266.1 1870.18   4
 -26   1  -3 19689.9 1623.74   2
 -25  -1   0 3995.74 1138.65   2
  26 -25   0 2540.87 1084.24   1
   1  25   0 1434.12 1045.23   3
  -1  26   0 35.4593 1088.58   3
 -26   1   0 5070.22 1344.93   4
 -25  -1   0 3884.26 1279.43   4
  25 -26   0 1725.19 1017.27   1
 -26   1   0 752.197 961.219   2
   1  25   3 17701.3 1616.95   3
  -1  26   3 15811.1 1573.05   3
 -26   1   3 22798.9 2074.80   4
 -25  -1   3 22270.9 1997.69   4
  25 -26   3 17531.0 1618.86   1
  26 -25   3 17053.6 1587.07   1
 -26   1   3 18367.1 1652.46   2
 -25  -1   3 19470.1 1720.76   2
   1  25   6 4775.94 1352.81   3
  -1  26   6 3714.52 1271.71   3
 -26   1   6 4522.93 1415.50   4
 -25  -1   6 3292.50 1382.61   4
 -26   1   6 6351.44 1421.44   2
 -25  -1   6 1719.99 1259.57   2
  25 -26   6 3256.46 1399.94   1
  26 -25   6 4212.92 1412.60   1
 -24  -2  -7 1558.09 1509.09   2
 -26   2  -7 2353.55 1055.17   4
 -24  -2  -7 2335.25 1147.92   4
 -26   2  -4 3470.50 1105.83   2
 -24  -2  -4 4149.92 1181.29   2
   2  24  -4 3110.16 1375.07   3
  -2  26  -4 2743.73 1399.68   3
  26 -24  -4 4407.94 1400.50   1
 -26   2  -4 2597.18 1064.96   4
 -24  -2  -4 5415.32 1209.87   4
  24 -26  -4 1658.84 1184.49   1
 -26   2  -1 2730.78 1030.85   2
 -24  -2  -1 2766.16 1118.69   2
  24 -26  -1 3720.17 1115.59   1
   2  24  -1 3274.33 1100.04   3
  -2  26  -1 2707.98 1154.69   3
  26 -24  -1 3655.23 1168.50   1
 -26   2  -1 4382.71 1230.23   4
 -24  -2  -1 5064.88 1259.93   4
  -2  26   2 6721.10 1249.93   3
   2  24   2 5845.71 1192.15   3
  26 -24   2 5955.74 1209.51   1
 -26   2   2 8311.43 1465.56   4
 -24  -2   2 8737.34 1409.19   4
  24 -26   2 7010.76 1254.90   1
 -26   2   2 8572.54 1300.43   2
 -24  -2   2 6436.51 1226.36   2
   2  24   5 2783.76 1166.56   3
  26 -24   5-356.027 1129.12   1
  -2  26   5 2359.97 1101.08   3
 -26   2   5-820.068 1295.19   4
 -24  -2   5 1177.36 1280.98   4
 -26   2   5 277.579 1138.80   2
  24 -26   5 1283.08 1150.80   1
 -24  -2   5 735.835 1059.22   2
 -26   3  -5 1571.66 1067.98   2
 -23  -3  -5 1570.77 1317.29   2
   3  23  -5 120.236 1381.62   3
  -3  26  -5 5464.56 1695.51   3
 -26   3  -5 3319.91 1129.24   4
 -23  -3  -5 3938.43 1204.86   4
   3  23  -2 16539.7 1526.76   3
  -3  26  -2 16912.2 1696.99   3
  23 -26  -2 15325.2 1507.37   1
 -26   3  -2 20034.3 1762.19   4
 -23  -3  -2 20468.5 1786.05   4
  26 -23  -2 19411.3 1774.26   1
 -26   3  -2 16100.2 1434.27   2
 -23  -3  -2 15812.5 1554.81   2
   3  23   1 1654.81 990.558   3
  -3  26   1 2826.70 1092.16   3
  23 -26   1 1822.58 885.512   1
 -26   3   1 4430.35 1297.51   4
 -23  -3   1 2001.43 1175.82   4
  26 -23   1 2382.46 1120.74   1
 -26   3   1 2859.56 1077.35   2
 -23  -3   1 3094.57 1022.84   2
   3  23   4 12109.5 1438.14   3
  -3  26   4 9644.51 1361.35   3
  23 -26   4 13314.6 1539.62   1
 -26   3   4 14458.1 1733.70   4
 -23  -3   4 13974.9 1656.87   4
  26 -23   4 11818.4 1495.70   1
 -26   3   4 13148.6 1555.18   2
 -23  -3   4 9392.83 1354.05   2
   3  23   7 2965.22 1276.31   3
  -3  26   7 3208.43 1312.25   3
 -26   3   7 3657.61 1403.45   4
 -23  -3   7 4011.55 1411.46   4
  23 -26   7 1789.67 1376.31   1
 -26   3   7 1527.61 1226.68   2
 -23  -3   7 1796.48 1235.00   2
  26 -23   7 2183.74 1359.59   1
 -26   4  -6 4165.61 1278.94   2
 -22  -4  -6 8596.60 1691.41   2
   4  22  -6 6071.99 1579.06   3
  -4  26  -6 5888.66 1739.73   3
 -26   4  -6 8987.22 1278.17   4
 -22  -4  -6 8428.59 1346.37   4
 -22  -4  -3 21763.3 1781.91   2
   4  22  -3 17891.6 1607.61   3
  -4  26  -3 17711.2 1813.06   3
  26 -22  -3 19416.7 1844.79   1
 -26   4  -3 21899.9 1723.29   4
 -22  -4  -3 24031.1 1853.87   4
 -26   4  -3 17914.5 1436.63   2
  22 -26  -3 18682.4 1526.27   1
 -22  -4   0 5040.91 1194.35   2
   4  22   0 2139.69 977.824   3
  -4  26   0 5413.83 1165.09   3
  26 -22   0 4536.46 1155.08   1
  22 -26   0 3252.93 972.688   1
 -26   4   0 2912.38 1181.80   4
 -22  -4   0 3979.43 1245.25   4
 -26   4   0 3826.58 1003.68   2
   4  22   3 21714.7 1573.54   3
  -4  26   3 16507.9 1546.40   3
  22 -26   3 18492.8 1576.20   1
 -26   4   3 21658.9 1918.88   4
 -22  -4   3 20979.8 1901.62   4
 -26   4   3 16560.9 1570.90   2
 -22  -4   3 19830.1 1685.53   2
  26 -22   3 17978.2 1571.10   1
   4  22   6 4582.94 1268.25   3
  26 -22   6 3843.24 1252.76   1
  -4  26   6 2419.96 1158.68   3
 -26   4   6 1263.36 1194.65   4
 -22  -4   6 3880.71 1448.20   4
  22 -26   6 4400.95 1324.97   1
 -26   4   6 3560.02 1270.29   2
 -22  -4   6 3958.98 1292.28   2
 -26   5  -7 945.999 941.888   4
 -21  -5  -7 753.390 1031.83   4
 -26   5  -4 1121.19 873.089   2
  26 -21  -4 18.0591 1322.76   1
 -21  -5  -4 1574.46 1151.68   2
   5  21  -4 2253.30 1180.33   3
  -5  26  -4-630.014 1267.92   3
  21 -26  -4 596.858 988.920   1
 -26   5  -4 1968.97 989.689   4
 -21  -5  -4 646.462 1042.69   4
 -21  -5  -1 2952.24 1075.18   2
   5  21  -1 1186.23 965.889   3
  -5  26  -1 1759.25 1098.09   3
 -26   5  -1 2531.55 1147.46   4
 -21  -5  -1 2416.29 1130.89   4
  26 -21  -1 1012.39 1055.28   1
  21 -26  -1 1025.02 884.291   1
 -26   5  -1 1091.73 849.606   2
   5  21   2 3922.89 1028.99   3
  -5  26   2 3502.45 1102.22   3
 -26   5   2 5966.18 1332.33   4
  26 -21   2 2125.34 1030.81   1
 -21  -5   2 3837.41 1229.09   4
 -26   5   2 2610.18 1058.38   2
 -21  -5   2 2874.95 1072.86   2
  21 -26   2 3154.12 988.221   1
   5  21   5 5210.23 1196.21   3
  -5  26   5 2381.41 1114.91   3
  26 -21   5 2883.47 1174.46   1
 -26   5   5 3895.90 1322.45   4
 -21  -5   5 2040.58 1176.11   4
  21 -26   5 2987.94 1213.41   1
 -26   5   5 5343.96 1248.32   2
 -21  -5   5 2159.30 1125.29   2
 -26   6  -5 8818.92 1224.01   2
 -20  -6  -5 8777.99 1599.72   2
   6  20  -5 7699.13 1429.53   3
  -6  26  -5 8352.09 1668.61   3
 -26   6  -5 10494.2 1294.07   4
 -20  -6  -5 11438.2 1439.48   4
 -20  -6  -2 13186.8 1477.33   2
  26 -20  -2 14160.0 1577.25   1
   6  20  -2 14590.6 1305.11   3
  -6  26  -2 16841.6 1679.86   3
  20 -26  -2 14220.4 1279.78   1
 -26   6  -2 17886.0 1635.24   4
 -20  -6  -2 16807.0 1649.93   4
 -26   6  -2 14115.2 1205.99   2
   6  20   1 13879.1 1281.65   3
  -6  26   1 10586.4 1340.47   3
  26 -20   1 11455.3 1357.26   1
 -26   6   1 17314.4 1739.34   4
 -20  -6   1 14790.7 1684.68   4
  20 -26   1 12026.5 1232.46   1
 -26   6   1 12600.5 1313.49   2
 -20  -6   1 10398.7 1310.56   2
  -6  26   4 15383.0 1568.39   3
  20 -26   4 23045.7 1780.06   1
 -26   6   4 21443.5 1925.38   4
 -20  -6   4 21025.5 1855.46   4
 -26   6   4 18037.1 1677.60   2
  26 -20   4 19888.5 1679.98   1
 -20  -6   4 18059.8 1618.05   2
   6  20   4 19259.4 1571.08   3
   6  20   7 5930.66 1400.21   3
  26 -20   7 6232.24 1428.76   1
  -6  26   7 2974.38 1258.59   3
  20 -26   7 4861.72 1483.53   1
 -26   6   7 4827.64 1434.89   4
 -20  -6   7 6085.77 1433.07   4
 -26   6   7 4938.77 1410.46   2
 -20  -6   7 6631.69 1356.85   2
 -19  -7  -6 6029.34 1616.53   2
  -7  26  -6 4803.47 1693.08   3
 -26   7  -6 8218.39 1192.10   4
 -19  -7  -6 10221.3 1395.26   4
 -19  -7  -3 15249.2 1649.11   2
   7  19  -3 11369.3 1282.25   3
  -7  26  -3 12314.5 1592.62   3
 -26   7  -3 13275.9 1428.86   4
 -19  -7  -3 14755.4 1528.03   4
  26 -19  -3 11853.0 1614.49   1
  19 -26  -3 10953.2 1154.42   1
 -26   7  -3 11522.6 1105.52   2
   7  19   0 18009.1 1296.65   3
  -7  26   0 20014.3 1625.87   3
  26 -19   0 17846.4 1601.66   1
 -26   7   0 21109.1 1784.56   4
 -19  -7   0 21483.4 1818.38   4
  19 -26   0 18774.8 1304.47   1
 -26   7   0 21161.0 1506.08   2
 -19  -7   0 17778.5 1614.79   2
  -7  26   3 16534.6 1506.79   3
  19 -26   3 18387.4 1512.57   1
 -19  -7   3 21024.1 1901.34   4
 -26   7   3 21617.0 1678.30   2
 -19  -7   3 18381.8 1586.99   2
  26 -19   3 18050.4 1570.90   1
   7  19   3 21236.9 1530.58   3
   7  19   6 6142.44 1316.25   3
  -7  26   6 6120.43 1277.76   3
  26 -19   6 5347.34 1295.06   1
  19 -26   6 4348.93 1353.96   1
 -26   7   6 7051.88 1463.04   4
 -19  -7   6 4048.38 1340.63   4
 -26   7   6 4024.25 1341.72   2
 -19  -7   6 4979.81 1274.87   2
 -26   8  -7 2494.26 956.840   4
 -18  -8  -7 4404.91 1165.53   4
 -26   8  -4 2598.28 847.300   2
 -18  -8  -4 896.870 1221.15   2
   8  18  -4 2469.52 1082.60   3
  -8  26  -4 1348.39 1367.93   3
  18 -26  -4 2310.99 869.510   1
 -26   8  -4 4520.22 1061.15   4
 -18  -8  -4 2278.06 1126.22   4
   8  18  -1 11230.6 1136.87   3
  -8  26  -1 11451.1 1457.17   3
 -26   8  -1 16707.6 1592.12   4
 -18  -8  -1 14967.6 1603.31   4
 -26   8  -1 11295.3 1136.74   2
  26 -18  -1 12239.5 1440.33   1
  18 -26  -1 12472.7 1120.13   1
 -18  -8  -1 11696.4 1425.97   2
 -18  -8   2 1661.26 1040.18   2
   8  18   2 1527.62 925.383   3
  -8  26   2 654.081 1021.92   3
 -26   8   2 2063.35 1188.09   4
 -18  -8   2 2289.75 1176.45   4
  18 -26   2 1807.93 885.161   1
 -26   8   2 1715.80 938.563   2
  26 -18   2 2594.50 1046.68   1
   8  18   5 5929.64 1192.32   3
  -8  26   5 5358.53 1207.31   3
  18 -26   5 8045.52 1434.83   1
  26 -18   5 6652.28 1290.82   1
 -26   8   5 7883.18 1415.94   4
 -18  -8   5 8286.84 1450.76   4
 -26   8   5 8328.43 1430.36   2
 -18  -8   5 7024.62 1248.64   2
  26 -18   8 2067.39 1336.86   1
  -8  26   8-1995.71 1226.41   3
  18 -26   8 297.766 1400.72   1
 -26   8   8-198.443 1292.33   4
 -18  -8   8 716.209 1262.64   4
 -26   8   8-221.456 1344.15   2
 -18  -8   8 609.365 1155.70   2
   8  18   8 3138.34 1273.52   3
 -17  -9  -8 4705.09 1176.25   4
 -26   9  -5 12308.5 1115.68   2
 -17  -9  -5 11748.2 1737.02   2
   9  17  -5 13320.6 1446.65   3
  -9  26  -5 13235.4 1822.51   3
 -26   9  -5 16923.2 1475.25   4
 -17  -9  -5 14429.3 1548.09   4
 -17  -9  -2 10340.7 1439.24   2
   9  17  -2 13906.1 1172.09   3
  17 -26  -2 11082.6 996.302   1
  -9  26  -2 12671.6 1535.72   3
  26 -17  -2 11953.5 1506.18   1
 -26   9  -2 14960.1 1503.96   4
 -17  -9  -2 14469.7 1575.77   4
 -26   9  -2 12827.6 1122.70   2
   9  17   1 26098.1 1468.60   3
  -9  26   1 21832.1 1646.28   3
  26 -17   1 22049.2 1697.59   1
  17 -26   1 22584.7 1418.05   1
 -26   9   1 29222.3 2026.99   4
 -17  -9   1 27731.1 2012.48   4
 -26   9   1 23499.1 1589.50   2
 -17  -9   1 21529.2 1678.38   2
   9  17   4 4838.29 1070.96   3
  -9  26   4 4182.15 1162.61   3
  26 -17   4 3387.40 1131.13   1
  17 -26   4 4495.13 1152.47   1
 -26   9   4 5342.25 1342.18   4
 -17  -9   4 5744.42 1262.55   4
 -26   9   4 5869.05 1256.02   2
 -17  -9   4 1646.17 1039.27   2
  -9  26   7 12270.9 1490.69   3
  17 -26   7 13009.6 1780.92   1
 -26   9   7 17487.2 1880.55   4
 -26   9   7 16333.3 1913.61   2
 -17  -9   7 17278.7 1881.34   4
  26 -17   7 11550.0 1566.64   1
 -17  -9   7 12240.7 1532.59   2
   9  17   7 16269.0 1720.46   3
 -26  10  -6 14585.9 1388.45   4
 -16 -10  -6 15882.7 1584.22   4
  26 -16  -3 3336.35 1338.04   1
  10  16  -3 4989.20 965.660   3
 -16 -10  -3 5166.32 1331.13   2
 -10  26  -3 6285.12 1506.67   3
 -26  10  -3 8094.33 1222.27   4
  16 -26  -3 4662.07 825.837   1
 -16 -10  -3 7077.97 1335.86   4
 -26  10  -3 5978.47 866.251   2
  10  16   0 16768.0 1196.20   3
 -10  26   0 17739.5 1622.04   3
 -26  10   0 21224.3 1775.92   4
  16 -26   0 15413.7 1130.22   1
  26 -16   0 16837.9 1600.06   1
 -16 -10   0 19814.8 1796.45   4
 -26  10   0 17613.5 1370.12   2
 -16 -10   0 15541.8 1497.93   2
 -16 -10   3 5519.66 1192.73   2
  26 -16   3 5969.52 1242.60   1
 -10  26   3 5944.77 1220.52   3
  16 -26   3 5353.42 1109.42   1
 -26  10   3 5937.03 1280.31   4
 -16 -10   3 7364.59 1322.73   4
 -26  10   3 3558.05 1113.02   2
  10  16   3 7429.84 1143.98   3
 -10  26   6 20234.4 1735.43   3
  16 -26   6 24636.5 2090.08   1
 -26  10   6 23299.6 2039.40   4
 -26  10   6 25500.2 2068.29   2
 -16 -10   6 26242.1 2038.71   4
  26 -16   6 22781.0 1856.76   1
 -16 -10   6 24061.4 1826.98   2
  10  16   6 25910.4 1898.83   3
 -26  11  -7 5664.00 1028.53   4
 -15 -11  -7 6559.04 1233.90   4
 -26  11  -4-46.5130 668.522   2
  11  15  -4 95.8665 840.286   3
 -15 -11  -4-403.445 1278.83   2
 -11  26  -4-330.847 1325.60   3
 -26  11  -4 281.181 895.873   4
 -15 -11  -4 8.40459 1011.41   4
  26 -15  -1 17196.4 1717.55   1
 -15 -11  -1 18670.6 1713.74   2
  11  15  -1 16891.5 1164.03   3
 -11  26  -1 17740.6 1721.90   3
 -26  11  -1 23349.7 1787.88   4
 -15 -11  -1 22909.9 1883.63   4
  15 -26  -1 17069.8 1112.40   1
 -26  11  -1 18858.0 1285.40   2
  11  15   2 1407.12 833.779   3
  26 -15   2 727.403 1027.94   1
 -15 -11   2 603.307 973.135   2
 -11  26   2 1895.72 1005.65   3
 -26  11   2 187.108 1005.53   4
  15 -26   2-635.351 929.705   1
 -15 -11   2-1098.77 1184.12   4
 -26  11   2-369.126 916.510   2
 -11  26   5 7769.00 1304.09   3
  15 -26   5 8822.48 1448.62   1
 -26  11   5 9690.43 1511.49   4
 -26  11   5 10368.1 1553.51   2
 -15 -11   5 10920.3 1521.74   4
 -15 -11   5 9296.26 1296.76   2
  26 -15   5 8022.37 1366.03   1
  11  15   5 8155.12 1290.86   3
 -11  26   8 682.265 1161.50   3
  26 -15   8 766.364 1175.22   1
  15 -26   8 1328.99 1528.77   1
 -26  11   8-15.2261 1225.85   4
 -26  11   8-1207.82 1364.10   2
 -15 -11   8-961.807 1374.75   4
  11  15   8-724.978 1231.01   3
 -15 -11   8 2559.34 1168.01   2
 -14 -12  -5 20605.8 2095.53   2
 -12  26  -5 22139.5 2237.63   3
 -26  12  -5 26445.9 1717.51   4
 -14 -12  -5 22986.9 1839.32   4
 -26  12  -5 17768.1 1130.79   2
  12  14  -2 3367.45 804.356   3
 -14 -12  -2 2683.54 1188.99   2
 -12  26  -2 4878.63 1346.17   3
  26 -14  -2 2939.08 1242.94   1
 -26  12  -2 4179.10 1159.13   4
  14 -26  -2 3180.21 705.479   1
 -14 -12  -2 3144.33 1177.48   4
 -26  12  -2 2653.86 752.466   2
 -12  26   1 19330.2 1610.75   3
  14 -26   1 22027.2 1424.47   1
 -26  12   1 21502.9 1807.80   4
  26 -14   1 16586.0 1583.36   1
 -26  12   1 19554.3 1505.10   2
 -14 -12   1 21067.0 1824.24   4
  12  14   1 20497.4 1300.22   3
 -14 -12   1 18550.5 1632.78   2
 -14 -12   4 1151.30 1030.75   2
 -12  26   4-650.775 955.069   3
  14 -26   4 483.670 1075.33   1
 -26  12   4 858.601 1032.44   4
  26 -14   4 138.661 1021.91   1
 -26  12   4 2163.28 1157.09   2
 -14 -12   4 1079.79 1085.37   4
  12  14   4 584.939 952.695   3
 -12  26   7 14135.3 1619.56   3
 -26  12   7 19809.6 1955.94   4
 -26  12   7 19467.2 1981.83   2
 -14 -12   7 15287.5 1813.68   4
  26 -14   7 15017.0 1672.64   1
 -14 -12   7 17290.4 1692.16   2
  12  14   7 17479.7 1769.57   3
  14 -26   7 21885.0 2141.00   1
 -26  13  -6 22587.2 1580.23   4
 -13 -13  -6 21778.2 1781.82   4
  26 -13  -3 2283.35 1268.24   1
  13  13  -3 1438.53 748.226   3
 -13 -13  -3 1849.78 1269.60   2
 -13  26  -3 1969.83 1324.96   3
 -26  13  -3 656.982 911.227   4
 -13 -13  -3 1147.36 1167.04   4
  13 -26  -3 2139.36 556.808   1
 -26  13  -3 1287.17 654.954   2
  13  13   0 16646.0 1124.97   3
 -13 -13   0 14491.0 1563.42   2
 -13  26   0 14265.5 1504.55   3
  13 -26   0 15303.2 1090.61   1
 -26  13   0 18528.1 1650.44   4
 -26  13   0 17682.2 1346.46   2
 -13 -13   0 15810.6 1708.91   4
  26 -13   0 13646.8 1494.79   1
 -13 -13   3 1103.09 1035.90   2
 -13  26   3 1943.08 1011.37   3
  13 -26   3 2144.90 1071.33   1
 -26  13   3 1242.68 1060.24   4
 -26  13   3 1354.96 1017.75   2
 -13 -13   3 2377.26 1186.13   4
  26 -13   3 1103.99 1001.14   1
  13  13   3 1515.70 936.332   3
 -13  26   6 17795.4 1618.65   3
 -26  13   6 22843.9 1965.79   4
 -26  13   6 19213.4 1916.36   2
 -13 -13   6 22504.9 1987.83   4
 -13 -13   6 15787.6 1597.08   2
  13  13   6 19443.5 1741.73   3
  26 -13   6 19809.5 1740.41   1
  13 -26   6 20261.9 1986.62   1
 -26  14  -7 18489.5 1384.23   4
  14  12  -4 1380.68 674.178   3
 -12 -14  -4 1409.41 1357.01   2
 -14  26  -4 1304.32 1397.30   3
 -26  14  -4 1224.76 890.113   4
 -12 -14  -4 482.059 1058.88   4
 -26  14  -4 657.605 589.673   2
  14  12  -1 17568.4 1080.03   3
 -12 -14  -1 16862.1 1746.01   2
 -14  26  -1 14893.9 1623.97   3
  26 -12  -1 15940.2 1662.20   1
 -26  14  -1 21000.2 1706.35   4
  12 -26  -1 19894.7 1079.62   1
 -26  14  -1 16340.2 1235.95   2
 -12 -14  -1 22311.4 1858.16   4
  12 -26   2 5632.22 1099.09   1
 -12 -14   2 5112.69 1144.49   2
 -14  26   2 3615.77 1143.82   3
 -26  14   2 7197.59 1307.08   4
  26 -12   2 3261.77 1165.23   1
 -26  14   2 3302.62 1058.44   2
 -12 -14   2 3649.78 1265.04   4
  14  12   2 4463.92 929.533   3
  26 -12   5 15741.8 1552.52   1
 -14  26   5 18294.3 1598.36   3
 -26  14   5 24969.1 1999.62   4
 -26  14   5 19659.9 1882.00   2
 -12 -14   5 23716.5 1990.81   4
  14  12   5 24936.2 1794.96   3
 -12 -14   5 20495.1 1721.07   2
  12 -26   5 25452.5 1999.66   1
 -12 -14   8 1351.64 1215.93   2
 -14  26   8 2899.24 1280.83   3
  12 -26   8 1873.22 1569.32   1
  26 -12   8 2938.72 1210.79   1
 -26  14   8 1497.54 1304.85   4
 -26  14   8 1209.03 1301.24   2
 -12 -14   8 1120.19 1281.04   4
  14  12   8 2183.74 1267.63   3
 -15  26  -5 8496.09 1823.86   3
 -26  15  -5 11435.1 1273.48   4
 -11 -15  -5 10913.1 1461.49   4
  15  11  -2 596.778 605.285   3
  11 -26  -2 349.927 527.755   1
 -11 -15  -2 1249.45 1241.83   2
 -15  26  -2-530.360 1237.90   3
  26 -11  -2-231.090 1219.72   1
 -26  15  -2 1022.30 954.545   4
 -11 -15  -2 1098.43 1156.01   4
 -26  15  -2 279.793 643.938   2
 -11 -15   1 21959.6 1813.43   2
  11 -26   1 21858.6 1394.42   1
 -15  26   1 18582.4 1628.45   3
 -26  15   1 25497.5 1875.92   4
 -26  15   1 22561.9 1560.01   2
 -11 -15   1 22364.0 1928.51   4
  26 -11   1 17688.9 1685.01   1
  15  11   1 23337.0 1316.48   3
 -11 -15   4 584.818 1030.61   2
  11 -26   4-192.940 1192.49   1
 -15  26   4 1317.56 1096.37   3
 -26  15   4-500.924 1065.17   4
 -26  15   4-149.833 1062.21   2
 -11 -15   4 255.253 1040.66   4
  15  11   4-237.158 964.566   3
  26 -11   4 204.613 1082.33   1
 -11 -15   7 4958.15 1271.25   2
 -15  26   7 6472.15 1396.53   3
  11 -26   7 4772.95 1616.92   1
 -26  15   7 5253.90 1407.57   4
 -26  15   7 7219.60 1648.48   2
  26 -11   7 3621.18 1284.95   1
 -11 -15   7 3347.41 1319.11   4
  15  11   7 7595.44 1470.91   3
 -26  16  -6 24674.8 1630.55   4
  16  10  -3 4317.02 684.981   3
 -10 -16  -3 5261.07 1519.49   2
 -16  26  -3 5244.71 1538.98   3
 -26  16  -3 6458.68 1161.87   4
 -26  16  -3 5913.33 774.091   2
 -10 -16  -3 5684.55 1342.03   4
 -10 -16   0 17070.9 1783.89   2
  10 -26   0 19634.0 1182.04   1
 -16  26   0 21085.3 1797.06   3
  26 -10   0 16650.8 1668.65   1
 -26  16   0 24260.6 1844.58   4
 -26  16   0 22373.2 1510.79   2
 -10 -16   0 23441.4 1919.80   4
  16  10   0 20918.0 1155.43   3
 -10 -16   3 4817.96 1270.65   2
  10 -26   3 3567.18 1240.22   1
 -16  26   3 3173.01 1158.55   3
  26 -10   3 6603.37 1293.13   1
 -26  16   3 7010.45 1396.55   4
 -26  16   3 6504.47 1295.26   2
 -10 -16   3 6493.36 1442.59   4
  16  10   3 5765.49 1096.65   3
  26 -10   6 14115.0 1568.77   1
 -16  26   6 14757.7 1532.60   3
 -26  16   6 18289.8 1817.29   4
 -26  16   6 17182.6 1869.66   2
 -10 -16   6 17944.2 1801.23   4
  10 -26   6 13376.9 1871.81   1
  16  10   6 17944.3 1715.35   3
 -10 -16   6 11895.7 1516.40   2
 -26  17  -7 14981.0 1347.88   4
 -17  26  -4 3947.54 1545.71   3
  -9 -17  -4 7912.87 1752.48   2
 -26  17  -4 7075.87 1141.00   4
  -9 -17  -4 7089.25 1420.22   4
 -26  17  -4 5144.74 641.698   2
  17   9  -1 26284.4 1112.51   3
  -9 -17  -1 23900.1 2022.03   2
 -17  26  -1 23563.8 1987.89   3
   9 -26  -1 26359.2 1158.59   1
 -26  17  -1 25929.9 1903.52   4
 -26  17  -1 26001.2 1504.98   2
  -9 -17  -1 29651.3 2132.11   4
  26  -9  -1 20791.0 1928.25   1
  -9 -17   2 13813.2 1619.51   2
 -17  26   2 13489.8 1523.08   3
 -26  17   2 15416.2 1627.85   4
 -26  17   2 15708.9 1573.47   2
  -9 -17   2 13560.6 1663.04   4
  26  -9   2 14510.4 1647.68   1
  17   9   2 16808.9 1307.05   3
   9 -26   2 16237.9 1479.71   1
 -17  26   5 13847.4 1474.30   3
  26  -9   5 13924.7 1541.56   1
 -26  17   5 15965.9 1717.19   4
 -26  17   5 17930.1 1844.17   2
  -9 -17   5 15607.1 1733.82   4
   9 -26   5 21356.4 2098.54   1
  17   9   5 19885.5 1758.32   3
  -9 -17   5 14376.7 1533.49   2
   9 -26   8 7406.03 1941.30   1
  -9 -17   8 3771.57 1296.72   2
 -17  26   8 4623.54 1289.46   3
 -17  26   8 7961.30 1828.88   4
 -26  17   8 4569.02 1463.05   4
  -9 -17   8 8029.15 2600.37   1
  26  -9   8 2174.65 1212.11   1
 -26  17   8 7186.51 1765.36   2
  -9 -17   8 4224.66 1393.36   4
  17   9   8 4324.49 1461.23   3
 -26  18  -5 6657.79 1148.89   4
   8 -26  -2 1835.43 441.146   1
  18   8  -2 1742.59 556.580   3
  -8 -18  -2 3292.92 1343.81   2
 -18  26  -2 2245.10 1373.51   3
 -26  18  -2 1346.30 1028.48   4
 -26  18  -2 1632.12 731.219   2
  -8 -18  -2 756.822 1160.75   4
  -8 -18   1 11078.3 1508.43   2
  26  -8   1 13521.6 1585.45   1
 -18  26   1 11348.2 1469.67   3
 -26  18   1 15623.0 1605.42   4
 -26  18   1 13695.8 1368.27   2
  -8 -18   1 14161.0 1649.94   4
  18   8   1 15108.5 1157.63   3
   8 -26   1 13745.5 1273.00   1
   8 -26   4 6751.24 1508.24   1
  -8 -18   4 3451.07 1245.40   2
 -18  26   4 2841.28 1116.72   3
 -26  18   4 2394.58 941.749   3
  26  -8   4 3172.16 1280.48   1
 -26  18   4 4206.94 1212.25   4
 -26  18   4 3702.36 1229.31   2
  -8 -18   4 3429.76 1277.92   4
  18   8   4 1139.03 1032.11   3
   8 -26   7 5927.77 1812.64   1
  -8 -18   7 3888.92 1215.98   2
 -18  26   7 2034.08 1134.49   3
 -18  26   7 4335.51 1618.43   4
 -26  18   7 4163.28 1329.42   4
  -8 -18   7 6434.33 2288.18   1
 -26  18   7 2780.07 1391.20   2
  -8 -18   7 3797.49 1322.93   4
  26  -8   7 4573.22 1355.57   1
  18   8   7 4084.95 1412.33   3
 -26  19  -6 5990.37 1128.72   4
  -7 -19  -3 19500.4 2115.52   2
 -19  26  -3 14807.0 1962.01   3
 -26  19  -3 20323.3 1698.53   4
 -26  19  -3 20095.8 1094.52   2
  -7 -19  -3 21107.3 1942.21   4
  -7 -19   0 21677.5 2007.97   2
 -19  26   0 22603.1 1898.08   3
 -26  19   0 21304.3 1827.89   4
 -26  19   0 22904.8 1572.41   2
  26  -7   0 22245.0 1986.34   1
  -7 -19   0 24297.3 1981.25   4
  19   7   0 23723.5 1181.34   3
   7 -26   0 24167.8 1348.36   1
  -7 -19   3 14602.6 1617.03   2
 -19  26   3 16051.5 1614.76   3
 -26  19   3 13178.5 1441.57   3
 -26  19   3 14161.1 1631.33   4
 -26  19   3 14779.0 1623.47   2
  26  -7   3 11320.4 1556.64   1
  -7 -19   3 15941.6 1727.83   4
   7 -26   3 16899.7 1719.47   1
  19   7   3 16433.2 1469.29   3
 -19  26   6 6722.18 1367.97   3
  26  -7   6 6033.01 1386.03   1
  -7 -19   6 6699.52 1361.79   2
 -26  19   6 7782.91 1465.56   4
  -7 -19   6 9252.89 2207.62   1
 -26  19   6 7922.62 1559.03   2
  -7 -19   6 7810.13 1524.38   4
  19   7   6 4373.61 1273.30   1
   7 -26   6 10029.0 1862.63   1
  19   7   6 8916.35 1476.93   3
 -20  26  -7 6508.93 1278.67   4
 -26  20  -4 19080.3 1614.43   4
  26  -6  -1 12204.2 1752.12   1
   6 -26  -1 16709.0 973.792   1
  -6 -20  -1 13834.3 1817.79   2
 -20  26  -1 12189.1 1738.98   3
 -26  20  -1 16816.7 1647.14   4
 -26  20  -1 17365.3 1332.49   2
  -6 -20  -1 12693.4 1704.80   4
  26  -6  -1 17319.2 1160.14   3
  20   6  -1 14500.9 845.993   3
  26  -6   2 10757.3 1493.27   1
  -6 -20   2 13942.0 1703.86   2
 -20  26   2 13262.8 1607.30   3
 -26  20   2 14457.6 1588.98   3
  -6 -20   2 19456.7 1957.96   1
 -26  20   2 17180.4 1752.30   4
 -26  20   2 17030.8 1610.28   2
  -6 -20   2 19430.5 1868.72   4
   6 -26   2 19106.0 1669.25   1
  20   6   2 18945.8 1420.43   3
  20   6   5 8094.57 1444.23   1
 -20  26   5 9677.23 1397.11   3
  -6 -20   5 5282.59 1310.44   2
 -26  20   5 7555.26 1286.11   3
  -6 -20   5 11575.0 2162.44   1
 -26  20   5 9425.67 1545.39   4
  26  -6   5 8574.95 1491.60   1
 -26  20   5 10054.6 1688.87   2
   6 -26   5 10120.2 1813.16   1
  -6 -20   5 11337.7 1645.70   4
  20   6   5 14593.9 1571.59   3
 -20  26   8 8924.92 1483.45   3
  -6 -20   8 8057.71 1433.63   2
 -20  26   8 19149.1 2771.22   2
 -20  26   8 12247.7 1910.47   4
 -26  20   8 11090.1 1725.27   4
  -6 -20   8 13877.5 2785.05   1
 -26  20   8 15820.1 2123.30   2
   6 -26   8 18056.4 2430.86   1
  -6 -20   8 12235.0 1763.73   4
  26  -6   8 14695.8 2425.25   3
  20   6   8 12835.9 1852.73   3
  26  -6   8 9582.96 1606.29   1
 -26  21  -5 4464.89 1153.90   4
 -21  26  -2 2266.11 1430.72   3
  -5 -21  -2 2905.78 1483.94   2
 -21  26  -2 4662.54 1156.40   2
 -26  21  -2 3170.55 1182.59   4
  -5 -21  -2 3039.28 929.890   1
 -26  21  -2 4193.59 842.466   2
  -5 -21  -2 4765.52 1454.11   4
   5 -26   1 1450.83 1013.86   1
 -21  26   1 118.477 1223.90   3
  -5 -21   1 2130.55 1328.60   2
  26  -5   1 342.682 1201.01   1
 -21  26   1 4500.46 1443.33   2
 -26  21   1 1541.63 1106.72   4
  -5 -21   1 473.168 1222.72   1
 -26  21   1 1136.97 959.395   2
  -5 -21   1 1916.55 1198.67   4
  26  -5   1 3267.18 1108.65   3
  21   5   1 1431.79 765.661   3
  26  -5   4-558.057 1215.15   1
 -21  26   4 970.307 1109.49   3
  -5 -21   4 237.398 1184.11   2
 -26  21   4 2974.57 1182.16   3
 -21  26   4 1674.47 1510.32   2
 -26  21   4 1472.65 1173.19   4
  -5 -21   4 573.358 1596.21   1
 -26  21   4 4081.10 1343.27   2
  21   5   4 1460.78 1329.71   1
  -5 -21   4-164.882 1253.83   4
  26  -5   4 3104.12 1355.11   3
  21   5   4-23.2600 1012.21   3
   5 -26   4-74.5383 1341.01   1
  -5 -21   7 3474.29 1297.52   2
 -21  26   7 980.577 1142.88   3
  26  -5   7-390.161 1230.48   1
 -21  26   7 3453.40 1528.28   4
 -21  26   7 1594.35 1685.13   2
 -26  21   7 945.345 1289.05   4
 -26  21   7 297.930 1449.72   2
  -5 -21   7-36.7701 2027.45   1
  -5 -21   7-966.977 1259.40   4
  26  -5   7-443.795 1565.11   3
  21   5   7 409.174 1225.72   3
   5 -26   7-2016.32 1766.29   1
  21   5   7 634.150 1215.11   1
 -22  26  -6 3503.29 1211.43   4
 -26  22  -6 4766.32 1144.35   4
 -26  22  -3 24173.8 1871.68   4
 -22  26  -3 20776.1 1355.90   2
 -26  22  -3 21067.6 1140.25   2
  26  -4   0 2958.75 1414.05   1
 -22  26   0 4988.45 1536.14   3
  -4 -22   0 4127.64 1467.39   2
 -26  22   0 3546.05 1234.99   4
  -4 -22   0 5163.27 1308.58   1
 -26  22   0 4688.37 1084.69   2
 -22  26   0 6053.70 1325.05   2
  -4 -22   0 5525.17 1462.81   4
   4 -26   0 6865.09 1038.16   1
  26  -4   0 5120.77 968.000   3
  22   4   0 5167.79 774.662   3
  26  -4   3 23833.6 2004.08   1
  -4 -22   3 21070.4 1967.52   2
 -22  26   3 19479.3 1824.68   3
 -26  22   3 20625.7 1833.95   3
  22   4   3 22167.8 2015.33   1
 -22  26   3 24764.7 2266.94   4
 -22  26   3 26599.3 2315.34   2
 -26  22   3 26650.2 2139.94   4
  -4 -22   3 24462.3 2312.42   1
 -26  22   3 24047.5 2089.49   2
   4 -26   3 23710.1 2094.27   1
  -4 -22   3 27069.5 2147.76   4
  26  -4   3 30230.9 2118.62   3
  22   4   3 29305.9 1887.66   3
  22   4   6 7462.50 1556.72   1
 -22  26   6 7909.86 1407.14   3
  -4 -22   6 6926.75 1413.56   2
   4 -26   6 9811.86 1586.26   2
 -26  22   6 7701.45 1370.47   3
 -22  26   6 16254.5 2326.61   2
 -22  26   6 8168.84 1726.92   4
 -26  22   6 9136.99 1645.70   4
 -26  22   6 8430.73 1857.82   2
  26  -4   6 8627.66 1563.03   1
  -4 -22   6 7749.02 2106.89   1
  -4 -22   6 11292.4 1759.97   4
  26  -4   6 11103.7 1836.59   3
  22   4   6 9188.93 1537.74   3
   4 -26   6 10708.5 1940.72   1
 -23  26  -7 1594.09 1063.34   4
 -23  26  -4 14139.0 1716.14   4
 -26  23  -4 13757.5 1556.08   4
   3 -26  -1 3862.19 758.959   1
 -23  26  -1 3490.04 1549.58   3
  -3 -23  -1 2971.37 1518.25   2
 -23  26  -1 5780.77 1444.79   4
 -23  26  -1 6110.39 1296.91   2
 -26  23  -1 4723.33 1313.80   4
 -26  23  -1 4273.84 1029.18   2
  -3 -23  -1 3191.61 990.534   1
  23   3  -1 4225.59 597.730   3
  -3 -23   2 16711.7 1903.73   2
 -23  26   2 17146.2 1809.29   3
 -26  23   2 16202.9 1805.06   3
 -23  26   2 23574.1 2175.47   4
 -23  26   2 21559.6 2105.16   2
 -26  23   2 20344.8 1944.53   4
  -3 -23   2 25796.4 2225.81   1
 -26  23   2 19560.0 1871.43   2
  26  -3   2 14279.4 1809.81   1
   3 -26   2 22352.2 1911.63   1
  -3 -23   2 19085.4 1937.05   4
  26  -3   2 21432.8 1712.31   3
  23   3   2 23048.6 1619.86   3
 -23  26   5 3624.78 1267.83   3
  23   3   5 4447.93 1471.92   1
  -3 -23   5 2615.65 1330.32   2
 -26  23   5 2474.55 1207.96   3
   3 -26   5 4717.74 1412.89   2
  26  -3   5 3574.66 1337.15   1
 -23  26   5 6343.52 1619.57   4
 -26  23   5 1448.42 1294.20   4
 -23  26   5 3255.26 1647.20   2
 -26  23   5 2477.82 1576.39   2
  -3 -23   5 5337.40 1926.37   1
  -3 -23   5 3954.68 1388.66   4
  26  -3   5 3687.20 1524.85   3
   3 -26   5 2198.30 1618.47   1
  23   3   5 2042.31 1185.56   3
 -24  26  -5 638.461 1097.45   4
 -26  24  -5 1916.86 1115.70   4
 -24  26  -2 7609.08 1839.27   3
 -24  26  -2 11633.6 1662.49   4
 -26  24  -2 10339.7 1555.98   4
 -24  26  -2 10466.7 1232.74   2
 -26  24  -2 9565.78 1101.75   2
  26  -2   1 1990.96 1450.46   1
 -24  26   1 3935.84 1471.54   3
  -2 -24   1 3579.73 1603.46   2
 -26  24   1 3573.18 1337.11   3
 -24  26   1 4204.30 1376.86   4
 -26  24   1 4620.75 1428.29   4
 -24  26   1 3742.66 1303.62   2
 -26  24   1 3462.37 1242.47   2
  -2 -24   1 4520.18 1318.28   1
  26  -2   1 6063.63 1038.20   3
   2 -26   1 2729.80 1154.95   1
  24   2   1 4539.37 945.254   3
 -24  26   4 2300.05 1283.63   3
  -2 -24   4 3302.01 1384.09   2
 -26  24   4 4263.33 1345.76   3
   2 -26   4 811.436 1352.45   2
 -24  26   4 6652.82 1573.03   4
 -26  24   4 4751.49 1400.46   4
 -24  26   4 4588.46 1757.90   2
 -26  24   4 6209.85 1657.07   2
  24   2   4 4737.32 1548.63   1
  -2 -24   4 4627.70 1687.80   1
   2 -26   4 3766.18 1658.92   1
  26  -2   4 4485.29 1391.88   1
  26  -2   4 7119.92 1440.29   3
  24   2   4 3764.68 1221.17   3
 -24  26   7 2222.21 1300.36   3
  -2 -24   7 4576.01 1458.41   2
 -24  26   7 1218.60 1420.22   4
 -26  24   7 5154.50 1573.07   4
 -24  26   7 195.560 1752.14   2
 -26  24   7 962.634 1707.52   2
  24   2   7 3899.23 1445.98   1
  -2 -24   7 1264.48 1852.61   1
   2 -26   7 860.193 1842.90   1
  26  -2   7 895.984 1547.57   3
  24   2   7 2014.71 1376.85   3
  26  -2   7 1846.08 1492.56   1
 -25  26  -6 5546.71 1282.44   4
 -26  25  -6 1435.04 1076.15   4
 -25  26  -3 25872.2 2105.83   4
 -26  25  -3 23777.5 2003.59   4
 -25  26   0 2829.95 1569.37   3
 -26  25   0 2511.53 1467.51   3
 -25  26   0 2356.89 1288.54   4
 -26  25   0 3503.33 1332.46   4
 -25  26   0 3877.05 1278.05   2
 -26  25   0 3308.09 1153.45   2
  -1 -25   0 3732.13 1157.41   1
   1 -26   0 3870.88 1068.59   1
  26  -1   0 1935.75 757.523   3
  25   1   0 2473.56 717.615   3
  25   1   3 17927.7 1996.36   1
  -1 -25   3 21892.2 2164.49   2
 -25  26   3 19190.2 1887.71   3
 -26  25   3 20978.2 1983.25   3
   1 -26   3 22226.8 2279.33   2
 -25  26   3 26019.6 2299.34   4
 -26  25   3 29011.4 2351.86   4
 -25  26   3 25337.0 2297.42   2
 -26  25   3 30043.6 2401.91   2
  -1 -25   3 25696.2 2301.71   1
   1 -26   3 24125.7 2218.82   1
  26  -1   3 19475.5 2036.65   1
  26  -1   3 27474.9 1983.10   3
  25   1   3 30290.2 1992.65   3
 -25  26   6 6673.96 1501.28   3
 -26  25   6 3241.25 1290.45   3
  -1 -25   6 5428.96 1530.48   2
   1 -26   6 6121.72 1569.20   2
 -25  26   6 8829.50 2134.60   2
 -25  26   6 8587.04 1802.47   4
 -26  25   6 7431.87 1721.92   4
 -26  25   6 6065.33 1788.26   2
  26  -1   6 4647.66 1535.32   1
  -1 -25   6 3914.47 1992.37   1
   1 -26   6 8911.13 2092.44   1
  25   1   6 3376.06 1442.23   1
  26  -1   6 6092.08 1594.07   3
  25   1   6 8643.57 1657.06   3
 -26  26  -4 4942.68 1306.03   4
 -26  26  -1 855.890 1507.34   3
 -26  26  -1 717.524 1255.73   4
 -26  26  -1 919.477 970.809   2
 -26  26   2 11844.7 1833.06   3
   0 -26   2 12313.8 1949.15   2
  26   0   2 10404.2 1844.72   1
 -26  26   2 13241.1 1796.52   4
 -26  26   2 16665.8 1926.47   2
   0 -26   2 11258.7 1709.43   1
  26   0   2 14791.7 1436.73   3
  26   0   5 2074.25 1505.93   1
 -26  26   5 1047.26 1412.95   4
 -26  26   5-1858.22 1322.58   3
   0 -26   5-19.0722 1388.23   2
 -26  26   5-506.960 1565.45   2
   0 -26   5 301.281 1599.43   1
  26   0   5 1380.51 1262.22   3
 -27   0  -3 588.749 1116.97   2
   0  27  -3-1664.44 1302.80   3
 -27   0  -3-1477.60 1119.84   4
  27 -27  -3 2254.52 1347.26   1
   0  27   0 8088.17 1313.60   3
  27 -27   0 9909.67 1375.41   1
 -27   0   0 11169.5 1461.86   2
   0  27   3-1581.77 1144.75   3
  27 -27   3-703.500 1105.45   1
 -27   0   3 642.402 1226.52   4
 -27   0   3 85.3449 1054.97   2
  26 -27  -4 3161.18 1315.69   1
 -27   1  -4 1427.62 1117.07   2
 -26  -1  -4 1879.42 1122.76   2
   1  26  -4 861.032 1301.03   3
  -1  27  -4 3895.45 1517.51   3
  27 -26  -4-1333.65 1399.43   1
 -27   1  -4 3432.12 1200.11   4
 -26  -1  -4 1580.40 1141.24   4
   1  26  -1 8780.33 1428.74   3
  -1  27  -1 8631.73 1418.25   3
  26 -27  -1 7746.15 1394.66   1
  27 -26  -1 8241.56 1467.36   1
 -27   1  -1 10175.7 1548.75   4
 -26  -1  -1 13123.1 1687.37   4
 -27   1  -1 8408.37 1323.66   2
 -26  -1  -1 8471.36 1315.53   2
   1  26   2 4396.09 1196.68   3
  -1  27   2 2786.88 1143.50   3
  26 -27   2 4241.88 1241.28   1
  27 -26   2 4115.54 1182.31   1
 -27   1   2 6095.54 1463.31   4
 -26  -1   2 4446.11 1438.64   4
 -27   1   2 4523.71 1241.96   2
 -26  -1   2 5075.46 1198.47   2
  26 -27   5 3158.46 1318.81   1
   1  26   5 5015.92 1348.73   3
  -1  27   5 6170.62 1364.50   3
  27 -26   5 5489.28 1428.43   1
 -27   1   5 8200.02 1611.59   4
 -26  -1   5 4655.67 1432.16   4
 -27   1   5 7148.94 1436.72   2
 -26  -1   5 3957.96 1333.48   2
 -27   2  -5 6680.17 1382.01   2
 -25  -2  -5 4800.53 1366.09   2
   2  25  -5 4554.29 1628.68   3
  -2  27  -5 6423.68 1765.97   3
 -27   2  -5 12763.6 1514.80   4
 -25  -2  -5 10904.8 1509.12   4
 -27   2  -2 371.363 951.143   2
 -25  -2  -2 953.728 1023.98   2
   2  25  -2 1868.04 1093.87   3
  -2  27  -2 1393.93 1180.41   3
  27 -25  -2 2822.87 1284.57   1
 -27   2  -2 2909.42 1184.36   4
 -25  -2  -2 1935.73 1177.75   4
  25 -27  -2 2151.04 1117.90   1
   2  25   1 5601.86 1193.43   3
  -2  27   1 4656.68 1263.58   3
  25 -27   1 5463.95 1175.91   1
 -27   2   1 5104.62 1325.46   4
 -25  -2   1 5358.40 1357.94   4
  27 -25   1 3388.47 1090.65   1
 -27   2   1 4897.31 1231.26   2
 -25  -2   1 5189.51 1235.62   2
  25 -27   4-450.758 1095.08   1
   2  25   4 2253.39 1073.57   3
  -2  27   4-846.860 1226.69   3
  27 -25   4 2790.47 1198.71   1
 -27   2   4 2560.16 1326.30   4
 -25  -2   4-295.732 1183.62   4
 -27   2   4 14.5242 1126.65   2
 -25  -2   4-527.625 1089.80   2
 -27   3  -6 9826.19 1575.79   2
 -24  -3  -6 8957.31 1783.15   2
   3  24  -6 8172.96 1825.53   3
  -3  27  -6 6946.12 1925.31   3
 -27   3  -6 14440.0 1543.64   4
 -24  -3  -6 13648.6 1585.84   4
  27 -24  -3-1474.82 1338.79   1
 -27   3  -3-414.880 966.513   2
 -24  -3  -3 333.105 1055.33   2
   3  24  -3 937.400 1131.63   3
  -3  27  -3-671.257 1233.64   3
 -27   3  -3 1299.36 1149.69   4
 -24  -3  -3 3158.94 1136.99   4
  24 -27  -3-173.866 1069.16   1
  24 -27   0 14153.0 1420.15   1
   3  24   0 17701.9 1560.63   3
  -3  27   0 17867.6 1632.04   3
  27 -24   0 15636.1 1589.04   1
 -27   3   0 23568.8 1955.34   4
 -24  -3   0 21103.1 1893.99   4
 -27   3   0 19132.7 1610.69   2
 -24  -3   0 13561.4 1473.00   2
  24 -27   3 3425.90 1150.19   1
   3  24   3 598.830 1061.79   3
  -3  27   3 2646.94 1146.39   3
  27 -24   3 1075.86 1100.92   1
 -24  -3   3 3366.09 1323.52   4
 -27   3   3 4074.76 1207.49   2
 -24  -3   3 1708.07 1100.23   2
  -3  27   6 17529.6 1818.05   3
  24 -27   6 21006.5 1954.48   1
 -27   3   6 24561.6 2243.80   4
 -24  -3   6 24772.1 2185.61   4
  27 -24   6 18485.8 1895.69   1
 -27   3   6 18425.2 1902.36   2
 -24  -3   6 18611.1 1887.47   2
   3  24   6 16037.1 1746.63   3
 -23  -4  -7-382.048 1079.40   4
 -27   4  -4 1330.83 939.456   2
 -23  -4  -4 627.451 1127.30   2
   4  23  -4 1931.52 1202.82   3
  -4  27  -4-868.043 1393.56   3
 -27   4  -4 140.893 966.301   4
 -23  -4  -4 1232.12 1088.64   4
  23 -27  -4 700.401 1002.40   1
  27 -23  -4 219.561 1267.01   1
  23 -27  -1 3392.70 1001.34   1
 -23  -4  -1 4269.09 1183.73   2
   4  23  -1 4219.67 1067.32   3
  -4  27  -1 4569.30 1196.17   3
 -27   4  -1 6110.09 1299.19   4
 -23  -4  -1 7375.32 1368.29   4
  27 -23  -1 2495.62 1179.46   1
 -27   4  -1 4340.37 1057.52   2
   4  23   2-459.217 957.904   3
  23 -27   2 107.375 915.003   1
  -4  27   2 1089.75 1074.67   3
 -27   4   2 1129.88 1187.43   4
 -23  -4   2-661.128 1148.23   4
  27 -23   2 537.097 1044.87   1
 -27   4   2 149.357 939.505   2
 -23  -4   2-159.218 956.398   2
   4  23   5 3486.92 1212.21   3
  -4  27   5 5362.37 1330.45   3
 -27   4   5 6306.82 1511.35   4
 -23  -4   5 6010.33 1454.31   4
  27 -23   5 7228.96 1404.99   1
  23 -27   5 5188.33 1307.94   1
 -27   4   5 6233.57 1418.05   2
 -23  -4   5 5286.65 1312.30   2
 -27   5  -5 6856.31 1202.05   2
 -22  -5  -5 5377.98 1433.70   2
   5  22  -5 6376.81 1539.03   3
  -5  27  -5 6129.02 1753.84   3
 -27   5  -5 7272.45 1250.84   4
 -22  -5  -5 9717.55 1443.08   4
  27 -22  -2 8386.36 1536.11   1
   5  22  -2 7428.44 1222.91   3
 -22  -5  -2 6111.29 1270.47   2
  -5  27  -2 6011.57 1350.86   3
  22 -27  -2 7788.81 1208.46   1
 -27   5  -2 9319.58 1400.17   4
 -22  -5  -2 8430.16 1389.42   4
 -27   5  -2 7016.04 1145.01   2
   5  22   1 12053.7 1367.96   3
  -5  27   1 12548.4 1433.34   3
  27 -22   1 10008.5 1392.80   1
 -27   5   1 12543.8 1642.56   4
 -22  -5   1 17062.1 1774.82   4
  22 -27   1 10689.1 1240.23   1
 -27   5   1 13913.9 1407.48   2
 -22  -5   1 13015.5 1518.04   2
   5  22   4 4815.95 1187.52   3
  -5  27   4 3727.53 1207.40   3
  27 -22   4 3760.97 1222.28   1
 -27   5   4 5509.24 1434.16   4
 -22  -5   4 7335.91 1466.95   4
 -27   5   4 7238.95 1347.63   2
  22 -27   4 5771.73 1263.33   1
 -22  -5   4 5048.98 1191.85   2
  -5  27   7 8082.76 1515.26   3
  27 -22   7 7586.94 1550.89   1
 -27   5   7 7413.86 1625.34   4
  22 -27   7 7572.92 1638.59   1
 -22  -5   7 7206.04 1545.48   4
 -27   5   7 6537.43 1518.30   2
 -22  -5   7 6829.46 1467.05   2
   5  22   7 10860.6 1588.67   3
 -21  -6  -6 12097.4 1936.97   2
   6  21  -6 8732.35 1693.36   3
  -6  27  -6 8141.99 1869.84   3
 -27   6  -6 13579.1 1439.87   4
 -21  -6  -6 14104.8 1592.46   4
 -27   6  -3 2957.09 906.188   2
 -21  -6  -3 4426.76 1249.35   2
   6  21  -3 5306.30 1223.24   3
  -6  27  -3 5402.09 1431.15   3
  27 -21  -3 4694.44 1498.96   1
  21 -27  -3 4254.47 1053.67   1
 -27   6  -3 6070.69 1243.46   4
 -21  -6  -3 7963.11 1397.96   4
   6  21   0 44174.5 1981.42   3
  -6  27   0 41611.1 2192.72   3
  27 -21   0 44002.0 2307.19   1
 -27   6   0 52217.8 2604.31   4
 -21  -6   0 53503.5 2672.50   4
 -27   6   0 41326.2 2054.32   2
  21 -27   0 41718.7 1883.13   1
 -21  -6   0 44517.7 2298.89   2
   6  21   3 2608.91 1041.19   3
  -6  27   3 4218.37 1204.25   3
  21 -27   3 5665.91 1166.91   1
  27 -21   3 2199.07 1107.86   1
 -27   6   3 3247.75 1282.84   4
 -21  -6   3 3650.06 1286.82   4
 -27   6   3 3500.26 1110.14   2
 -21  -6   3 3212.30 1136.21   2
  -6  27   6 14334.2 1611.21   3
  21 -27   6 19484.3 1938.66   1
 -27   6   6 14693.5 1813.06   4
 -21  -6   6 18305.9 1936.64   4
 -27   6   6 17304.0 1828.58   2
  27 -21   6 13779.5 1717.01   1
 -21  -6   6 11589.3 1545.15   2
   6  21   6 15974.2 1662.95   3
 -20  -7  -7-749.838 1077.59   4
 -27   7  -4 417.063 799.835   2
 -20  -7  -4 577.980 1175.01   2
   7  20  -4 490.267 1048.26   3
  -7  27  -4 4465.65 1636.10   3
  20 -27  -4-195.397 862.810   1
  27 -20  -4 365.703 1304.53   1
 -27   7  -4 1485.59 994.529   4
 -20  -7  -4 1382.69 1051.88   4
 -20  -7  -1 3365.77 1125.71   2
  27 -20  -1 3131.08 1248.35   1
   7  20  -1 3788.84 970.644   3
  -7  27  -1 2687.18 1158.78   3
 -27   7  -1 3514.41 1161.15   4
 -20  -7  -1 2341.95 1178.88   4
  20 -27  -1 3126.90 886.537   1
 -27   7  -1 2269.01 908.498   2
 -20  -7   2 3035.07 1069.65   2
   7  20   2 1580.08 870.938   3
  -7  27   2 3158.35 1150.15   3
 -27   7   2 5290.46 1330.63   4
 -20  -7   2 2675.95 1179.03   4
  27 -20   2 2924.73 1165.97   1
 -27   7   2 3638.08 1074.97   2
  20 -27   2 3772.87 1062.61   1
   7  20   5 3762.93 1135.96   3
  -7  27   5 4236.85 1221.59   3
  27 -20   5 2583.82 1200.44   1
 -27   7   5 4170.55 1379.66   4
  20 -27   5 6806.96 1383.87   1
 -20  -7   5 2607.00 1291.95   4
 -27   7   5 5889.13 1362.69   2
 -20  -7   5 2840.32 1164.71   2
 -27   8  -5 3906.13 1037.70   2
 -19  -8  -5 2859.16 1459.58   2
   8  19  -5 3831.03 1294.19   3
  -8  27  -5 4979.96 1652.79   3
 -27   8  -5 6035.73 1173.64   4
 -19  -8  -5 6148.24 1258.88   4
  19 -27  -2 2933.41 879.168   1
 -19  -8  -2 2335.18 1111.81   2
   8  19  -2 3646.05 967.099   3
  -8  27  -2 3402.43 1192.02   3
 -27   8  -2 2967.46 1124.06   4
 -19  -8  -2 3123.84 1235.64   4
  27 -19  -2 3461.50 1225.57   1
 -27   8  -2 3710.19 928.081   2
   8  19   1 8888.86 1099.66   3
 -19  -8   1 7956.72 1284.09   2
  -8  27   1 6527.89 1318.99   3
  27 -19   1 9074.99 1404.67   1
 -27   8   1 11468.6 1500.16   4
  19 -27   1 8660.60 1139.00   1
 -19  -8   1 9959.59 1496.97   4
 -27   8   1 9888.48 1257.39   2
  -8  27   4 13117.0 1471.23   3
  19 -27   4 16836.2 1666.30   1
 -27   8   4 14527.3 1711.93   4
 -19  -8   4 16367.6 1792.63   4
 -27   8   4 13888.0 1570.09   2
 -19  -8   4 12525.6 1470.68   2
  27 -19   4 12071.5 1469.15   1
   8  19   4 15094.3 1493.13   3
   8  19   7 5504.19 1388.32   3
  -8  27   7 4656.54 1346.24   3
  27 -19   7 4178.38 1367.44   1
  19 -27   7 9431.69 1676.36   1
 -27   8   7 7129.29 1545.93   4
 -19  -8   7 6266.70 1398.78   4
 -27   8   7 5808.72 1505.01   2
 -19  -8   7 5230.48 1360.16   2
 -18  -9  -6 18673.5 2164.37   2
  -9  27  -6 13900.0 2112.32   3
 -27   9  -6 16292.4 1471.84   4
 -18  -9  -6 16625.7 1665.59   4
   9  18  -3 6764.19 1099.33   3
 -18  -9  -3 6874.10 1384.14   2
  -9  27  -3 7979.95 1557.78   3
 -27   9  -3 9526.70 1335.73   4
 -18  -9  -3 7825.01 1382.43   4
  18 -27  -3 5832.36 975.449   1
  27 -18  -3 7043.72 1538.97   1
 -27   9  -3 7424.18 1027.01   2
   9  18   0 10045.9 1123.20   3
  -9  27   0 10999.5 1418.22   3
 -27   9   0 10518.7 1464.14   4
  27 -18   0 10128.5 1447.27   1
 -18  -9   0 13031.8 1613.58   4
  18 -27   0 9464.37 1028.44   1
 -27   9   0 9164.36 1164.05   2
 -18  -9   0 10319.9 1416.62   2
 -18  -9   3 3145.79 1118.47   2
   9  18   3 1603.04 924.136   3
  -9  27   3 2082.33 1119.14   3
 -27   9   3 2242.21 1163.50   4
  18 -27   3 2392.53 1106.04   1
 -18  -9   3 3907.52 1237.99   4
  27 -18   3 2840.06 1079.76   1
 -27   9   3 4836.22 1207.06   2
   9  18   6 5218.32 1250.38   3
  -9  27   6 6199.17 1333.84   3
  27 -18   6 2934.25 1219.98   1
  18 -27   6 7227.82 1502.80   1
 -27   9   6 5637.49 1466.54   4
 -27   9   6 9093.94 1562.14   2
 -18  -9   6 7304.79 1386.00   4
 -18  -9   6 6972.97 1368.30   2
 -27  10  -7 2763.94 922.754   4
 -17 -10  -7 81.7404 1048.80   4
 -17 -10  -4 9942.36 1651.47   2
  10  17  -4 9771.28 1258.67   3
 -10  27  -4 12942.1 1819.27   3
 -27  10  -4 13189.1 1437.23   4
 -17 -10  -4 12916.7 1517.07   4
 -27  10  -4 10238.7 1064.98   2
  10  17  -1 2877.97 867.564   3
 -17 -10  -1 2993.70 1140.24   2
 -10  27  -1 3809.03 1219.79   3
  17 -27  -1 1955.82 778.846   1
 -27  10  -1 4085.15 1178.31   4
  27 -17  -1 462.911 1126.57   1
 -17 -10  -1 5009.26 1312.77   4
 -27  10  -1 3697.96 906.179   2
  10  17   2 2773.62 959.619   3
 -17 -10   2 3970.45 1138.84   2
 -10  27   2 3737.14 1178.91   3
 -27  10   2 2983.22 1233.44   4
  17 -27   2 1653.46 917.470   1
 -17 -10   2 3426.77 1222.92   4
 -27  10   2 3122.14 1004.98   2
  27 -17   2 2342.74 1065.19   1
  10  17   5 920.145 1053.83   3
 -10  27   5 1474.78 1041.73   3
  27 -17   5 789.333 1037.29   1
  17 -27   5-272.496 1130.72   1
 -27  10   5-116.314 1110.76   4
 -17 -10   5-26.5029 1125.84   4
 -27  10   5 870.682 1119.16   2
 -17 -10   5 1353.10 1050.91   2
 -10  27   8 4753.99 1341.88   3
  27 -17   8 3893.86 1320.91   1
  17 -27   8 4742.70 1593.29   1
 -27  10   8 6979.78 1563.39   4
 -17 -10   8 4155.05 1524.55   4
 -27  10   8 6718.62 1599.64   2
 -17 -10   8 4576.94 1362.45   2
  10  17   8 4860.67 1413.06   3
 -16 -11  -8 1851.11 1124.86   4
 -27  11  -5 5727.17 939.367   2
 -16 -11  -5 9159.06 1752.29   2
 -11  27  -5 8463.48 1818.17   3
 -27  11  -5 9040.93 1261.24   4
 -16 -11  -5 9287.19 1410.16   4
 -16 -11  -2 9209.45 1440.14   2
  16 -27  -2 7350.02 898.592   1
  11  16  -2 9554.83 1026.96   3
 -11  27  -2 10835.3 1625.51   3
  27 -16  -2 7395.52 1440.44   1
 -27  11  -2 12061.8 1435.98   4
 -16 -11  -2 10894.4 1613.90   4
 -27  11  -2 8779.24 1025.37   2
  11  16   1 13072.7 1164.99   3
 -11  27   1 9272.51 1346.18   3
  16 -27   1 13484.0 1206.92   1
  27 -16   1 10889.7 1439.58   1
 -27  11   1 15172.0 1684.26   4
 -16 -11   1 14865.7 1709.31   4
 -27  11   1 11362.0 1251.91   2
 -16 -11   1 11646.4 1398.77   2
  27 -16   4 9379.85 1370.56   1
 -11  27   4 8174.83 1324.44   3
  16 -27   4 11854.1 1480.96   1
 -27  11   4 12770.2 1637.51   4
 -27  11   4 8581.60 1375.39   2
 -16 -11   4 10054.6 1474.60   4
 -16 -11   4 8431.38 1377.29   2
  11  16   4 12046.2 1372.44   3
 -11  27   7 6110.18 1366.48   3
  27 -16   7 6761.35 1415.01   1
  16 -27   7 7895.03 1668.04   1
 -27  11   7 6929.69 1522.86   4
 -27  11   7 8107.87 1648.67   2
 -16 -11   7 5792.06 1394.08   4
  11  16   7 9751.61 1495.80   3
 -16 -11   7 7377.95 1395.91   2
 -27  12  -6 915.895 862.096   4
 -15 -12  -6 783.875 1070.63   4
  27 -15  -3 7672.68 1522.41   1
  12  15  -3 5736.57 953.139   3
 -12  27  -3 8095.95 1645.48   3
 -15 -12  -3 8416.78 1543.73   2
 -27  12  -3 10104.9 1325.79   4
  15 -27  -3 4670.07 773.816   1
 -15 -12  -3 9711.40 1508.40   4
 -27  12  -3 6642.00 896.377   2
  12  15   0 3112.54 831.894   3
 -15 -12   0 2629.58 1199.66   2
 -12  27   0 4108.47 1220.23   3
  27 -15   0 2529.31 1133.29   1
 -27  12   0 6022.25 1341.79   4
  15 -27   0 4787.36 859.758   1
 -15 -12   0 4225.61 1273.57   4
 -27  12   0 3958.84 966.512   2
  12  15   3 1171.04 909.325   3
 -15 -12   3 133.286 1083.14   2
 -12  27   3 1315.05 1082.57   3
  15 -27   3 2467.91 1067.75   1
 -27  12   3 2762.57 1178.00   4
 -15 -12   3 3860.00 1285.61   4
 -27  12   3 3837.11 1166.85   2
  27 -15   3 346.468 1029.45   1
 -15 -12   6 4372.76 1316.28   2
 -12  27   6 8466.92 1388.08   3
  15 -27   6 4714.30 1489.07   1
  27 -15   6 6401.14 1370.94   1
 -27  12   6 9372.28 1570.45   4
 -27  12   6 8667.03 1558.34   2
 -15 -12   6 8959.60 1500.05   4
  12  15   6 6101.02 1315.00   3
 -14 -13  -7 3113.72 1276.30   4
  13  14  -4 7149.62 1055.18   3
 -13  27  -4 11664.6 1868.25   3
 -14 -13  -4 9607.08 1665.32   2
 -27  13  -4 11702.6 1369.54   4
 -14 -13  -4 12301.6 1525.51   4
 -27  13  -4 9454.86 925.834   2
  13  14  -1 15286.0 1108.70   3
 -14 -13  -1 15090.3 1708.19   2
 -13  27  -1 15126.3 1709.83   3
  27 -14  -1 13352.7 1609.38   1
 -27  13  -1 19462.2 1697.63   4
  14 -27  -1 15067.9 1048.28   1
 -14 -13  -1 21141.2 1873.70   4
 -27  13  -1 15753.6 1226.97   2
 -13  27   2 11440.7 1449.32   3
  14 -27   2 12505.7 1307.89   1
  27 -14   2 9260.15 1370.86   1
 -27  13   2 13812.3 1613.47   4
 -27  13   2 13438.5 1426.13   2
 -14 -13   2 16989.2 1811.69   4
  13  14   2 10810.3 1181.57   3
 -14 -13   2 11874.3 1445.97   2
  14 -27   5 9781.00 1606.24   1
  27 -14   5 7758.32 1342.66   1
 -14 -13   5 5255.70 1227.39   2
 -13  27   5 8626.86 1354.78   3
 -27  13   5 8956.25 1493.13   4
 -27  13   5 7350.43 1483.10   2
 -14 -13   5 10136.1 1591.92   4
  13  14   5 7858.45 1306.79   3
 -13  27   8 5341.96 1356.93   3
 -27  13   8 11962.1 1773.15   4
 -27  13   8 12893.5 1869.40   2
 -14 -13   8 12597.8 1816.55   4
  27 -14   8 8452.56 1602.43   1
 -14 -13   8 7664.16 1486.86   2
  13  14   8 13311.3 1741.20   3
  14 -27   8 14182.9 2062.29   1
 -13 -14  -5 10458.3 1857.21   2
 -14  27  -5 6382.06 1642.46   3
 -27  14  -5 9049.04 1218.79   4
 -13 -14  -5 9107.59 1430.86   4
  14  13  -2 11496.5 987.119   3
 -13 -14  -2 14046.9 1730.78   2
 -14  27  -2 12409.5 1690.62   3
 -27  14  -2 12913.5 1481.12   4
 -13 -14  -2 14080.6 1639.60   4
 -27  14  -2 12491.5 1084.50   2
  13 -27  -2 10399.7 827.342   1
  27 -13  -2 12787.9 1739.21   1
 -13 -14   1 17517.3 1697.22   2
 -14  27   1 11848.5 1492.93   3
  13 -27   1 17853.0 1292.17   1
 -27  14   1 17209.9 1725.95   4
 -27  14   1 14824.8 1362.80   2
 -13 -14   1 18549.6 1814.58   4
  27 -13   1 11886.5 1505.11   1
  14  13   1 16571.4 1194.81   3
  13 -27   4 14766.3 1705.39   1
 -14  27   4 8343.21 1359.53   3
  27 -13   4 8262.40 1361.39   1
 -27  14   4 12368.8 1577.54   4
 -27  14   4 10732.8 1511.92   2
 -13 -14   4 9952.14 1553.57   4
  14  13   4 13395.4 1380.02   3
 -13 -14   4 10201.9 1375.18   2
 -13 -14   7 2034.45 1174.92   2
 -14  27   7 3334.79 1232.39   3
  13 -27   7 1651.41 1412.85   1
  27 -13   7 1535.34 1208.95   1
 -27  14   7 3738.25 1319.94   4
 -27  14   7 3203.33 1485.54   2
 -13 -14   7 3528.53 1338.87   4
  14  13   7 1618.78 1192.71   3
 -27  15  -6 9999.63 1257.97   4
 -12 -15  -6 9465.71 1525.80   4
  15  12  -3 1740.24 729.590   3
 -12 -15  -3 2198.87 1340.95   2
 -15  27  -3 3493.46 1480.64   3
 -27  15  -3 1323.91 1024.20   4
 -27  15  -3 3124.94 715.067   2
 -12 -15   0 1937.06 1115.75   2
 -15  27   0 6026.94 1312.97   3
 -27  15   0 4296.26 1133.29   4
  12 -27   0 2769.14 795.578   1
  27 -12   0 1612.15 1138.53   1
 -12 -15   0 2892.77 1243.79   4
 -27  15   0 3950.12 940.119   2
  15  12   0 4263.38 808.281   3
  12 -27   3 12371.1 1465.62   1
 -15  27   3 8108.81 1359.28   3
  27 -12   3 10793.5 1445.85   1
 -27  15   3 10618.2 1533.61   4
 -27  15   3 10290.3 1411.30   2
 -12 -15   3 10842.0 1590.10   4
  15  12   3 9959.50 1206.74   3
 -12 -15   3 11684.9 1556.34   2
 -12 -15   6 751.476 1096.21   2
 -15  27   6 1587.36 1150.35   3
  12 -27   6 1974.15 1462.86   1
 -27  15   6-630.729 1201.91   4
 -27  15   6 2026.52 1253.57   2
  27 -12   6 1715.33 1177.21   1
 -12 -15   6 2250.12 1212.01   4
  15  12   6 480.646 1125.52   3
 -11 -16  -4 10131.8 1867.58   2
 -16  27  -4 12553.0 1974.77   3
 -27  16  -4 12191.2 1397.52   4
 -11 -16  -4 10743.0 1496.75   4
 -27  16  -4 9024.06 807.731   2
  16  11  -1 10772.7 909.708   3
 -16  27  -1 12476.3 1584.54   3
 -11 -16  -1 7367.19 1520.39   2
  11 -27  -1 10222.1 862.420   1
 -27  16  -1 11939.1 1467.15   4
  27 -11  -1 10857.2 1657.57   1
 -27  16  -1 10666.2 1149.92   2
 -11 -16  -1 11673.5 1591.78   4
  11 -27   2 10333.2 1280.15   1
 -11 -16   2 9135.61 1407.08   2
 -16  27   2 7859.51 1319.49   3
 -27  16   2 12410.1 1580.81   4
 -27  16   2 8871.18 1272.93   2
 -11 -16   2 10408.7 1571.36   4
  27 -11   2 6772.72 1285.78   1
  16  11   2 11310.9 1162.38   3
 -11 -16   5 6940.03 1346.03   2
 -16  27   5 9414.13 1403.02   3
  27 -11   5 7370.64 1387.42   1
 -27  16   5 9632.11 1493.53   4
 -27  16   5 10798.0 1606.74   2
 -11 -16   5 8017.06 1487.45   4
  11 -27   5 12068.6 1676.97   1
  16  11   5 10391.0 1403.41   3
 -11 -16   8 1969.19 1196.18   2
  11 -27   8 6482.00 1848.44   1
 -16  27   8 3808.10 1373.50   3
 -11 -16   8 8947.93 2626.81   1
 -27  16   8 3792.59 1363.66   4
  27 -11   8 2386.23 1320.79   1
 -27  16   8 6584.68 1681.34   2
 -11 -16   8 4059.40 1388.04   4
  16  11   8 4963.91 1463.89   3
 -27  17  -5 601.742 932.655   4
 -10 -17  -5 1485.17 1172.60   4
  17  10  -2 3683.83 676.546   3
 -10 -17  -2 2244.87 1374.94   2
 -17  27  -2 3760.25 1345.37   3
 -27  17  -2 4827.66 1219.13   4
 -27  17  -2 7617.63 884.449   2
  27 -10  -2 2172.60 1402.94   1
  10 -27  -2 3332.02 554.979   1
 -10 -17  -2 4121.09 1304.00   4
  17  10   1 3139.57 836.109   3
 -10 -17   1 2653.90 1273.93   2
 -17  27   1 2592.93 1244.11   3
  10 -27   1 3134.02 918.951   1
 -27  17   1 1386.45 1132.00   4
  27 -10   1 2154.41 1201.86   1
 -27  17   1 3455.67 1064.86   2
 -10 -17   1 2762.66 1247.39   4
 -17  27   4 10597.6 1423.50   3
  27 -10   4 7865.70 1398.44   1
 -27  17   4 10141.0 1529.17   4
 -27  17   4 10762.5 1562.26   2
 -10 -17   4 9254.20 1547.72   4
  10 -27   4 14749.8 1723.17   1
  17  10   4 11373.5 1382.04   3
 -10 -17   4 8728.94 1388.59   2
  10 -27   7 5137.18 1741.14   1
 -10 -17   7 3115.27 1249.90   2
 -17  27   7 1059.01 1156.94   3
 -10 -17   7 1390.22 2160.55   1
 -27  17   7 3081.66 1301.18   4
 -27  17   7 2571.33 1430.43   2
 -10 -17   7 2830.89 1361.49   4
  27 -10   7 105.797 1130.19   1
  17  10   7 2764.11 1346.92   3
 -27  18  -6 5346.50 1101.04   4
 -18  27  -3 2778.44 1557.98   3
  -9 -18  -3 4569.10 1569.75   2
 -27  18  -3 3763.90 1155.48   4
 -27  18  -3 3332.85 725.595   2
  -9 -18  -3 3017.67 1257.43   4
   9 -27   0 14555.0 1108.92   1
  -9 -18   0 12763.1 1586.59   2
 -18  27   0 10868.8 1574.57   3
 -27  18   0 16262.1 1668.71   4
  27  -9   0 13484.6 1665.52   1
 -27  18   0 11782.2 1269.71   2
  -9 -18   0 14735.5 1728.47   4
  18   9   0 11599.1 959.242   3
  -9 -18   3 8896.36 1458.16   2
 -18  27   3 8196.49 1405.45   3
 -27  18   3 10031.8 1511.62   4
 -27  18   3 9914.38 1503.29   2
  27  -9   3 7614.36 1389.11   1
  -9 -18   3 10299.4 1511.75   4
   9 -27   3 10464.9 1526.94   1
  18   9   3 9891.63 1244.16   3
 -18  27   6 16132.1 1714.41   3
  27  -9   6 18486.3 1850.32   1
  -9 -18   6 20270.3 2665.11   1
 -27  18   6 21545.3 1965.32   4
 -27  18   6 19113.9 2022.19   2
  -9 -18   6 19940.8 1900.75   4
   9 -27   6 20285.2 2245.52   1
  18   9   6 18248.1 1782.74   3
  -9 -18   6 14917.0 1669.66   2
 -19  27  -4 16705.6 2096.38   3
 -27  19  -4 16407.8 1540.85   4
  -8 -19  -4 15910.0 1781.78   4
   8 -27  -1 10107.9 846.219   1
 -19  27  -1 11060.5 1706.76   3
  -8 -19  -1 4753.23 1430.84   2
 -27  19  -1 8965.24 1421.36   4
  27  -8  -1 6012.16 1436.22   1
 -27  19  -1 7986.89 1064.52   2
  -8 -19  -1 8605.95 1517.46   4
  19   8  -1 6564.34 730.137   3
  -8 -19   2 3987.60 1396.36   2
 -19  27   2 3977.31 1200.13   3
 -27  19   2 4898.32 1286.61   4
  27  -8   2 4646.62 1285.67   1
 -27  19   2 5802.77 1242.11   2
  -8 -19   2 6530.66 1394.46   4
   8 -27   2 6122.85 1276.29   1
  19   8   2 8074.56 1080.48   3
   8 -27   5 5241.08 1513.03   1
  -8 -19   5 5388.79 1420.83   2
 -19  27   5 5756.18 1282.63   3
  27  -8   5 5396.36 1331.29   1
 -27  19   5 4594.33 1306.65   4
  -8 -19   5 7038.36 2159.84   1
 -27  19   5 5447.12 1492.17   2
  -8 -19   5 6592.32 1395.93   4
  19   8   5 5855.94 1323.69   3
 -27  20  -5 4235.78 1134.60   4
  -7 -20  -2 3926.07 1491.39   2
 -27  20  -2 5018.65 1263.90   4
 -27  20  -2 4506.29 848.635   2
  -7 -20  -2 5254.17 1420.23   4
  27  -7   1 2556.55 1291.58   1
   7 -27   1 4406.87 1010.26   1
 -20  27   1 2790.93 1328.22   3
  -7 -20   1 5171.57 1409.49   2
 -27  20   1 3063.20 1216.12   4
 -27  20   1 2716.26 1083.32   2
  -7 -20   1 3719.71 1316.93   4
  20   7   1 2771.03 819.217   3
   7 -27   4 744.988 1276.87   1
  -7 -20   4-147.217 1186.68   2
 -20  27   4-600.322 1143.65   3
 -27  20   4-1379.44 1131.49   3
 -27  20   4 844.817 1100.52   4
  -7 -20   4 121.381 1628.02   1
 -27  20   4 829.058 1183.75   2
  -7 -20   4 1976.97 1229.12   4
  27  -7   4 1478.99 1214.85   1
  20   7   4 1728.67 1098.74   3
  27  -7   7 903.600 1264.87   1
  -7 -20   7-593.254 1172.48   2
 -20  27   7 1006.64 1195.51   3
 -20  27   7 1367.55 1511.86   4
 -20  27   7 925.983 1855.20   2
 -27  20   7-2017.16 1322.92   4
  -7 -20   7-323.246 2021.04   1
 -27  20   7 379.324 1407.22   2
  -7 -20   7 630.148 1294.55   4
  27  -7   7-427.807 1611.45   3
  20   7   7 1641.54 1214.96   3
   7 -27   7-1226.00 1576.65   1
 -21  27  -6 22938.9 1946.90   4
 -27  21  -6 18538.3 1583.55   4
 -21  27  -3 3330.28 1607.53   3
 -21  27  -3 4217.81 997.449   2
 -27  21  -3 5846.01 1285.04   4
 -27  21  -3 4311.78 725.706   2
  -6 -21  -3 4286.91 1336.00   4
  27  -6   0 43252.4 2664.02   1
  -6 -21   0 45226.2 2744.86   2
 -21  27   0 46317.9 2640.94   3
  -6 -21   0 45405.1 2370.54   1
 -27  21   0 54230.0 2717.59   4
 -27  21   0 50017.3 2214.06   2
  -6 -21   0 51424.6 2787.39   4
  27  -6   0 56622.3 2150.38   3
  21   6   0 50570.2 1605.36   3
   6 -27   0 50199.6 1849.68   1
 -21  27   3 6491.20 1408.85   3
  -6 -21   3 3012.65 1352.98   2
 -27  21   3 4928.66 1288.35   3
 -27  21   3 5374.99 1398.13   4
 -27  21   3 9236.18 1466.97   2
  -6 -21   3 6762.91 1707.20   1
  -6 -21   3 7917.93 1538.75   4
  27  -6   3 7495.20 1490.18   3
  21   6   3 7160.48 1226.87   3
  27  -6   3 8653.89 1534.31   1
   6 -27   3 7171.07 1465.14   1
  -6 -21   6 7502.52 1460.36   2
 -21  27   6 7112.27 1439.48   3
 -21  27   6 15071.9 2407.16   2
 -21  27   6 12070.9 1995.94   4
 -27  21   6 10784.8 1732.08   4
 -27  21   6 11407.5 1895.67   2
  27  -6   6 7356.47 1544.56   1
  -6 -21   6 11393.8 2367.55   1
   6 -27   6 12837.9 1996.89   1
  -6 -21   6 10486.3 1667.92   4
  27  -6   6 13964.9 2020.80   3
  21   6   6 8386.57 1547.89   1
  21   6   6 11668.1 1607.52   3
 -22  27  -7 8544.75 1395.97   4
 -27  22  -4 5106.17 1240.66   4
   5 -27  -1 12691.9 923.758   1
  -5 -22  -1 13238.5 1930.24   2
 -22  27  -1 11275.0 1784.14   3
 -22  27  -1 14320.9 1569.42   2
 -27  22  -1 16603.4 1730.02   4
  -5 -22  -1 12465.1 1416.80   1
 -27  22  -1 13175.2 1312.06   2
  -5 -22  -1 14722.0 1864.98   4
  22   5  -1 12899.4 801.426   3
  27  -5   2 6789.02 1446.43   1
 -22  27   2 7563.30 1502.38   3
  -5 -22   2 6596.43 1509.41   2
 -27  22   2 8357.76 1512.65   3
 -22  27   2 9502.34 1813.58   2
  -5 -22   2 10588.9 1736.80   1
 -27  22   2 7784.46 1476.76   4
 -27  22   2 7671.85 1426.74   2
   5 -27   2 8661.14 1406.22   1
  -5 -22   2 8977.60 1573.48   4
  27  -5   2 10604.3 1471.38   3
  22   5   2 9767.21 1197.86   3
 -22  27   5 7886.19 1479.39   3
  22   5   5 6947.86 1622.81   1
  -5 -22   5 5174.24 1427.59   2
 -27  22   5 7938.96 1425.61   3
 -22  27   5 10537.0 1922.73   4
 -22  27   5 11347.4 2070.88   2
 -27  22   5 10104.0 1622.37   4
 -27  22   5 11494.3 1776.16   2
  -5 -22   5 9877.05 2096.55   1
  -5 -22   5 6832.11 1546.82   4
  27  -5   5 14318.7 1995.02   3
  22   5   5 8725.33 1517.08   3
   5 -27   5 7185.57 1742.37   1
  27  -5   5 6709.18 1531.32   1
 -23  27  -5 5999.93 1400.11   4
 -27  23  -5 7875.47 1375.37   4
 -23  27  -2 910.977 1507.64   3
 -27  23  -2 30.8567 1067.17   4
 -23  27  -2 2165.71 1056.31   2
 -27  23  -2 1341.96 766.969   2
  27  -4   1 4856.08 1517.47   1
 -23  27   1 2831.08 1394.86   3
  -4 -23   1 3188.66 1418.18   2
 -27  23   1 3328.88 1385.24   3
 -27  23   1 8444.42 1521.88   4
 -23  27   1 6840.62 1543.57   2
 -27  23   1 4553.76 1207.32   2
  -4 -23   1 4772.10 1419.90   1
   4 -27   1 6740.38 1244.78   1
  -4 -23   1 7244.29 1610.75   4
  27  -4   1 4984.84 1111.81   3
  23   4   1 6331.38 986.956   3
 -23  27   4 1821.78 1244.78   3
  -4 -23   4 1948.56 1392.53   2
 -27  23   4 742.582 1275.69   3
 -23  27   4 829.483 1391.78   4
 -23  27   4-569.497 1516.16   2
 -27  23   4-691.837 1253.42   4
 -27  23   4-274.291 1307.49   2
  27  -4   4 1200.85 1313.18   1
  -4 -23   4 3209.35 1679.85   1
  23   4   4 47.5803 1311.57   1
  -4 -23   4 73.2271 1295.36   4
  27  -4   4 4150.87 1496.23   3
   4 -27   4 2609.26 1493.62   1
  23   4   4 2321.39 1189.43   3
  23   4   7-1102.32 1395.93   1
 -23  27   7-184.383 1200.97   3
  -4 -23   7 830.053 1339.81   2
 -23  27   7 805.534 1820.52   2
 -27  23   7 398.247 1504.45   2
  -4 -23   7 2784.79 2098.39   1
  27  -4   7-174.580 1311.99   1
  27  -4   7 888.323 1550.60   3
  23   4   7 426.787 1351.82   3
   4 -27   7 2076.79 1690.96   1
 -24  27  -6 20728.0 1821.53   4
 -27  24  -6 15041.3 1602.24   4
 -24  27  -3 4079.30 1417.58   4
 -27  24  -3 6246.52 1407.64   4
  -3 -24   0 17059.9 2078.17   2
 -24  27   0 14906.7 1962.06   3
 -24  27   0 22668.1 2104.77   4
 -27  24   0 17912.8 1840.09   4
 -24  27   0 21182.0 1908.27   2
  -3 -24   0 17114.8 1610.01   1
 -27  24   0 20335.9 1641.02   2
   3 -27   0 18425.1 1398.55   1
  27  -3   0 19976.7 1312.67   3
  24   3   0 20273.3 1132.73   3
  27  -3   3-1064.65 1333.34   1
 -24  27   3 1809.69 1309.37   3
  -3 -24   3-639.996 1356.56   2
 -27  24   3 2009.75 1296.23   3
 -24  27   3 1873.93 1446.26   4
 -27  24   3 2644.24 1395.72   4
 -24  27   3 1563.15 1440.73   2
 -27  24   3 1625.14 1351.16   2
  24   3   3 2292.43 1471.08   1
  -3 -24   3 164.833 1519.46   1
  -3 -24   3 1775.96 1299.81   4
  27  -3   3 2966.41 1283.98   3
   3 -27   3 821.518 1377.44   1
  24   3   3 2088.51 1094.67   3
  -3 -24   6 9476.88 1719.37   2
  24   3   6 10856.1 1707.97   1
 -24  27   6 9642.17 1561.41   3
   3 -27   6 8408.36 1659.21   2
 -24  27   6 19357.6 2237.52   4
 -24  27   6 19309.1 2536.11   2
 -27  24   6 18243.0 2152.26   4
 -27  24   6 20536.4 2433.37   2
  -3 -24   6 23206.7 2722.12   1
   3 -27   6 19234.8 2478.80   1
  27  -3   6 18822.4 2159.65   3
  27  -3   6 11696.8 1899.93   1
  24   3   6 20283.6 2023.26   3
 -25  27  -4-201.998 1172.25   4
 -27  25  -4 964.409 1152.13   4
 -25  27  -1 2947.14 1686.28   3
 -25  27  -1 5721.84 1520.28   4
 -27  25  -1 4061.40 1338.65   4
 -25  27  -1 5433.28 1228.90   2
 -27  25  -1 3615.26 1055.34   2
  27  -2   2 1224.88 1449.37   1
 -25  27   2 2520.78 1507.34   3
  -2 -25   2 6145.65 1737.67   2
 -27  25   2 2604.48 1433.95   3
 -25  27   2 2722.34 1468.02   4
 -27  25   2 3098.30 1377.61   4
 -25  27   2 5835.84 1564.17   2
 -27  25   2 3678.86 1396.82   2
  -2 -25   2 4080.03 1436.92   1
   2 -27   2 1465.93 1247.87   1
  27  -2   2 3042.53 1106.09   3
  25   2   2 2335.85 994.541   3
 -27  25   5 8514.43 1608.19   3
 -25  27   5 4480.60 1432.11   3
  -2 -25   5 5726.98 1516.55   2
   2 -27   5 5338.76 1637.75   2
 -25  27   5 13974.5 2183.70   2
  25   2   5 9274.60 1742.49   1
 -25  27   5 6635.32 1720.00   4
 -27  25   5 8333.63 1915.84   2
 -27  25   5 8488.22 1702.34   4
  -2 -25   5 9388.35 1943.06   1
  27  -2   5 5644.96 1571.65   1
  27  -2   5 10093.4 1685.92   3
  25   2   5 10014.3 1602.87   3
   2 -27   5 10828.4 2059.19   1
 -26  27  -5 6631.25 1423.89   4
 -27  26  -5 5114.49 1345.54   4
 -26  27  -2 4066.68 1430.97   4
 -27  26  -2 3658.55 1389.87   4
 -26  27  -2 5042.04 1052.00   2
 -27  26  -2 5618.02 1049.02   2
  -1 -26   1 11594.1 1948.71   2
 -27  26   1 11736.0 1864.42   3
 -26  27   1 7604.53 1770.01   3
 -26  27   1 13008.6 1764.14   4
 -27  26   1 10852.3 1677.88   4
 -26  27   1 14288.0 1820.43   2
 -27  26   1 12898.7 1724.56   2
  -1 -26   1 12756.1 1669.69   1
   1 -27   1 12231.7 1540.82   1
  27  -1   1 14098.4 1314.06   3
  26   1   1 15635.2 1295.73   3
  27  -1   4 1975.75 1467.14   1
 -26  27   4 2819.34 1461.25   3
 -27  26   4 5220.51 1483.95   3
  -1 -26   4 1770.20 1433.66   2
   1 -27   4 2547.46 1560.67   2
 -26  27   4 3926.71 1521.46   4
 -27  26   4 3530.08 1488.70   4
 -26  27   4 6546.43 1752.20   2
 -27  26   4 1043.59 1527.03   2
  -1 -26   4 5391.97 1726.94   1
  26   1   4-1662.71 1488.87   1
   1 -27   4 1335.41 1483.40   1
  27  -1   4 4017.94 1364.29   3
  26   1   4 3038.88 1255.23   3
 -27  27  -3 808.363 1396.93   4
 -27  27   0 9015.10 1839.98   3
 -27  27   0 13190.1 1792.81   4
 -27  27   0 12398.6 1564.88   2
 -27  27   3 1635.62 1444.39   3
   0 -27   3-693.000 1561.76   2
 -27  27   3 1577.88 1351.77   4
  27   0   3-349.626 1480.92   1
 -27  27   3-311.173 1392.70   2
   0 -27   3 1789.56 1486.49   1
  27   0   3 2119.86 1248.07   3
 -28   0  -4 11635.0 1590.85   2
   0  28  -4 13470.3 1983.30   3
  28 -28  -4 8479.22 1679.92   1
 -28   0  -4 16222.5 1820.66   4
 -28   0  -1 39.1700 1107.56   2
   0  28  -1-269.243 1109.88   3
 -28   0  -1 2531.72 1266.91   4
  28 -28  -1-893.522 1205.16   1
   0  28   2 4435.56 1323.44   3
 -28   0   2 8408.21 1608.00   4
  28 -28   2 5193.74 1224.29   1
 -28   0   2 4086.57 1279.45   2
 -28   1  -5 2365.39 1242.68   2
 -27  -1  -5 3068.78 1387.82   2
   1  27  -5 5882.99 1731.28   3
  -1  28  -5 266.957 1570.22   3
 -28   1  -5 2586.66 1247.24   4
 -27  -1  -5 2483.11 1199.73   4
 -28   1  -2 882.512 1070.09   2
 -27  -1  -2 1792.08 1074.55   2
   1  27  -2 1063.51 1146.65   3
  -1  28  -2 2992.46 1394.19   3
  27 -28  -2 1868.73 1226.82   1
  28 -27  -2 2524.92 1339.80   1
 -28   1  -2 2530.94 1170.35   4
 -27  -1  -2 2243.53 1315.71   4
   1  27   1 2560.40 1142.45   3
  -1  28   1 990.514 1103.54   3
 -28   1   1 2650.86 1271.59   4
 -27  -1   1 3391.68 1406.30   4
  27 -28   1 2224.06 1130.51   1
  28 -27   1 2221.31 1176.33   1
 -28   1   1 1481.73 1108.59   2
 -27  -1   1 3390.01 1191.72   2
   1  27   4 2312.87 1248.37   3
  -1  28   4 5439.14 1356.62   3
  27 -28   4 3908.08 1294.62   1
  28 -27   4 5250.01 1329.31   1
 -28   1   4 6296.53 1582.23   4
 -27  -1   4 3368.18 1405.48   4
 -28   1   4 2821.52 1179.16   2
 -27  -1   4 4374.50 1304.22   2
 -26  -2  -3 11687.6 1585.71   2
   2  26  -3 9290.87 1587.30   3
  -2  28  -3 8659.04 1704.25   3
  26 -28  -3 12472.6 1576.59   1
  28 -26  -3 16749.7 1876.33   1
 -28   2  -3 16953.1 1765.33   4
 -26  -2  -3 17355.6 1775.75   4
 -28   2  -3 10697.3 1403.05   2
 -26  -2   0 5203.50 1203.91   2
   2  26   0 5864.08 1225.47   3
  -2  28   0 6913.76 1381.29   3
  28 -26   0 6045.49 1351.22   1
 -26  -2   0 9046.43 1637.08   4
 -28   2   0 8114.72 1443.28   4
  26 -28   0 3093.38 1119.31   1
 -28   2   0 6005.77 1249.81   2
   2  26   3 8711.99 1437.57   3
  -2  28   3 8726.52 1432.50   3
 -28   2   3 12844.6 1781.71   4
 -26  -2   3 10919.9 1664.41   4
  26 -28   3 8548.04 1387.72   1
 -28   2   3 8830.32 1451.06   2
 -26  -2   3 9062.48 1489.95   2
  28 -26   3 8568.50 1451.21   1
 -28   3  -4 3072.33 1142.11   2
 -25  -3  -4 3888.92 1377.80   2
   3  25  -4 3812.84 1467.49   3
  -3  28  -4 889.217 1495.97   3
 -28   3  -4 5531.27 1311.80   4
 -25  -3  -4 4577.75 1276.93   4
  28 -25  -4-64.3343 1438.51   1
  25 -28  -4 1291.11 1161.69   1
 -28   3  -1-161.211 945.122   2
 -25  -3  -1 2959.17 1134.16   2
   3  25  -1-495.528 1048.69   3
  25 -28  -1 765.171 1011.70   1
  -3  28  -1 355.802 1093.31   3
 -28   3  -1 895.928 1057.84   4
 -25  -3  -1 16.7430 1123.64   4
  28 -25  -1 1466.69 1185.75   1
  28 -25   2 7702.58 1398.83   1
   3  25   2 5395.13 1199.20   3
  -3  28   2 6095.86 1306.87   3
 -28   3   2 10829.8 1671.25   4
 -25  -3   2 9402.48 1577.25   4
  25 -28   2 6812.38 1279.52   1
 -28   3   2 7160.51 1277.05   2
 -25  -3   2 5849.58 1294.03   2
   3  25   5 852.441 1167.86   3
  -3  28   5 1053.28 1195.36   3
  28 -25   5 34.7087 1212.91   1
 -28   3   5 3718.10 1361.82   4
 -25  -3   5-534.421 1224.20   4
 -28   3   5 1421.24 1188.25   2
 -25  -3   5 1694.68 1224.28   2
  25 -28   5 1222.23 1196.17   1
 -28   4  -5 3902.06 1306.32   2
 -24  -4  -5 2159.06 1411.14   2
   4  24  -5 3924.73 1542.26   3
  -4  28  -5 3050.71 1659.08   3
 -28   4  -5 7425.31 1314.30   4
 -24  -4  -5 7143.15 1345.89   4
 -28   4  -2 3620.60 1080.46   2
 -24  -4  -2 4134.56 1280.89   2
   4  24  -2 4002.01 1188.11   3
  -4  28  -2 5388.80 1409.88   3
 -28   4  -2 6129.63 1360.24   4
  28 -24  -2 5656.06 1440.14   1
 -24  -4  -2 5575.70 1326.34   4
  24 -28  -2 2796.55 1103.08   1
 -24  -4   1 3482.26 1204.48   2
   4  24   1 4291.58 1150.87   3
  -4  28   1 1990.48 1198.78   3
  24 -28   1 4029.52 1075.02   1
 -28   4   1 6103.96 1454.10   4
 -24  -4   1 4882.98 1399.83   4
 -28   4   1 4338.84 1087.91   2
  28 -24   1 2512.46 1100.68   1
   4  24   4 11146.2 1465.38   3
  -4  28   4 7359.61 1418.55   3
  24 -28   4 12630.1 1586.61   1
 -28   4   4 10805.2 1701.12   4
 -24  -4   4 12429.5 1709.47   4
 -28   4   4 11952.6 1544.91   2
  28 -24   4 10587.7 1548.39   1
 -24  -4   4 10055.8 1533.67   2
 -23  -5  -6 8586.51 1851.04   2
   5  23  -6 5810.45 1716.29   3
  -5  28  -6 5804.33 1791.71   3
 -28   5  -6 12568.9 1460.55   4
 -23  -5  -6 10504.8 1513.56   4
  23 -28  -3 14484.3 1528.25   1
 -23  -5  -3 20694.3 1849.85   2
   5  23  -3 22662.1 1771.52   3
  -5  28  -3 21382.9 1974.47   3
 -28   5  -3 24005.7 1894.72   4
  28 -23  -3 17404.2 1932.38   1
 -23  -5  -3 17392.5 1730.25   4
 -28   5  -3 18461.7 1505.52   2
   5  23   0 9254.94 1258.95   3
  -5  28   0 8430.19 1394.62   3
  28 -23   0 8792.97 1427.87   1
 -28   5   0 14672.9 1710.22   4
 -23  -5   0 14842.0 1701.50   4
 -28   5   0 10673.8 1325.02   2
 -23  -5   0 8701.09 1323.60   2
  23 -28   0 9608.98 1251.15   1
   5  23   3 23588.4 1737.78   3
  -5  28   3 22707.5 1852.71   3
 -28   5   3 30775.1 2327.38   4
  23 -28   3 25672.7 1802.08   1
 -23  -5   3 32188.9 2306.23   4
 -28   5   3 24780.8 1869.29   2
 -23  -5   3 25556.5 1895.12   2
  28 -23   3 23698.4 1850.72   1
  -5  28   6 6864.24 1449.76   3
  28 -23   6 8349.08 1542.44   1
 -28   5   6 12221.8 1818.82   4
 -23  -5   6 9231.87 1660.40   4
 -28   5   6 9918.76 1688.79   2
  23 -28   6 10404.3 1611.05   1
 -23  -5   6 8727.67 1481.51   2
   5  23   6 9504.64 1522.57   3
 -28   6  -4 2108.88 998.707   2
 -22  -6  -4 2889.10 1318.56   2
   6  22  -4 1039.15 1180.66   3
  -6  28  -4 2402.52 1417.17   3
 -28   6  -4 1726.68 1036.20   4
  22 -28  -4 1002.22 986.810   1
 -22  -6  -4 1728.60 1133.93   4
  28 -22  -4 1368.51 1367.80   1
 -22  -6  -1 3013.44 1168.85   2
  28 -22  -1 2480.89 1225.12   1
   6  22  -1 3068.08 1043.67   3
  -6  28  -1 2199.30 1189.68   3
 -28   6  -1 3252.38 1217.74   4
 -22  -6  -1 3250.13 1258.92   4
  22 -28  -1 2344.67 930.732   1
 -28   6  -1 1811.96 954.899   2
 -22  -6   2 1769.13 1121.76   2
  22 -28   2 2532.64 1032.27   1
   6  22   2 2526.87 1009.16   3
  -6  28   2 3380.37 1202.44   3
 -28   6   2 2661.57 1248.95   4
 -22  -6   2 6073.18 1364.26   4
  28 -22   2 3254.56 1195.11   1
 -28   6   2 4336.53 1119.47   2
   6  22   5 2128.89 1139.81   3
  -6  28   5 1650.08 1154.65   3
  28 -22   5 1494.67 1165.86   1
 -28   6   5 1308.29 1278.21   4
 -22  -6   5 2323.30 1261.54   4
  22 -28   5 3648.37 1316.00   1
 -28   6   5 2893.44 1246.75   2
 -22  -6   5 1698.56 1160.03   2
 -28   7  -5 3433.18 1027.27   2
 -21  -7  -5 5284.88 1570.69   2
   7  21  -5 4741.67 1459.03   3
  -7  28  -5 6244.48 1741.53   3
 -28   7  -5 7419.73 1264.51   4
 -21  -7  -5 6895.27 1414.67   4
 -21  -7  -2 21132.9 1819.02   2
   7  21  -2 19670.8 1491.06   3
  28 -21  -2 19632.5 1884.67   1
  -7  28  -2 17970.5 1779.12   3
  21 -28  -2 20109.1 1470.49   1
 -28   7  -2 26807.1 1978.04   4
 -21  -7  -2 26198.8 1997.00   4
 -28   7  -2 22706.8 1546.59   2
   7  21   1 5719.92 1164.41   3
 -21  -7   1 6048.19 1286.82   2
  28 -21   1 6640.31 1343.32   1
  -7  28   1 4964.45 1222.08   3
 -28   7   1 6418.96 1352.02   4
 -21  -7   1 7110.73 1427.60   4
  21 -28   1 6834.79 1125.20   1
 -28   7   1 6720.54 1183.03   2
  -7  28   4 10890.7 1474.56   3
  21 -28   4 9678.03 1412.17   1
 -28   7   4 15843.3 1850.65   4
 -21  -7   4 13114.2 1773.42   4
 -28   7   4 12070.3 1532.36   2
 -21  -7   4 12160.4 1529.33   2
  28 -21   4 10345.2 1516.50   1
   7  21   4 13154.1 1492.06   3
   7  21   7 3601.70 1399.48   3
  -7  28   7 3181.14 1303.99   3
  28 -21   7 2176.51 1287.44   1
 -21  -7   7 3957.77 1486.55   4
 -28   7   7 4935.73 1492.88   2
 -21  -7   7 3324.08 1372.23   2
 -20  -8  -6 7052.31 1779.36   2
  -8  28  -6 7683.29 1933.29   3
 -28   8  -6 10859.3 1345.01   4
 -20  -8  -6 10780.3 1522.47   4
 -20  -8  -3 17476.8 1804.55   2
   8  20  -3 17835.3 1549.39   3
  -8  28  -3 16029.2 1816.42   3
 -28   8  -3 23491.8 1847.97   4
 -20  -8  -3 20661.2 1869.18   4
  28 -20  -3 20580.4 2036.73   1
  20 -28  -3 18055.2 1354.76   1
 -28   8  -3 19508.3 1414.58   2
   8  20   0 7744.44 1133.30   3
  -8  28   0 7267.20 1379.08   3
  20 -28   0 4854.09 996.692   1
 -28   8   0 9386.81 1526.17   4
  28 -20   0 7049.50 1353.31   1
 -20  -8   0 10898.7 1521.53   4
 -28   8   0 6189.36 1135.52   2
 -20  -8   0 7915.03 1367.71   2
  28 -20   3 15170.5 1618.25   1
  -8  28   3 10959.9 1484.63   3
  20 -28   3 13682.1 1472.17   1
 -28   8   3 16590.0 1785.79   4
 -20  -8   3 16501.8 1849.10   4
 -28   8   3 16180.5 1599.39   2
 -20  -8   3 14250.3 1599.95   2
   8  20   3 16059.4 1467.91   3
   8  20   6 5821.61 1377.17   3
  -8  28   6 5209.99 1412.37   3
  28 -20   6 5643.68 1391.74   1
 -28   8   6 8371.58 1641.28   4
  20 -28   6 5323.37 1488.33   1
 -20  -8   6 8224.39 1582.53   4
 -28   8   6 5297.85 1397.44   2
 -20  -8   6 3246.23 1330.55   2
 -19  -9  -7-666.665 1101.90   4
 -28   9  -4 2417.02 857.754   2
   9  19  -4 46.3743 1024.73   3
 -19  -9  -4 956.440 1225.42   2
  -9  28  -4 1273.04 1312.50   3
 -28   9  -4 868.899 1013.77   4
 -19  -9  -4 1740.61 1167.21   4
   9  19  -1 2826.34 911.992   3
 -19  -9  -1 4856.00 1260.77   2
  -9  28  -1 6786.66 1427.39   3
  28 -19  -1 2546.48 1175.24   1
 -28   9  -1 4255.59 1212.68   4
  19 -28  -1 2020.16 794.792   1
 -19  -9  -1 4600.94 1291.51   4
 -28   9  -1 3537.78 955.564   2
 -19  -9   2 2274.72 1055.55   2
   9  19   2 2379.49 981.304   3
  -9  28   2 3012.98 1174.33   3
 -28   9   2 2958.20 1245.11   4
 -19  -9   2 2989.72 1239.61   4
 -28   9   2 3438.55 1037.18   2
  19 -28   2 1513.20 951.603   1
  28 -19   2-59.3894 1054.66   1
   9  19   5 2408.54 1142.54   3
  -9  28   5 525.391 1097.40   3
  28 -19   5 627.859 1128.15   1
 -28   9   5 2157.17 1210.34   4
  19 -28   5 2450.80 1247.27   1
 -19  -9   5 2433.75 1348.01   4
 -28   9   5 356.015 1131.96   2
 -19  -9   5 495.762 1074.41   2
 -18 -10  -5 7845.36 1799.97   2
 -10  28  -5 6885.26 1738.30   3
 -28  10  -5 8864.51 1323.16   4
 -18 -10  -5 9162.23 1486.86   4
 -18 -10  -2 23857.1 1904.69   2
  10  18  -2 20897.3 1389.29   3
 -10  28  -2 25478.4 2050.67   3
  18 -28  -2 18856.6 1261.34   1
  28 -18  -2 23033.3 1950.90   1
 -28  10  -2 24418.6 1860.59   4
 -18 -10  -2 29486.6 2128.03   4
 -28  10  -2 23271.7 1473.56   2
  10  18   1 15592.4 1302.57   3
 -10  28   1 17122.1 1607.57   3
  28 -18   1 13956.1 1600.76   1
 -28  10   1 19196.9 1789.98   4
  18 -28   1 15665.4 1297.45   1
 -18 -10   1 20170.6 1895.19   4
 -28  10   1 16307.2 1456.94   2
 -18 -10   1 15770.5 1614.75   2
  28 -18   4 17404.8 1696.41   1
 -10  28   4 18381.0 1686.12   3
  18 -28   4 16466.1 1673.63   1
 -28  10   4 20687.5 1975.93   4
 -18 -10   4 22095.3 1978.68   4
 -28  10   4 18964.2 1815.51   2
 -18 -10   4 16102.6 1639.70   2
  10  18   4 18629.2 1591.19   3
 -10  28   7 3285.22 1287.97   3
  28 -18   7 6186.06 1408.06   1
  18 -28   7 6294.23 1610.55   1
 -28  10   7 5628.35 1562.20   4
 -18 -10   7 3331.16 1497.64   4
 -28  10   7 4839.82 1555.85   2
 -18 -10   7 5378.29 1296.28   2
  10  18   7 6660.50 1443.33   3
 -28  11  -6 4853.56 1126.40   4
 -17 -11  -6 4205.52 1278.26   4
 -17 -11  -3 10613.4 1646.35   2
  11  17  -3 9854.52 1179.74   3
 -11  28  -3 12886.8 1795.55   3
  28 -17  -3 8568.55 1647.49   1
 -28  11  -3 13151.1 1488.92   4
 -17 -11  -3 12534.8 1602.21   4
  17 -28  -3 9028.50 958.232   1
 -28  11  -3 8003.58 979.880   2
  11  17   0 3350.01 897.926   3
  28 -17   0 3191.80 1206.16   1
 -17 -11   0 4652.61 1244.74   2
 -11  28   0 3991.28 1168.12   3
 -28  11   0 5866.40 1306.38   4
  17 -28   0 5451.29 943.252   1
 -17 -11   0 6626.90 1446.57   4
 -28  11   0 5107.60 1003.40   2
  11  17   3 4658.52 1130.06   3
 -17 -11   3 1696.72 1122.64   2
 -11  28   3 3161.83 1161.05   3
 -28  11   3 3995.63 1355.63   4
  17 -28   3 2436.90 1167.12   1
 -17 -11   3 2514.38 1188.41   4
 -28  11   3 2847.77 1095.17   2
  28 -17   3 3017.95 1156.91   1
  17 -28   6 8581.43 1633.27   1
 -11  28   6 4666.60 1301.03   3
  28 -17   6 5429.66 1353.48   1
 -28  11   6 6126.00 1484.41   4
 -28  11   6 7989.46 1560.60   2
 -17 -11   6 8090.05 1523.86   4
  11  17   6 5863.65 1380.54   3
 -17 -11   6 6316.14 1353.47   2
 -16 -12  -7-1751.56 1223.42   4
 -16 -12  -4 9639.12 1668.62   2
  12  16  -4 8808.05 1165.28   3
 -12  28  -4 8591.71 1735.02   3
 -28  12  -4 11413.9 1411.34   4
 -16 -12  -4 9701.04 1583.13   4
 -28  12  -4 8376.67 955.816   2
  12  16  -1 962.761 752.200   3
 -16 -12  -1 853.741 1166.88   2
 -12  28  -1-531.049 1157.10   3
  16 -28  -1 738.249 704.623   1
 -28  12  -1 94.0989 1040.02   4
 -16 -12  -1 1025.09 1185.03   4
  28 -16  -1 68.7246 1116.53   1
 -28  12  -1-866.162 820.397   2
 -12  28   2 19651.7 1671.92   3
  16 -28   2 17888.7 1435.50   1
  28 -16   2 16306.6 1647.55   1
 -28  12   2 23470.0 1959.62   4
 -16 -12   2 20430.7 1915.48   4
 -28  12   2 18602.4 1621.62   2
 -16 -12   2 16376.5 1663.76   2
  12  16   2 20099.0 1464.27   3
 -16 -12   5 1708.23 1145.18   2
 -12  28   5 2799.90 1153.26   3
  16 -28   5 3621.23 1306.77   1
 -28  12   5 3706.07 1369.57   4
  28 -16   5 2339.61 1203.35   1
 -16 -12   5 2249.09 1255.08   4
 -28  12   5 3379.76 1291.56   2
  12  16   5 1928.00 1125.61   3
 -15 -13  -5 1563.39 1525.13   2
 -13  28  -5 4237.54 1691.67   3
 -28  13  -5 6702.45 1205.36   4
 -15 -13  -5 6109.50 1390.74   4
  15 -28  -2 12949.0 996.490   1
  13  15  -2 14999.6 1131.39   3
 -15 -13  -2 16596.9 1846.25   2
 -13  28  -2 12628.1 1750.33   3
 -28  13  -2 17591.0 1653.48   4
 -15 -13  -2 16004.7 1766.31   4
  28 -15  -2 13201.4 1798.70   1
 -28  13  -2 13246.6 1167.09   2
  13  15   1 3173.32 885.831   3
 -15 -13   1 3007.80 1214.51   2
 -13  28   1 2622.41 1171.97   3
  15 -28   1 5597.73 1009.90   1
 -28  13   1 5563.13 1337.85   4
 -15 -13   1 4413.96 1352.56   4
 -28  13   1 3328.15 1044.58   2
  28 -15   1 2073.58 1184.35   1
 -13  28   4 16608.8 1649.43   3
  15 -28   4 21948.0 1800.43   1
  28 -15   4 18729.6 1748.72   1
 -28  13   4 18639.7 1880.16   4
 -28  13   4 22142.7 1867.35   2
 -15 -13   4 20568.7 1946.31   4
 -15 -13   4 20779.5 1803.30   2
  13  15   4 21004.5 1644.60   3
  15 -28   7 11347.8 1838.35   1
 -13  28   7 10706.4 1562.71   3
  28 -15   7 6646.32 1449.77   1
 -28  13   7 14025.2 1817.55   4
 -28  13   7 11040.1 1739.99   2
 -15 -13   7 12200.8 1839.59   4
 -15 -13   7 9759.39 1568.48   2
  13  15   7 10726.6 1579.54   3
 -28  14  -6 7916.00 1240.28   4
 -14 -14  -6 8605.28 1436.66   4
  14  14  -3 4313.51 915.684   3
 -14 -14  -3 5551.97 1543.83   2
 -14  28  -3 4278.04 1609.42   3
 -28  14  -3 4283.47 1178.37   4
 -14 -14  -3 3990.45 1277.26   4
  28 -14  -3 2404.57 1426.79   1
 -28  14  -3 4001.52 787.368   2
  14  14   0 2827.33 821.620   3
 -14 -14   0 5380.57 1293.25   2
 -14  28   0 1689.23 1186.29   3
  14 -28   0 5050.37 867.674   1
 -28  14   0 6602.08 1365.09   4
 -28  14   0 4888.36 1069.20   2
 -14 -14   0 4336.98 1353.91   4
  28 -14   0 6650.14 1448.04   1
  14  14   3 5788.99 1108.74   3
 -14 -14   3 3358.02 1174.90   2
  14 -28   3 6765.14 1247.06   1
 -14  28   3 3790.54 1221.52   3
  28 -14   3 4300.95 1234.56   1
 -28  14   3 7379.16 1424.65   4
 -28  14   3 5970.18 1312.45   2
 -14 -14   3 7151.90 1541.93   4
 -14 -14   6 7120.75 1426.49   2
 -14  28   6 8760.25 1460.64   3
  14 -28   6 9109.87 1680.11   1
 -28  14   6 11026.3 1705.10   4
 -28  14   6 10318.7 1646.62   2
  28 -14   6 6922.57 1421.08   1
 -14 -14   6 8680.33 1595.79   4
  14  14   6 9267.88 1416.35   3
 -13 -15  -4 18977.5 2093.29   2
 -15  28  -4 17446.7 2171.94   3
 -28  15  -4 21745.3 1740.15   4
 -13 -15  -4 24313.8 1965.13   4
 -28  15  -4 18051.7 1121.54   2
  15  13  -1 1324.67 696.698   3
  28 -13  -1 2223.99 1329.85   1
 -13 -15  -1 4102.61 1330.78   2
 -15  28  -1 2413.74 1303.69   3
 -28  15  -1 4198.95 1159.97   4
 -13 -15  -1 3616.99 1333.73   4
 -28  15  -1 3284.24 904.166   2
  13 -28  -1 3498.17 719.237   1
 -13 -15   2 13981.9 1596.65   2
  13 -28   2 15985.8 1416.31   1
 -15  28   2 14551.2 1621.14   3
 -28  15   2 18665.8 1853.80   4
  28 -13   2 9693.60 1438.00   1
 -28  15   2 18233.4 1639.35   2
 -13 -15   2 22277.9 1996.06   4
  15  13   2 17150.2 1358.08   3
 -13 -15   5 4381.03 1251.61   2
 -15  28   5 4411.15 1305.42   3
  13 -28   5 7870.36 1516.01   1
 -28  15   5 7891.81 1542.36   4
 -28  15   5 5556.22 1428.67   2
 -13 -15   5 7978.10 1521.22   4
  28 -13   5 4593.06 1305.24   1
  15  13   5 7601.74 1304.59   3
 -16  28  -5 3547.61 1681.74   3
 -28  16  -5 3863.22 1055.22   4
 -12 -16  -5 5348.68 1409.80   4
  16  12  -2 17236.7 1100.30   3
 -12 -16  -2 19820.5 2025.14   2
  28 -12  -2 19409.2 1971.32   1
 -16  28  -2 19274.5 1977.66   3
 -28  16  -2 19196.6 1700.17   4
 -12 -16  -2 23804.2 2023.62   4
 -28  16  -2 19855.3 1267.48   2
  12 -28  -2 15194.9 909.391   1
  16  12   1 471.546 743.341   3
 -12 -16   1 1315.16 1134.36   2
 -16  28   1-99.5436 1124.35   3
  28 -12   1-1507.70 1217.61   1
  12 -28   1 188.896 791.588   1
 -28  16   1 522.654 1125.01   4
 -28  16   1 875.174 964.077   2
 -12 -16   1 1571.25 1205.13   4
  28 -12   4 6876.73 1320.30   1
 -16  28   4 6048.36 1295.68   3
 -28  16   4 10883.7 1581.62   4
 -28  16   4 9788.57 1466.25   2
 -12 -16   4 12812.5 1681.68   4
  16  12   4 11127.8 1372.71   3
  12 -28   4 10908.2 1571.25   1
 -12 -16   4 9749.98 1461.47   2
 -12 -16   7 1705.82 1211.01   2
 -16  28   7 862.385 1182.92   3
  12 -28   7 633.278 1486.52   1
 -28  16   7-1252.14 1278.68   4
 -28  16   7 1698.23 1356.39   2
  28 -12   7-439.237 1189.99   1
 -12 -16   7-545.157 1243.84   4
  16  12   7-849.096 1262.75   3
 -28  17  -6 5969.61 1169.74   4
 -11 -17  -3 2276.07 1466.11   2
 -17  28  -3 6000.51 1658.67   3
 -28  17  -3 5927.79 1248.42   4
 -11 -17  -3 3439.56 1234.56   4
 -28  17  -3 3033.57 708.271   2
  11 -28   0 5786.80 869.390   1
 -11 -17   0 6155.94 1444.81   2
 -17  28   0 4073.87 1362.84   3
 -28  17   0 5903.89 1285.07   4
 -28  17   0 7589.98 1152.37   2
 -11 -17   0 5167.73 1412.87   4
  28 -11   0 5414.84 1414.57   1
  17  11   0 5856.01 870.727   3
 -11 -17   3 11816.3 1624.43   2
 -17  28   3 6087.88 1356.30   3
 -28  17   3 11849.6 1602.18   4
  28 -11   3 9989.46 1549.53   1
 -28  17   3 13983.1 1590.07   2
 -11 -17   3 12443.3 1666.57   4
  17  11   3 11568.7 1281.25   3
  11 -28   3 10904.9 1473.58   1
 -11 -17   6 3907.17 1299.15   2
  11 -28   6 7080.45 1712.86   1
 -17  28   6 4556.84 1333.11   3
 -28  17   6 5503.39 1409.59   4
 -28  17   6 5841.14 1578.03   2
 -11 -17   6 3633.34 1409.91   4
  28 -11   6 4772.26 1356.01   1
  17  11   6 5348.91 1323.91   3
 -10 -18  -4 18558.9 2212.85   2
 -18  28  -4 24151.0 2419.93   3
 -28  18  -4 20963.2 1721.09   4
 -10 -18  -4 20142.0 1920.56   4
  18  10  -1 16360.6 1027.29   3
 -10 -18  -1 13601.0 1796.40   2
 -18  28  -1 13681.7 1815.24   3
  10 -28  -1 17283.6 1014.55   1
 -28  18  -1 18419.0 1711.73   4
 -28  18  -1 18059.8 1363.80   2
 -10 -18  -1 18696.8 1876.09   4
  28 -10  -1 10525.9 1688.22   1
 -10 -18   2 21708.4 1888.56   2
 -18  28   2 19833.4 1840.26   3
 -28  18   2 25305.3 2022.82   4
 -28  18   2 25871.8 1885.80   2
 -10 -18   2 26189.0 2097.36   4
  28 -10   2 19244.0 1890.97   1
  18  10   2 25757.0 1572.41   3
  10 -28   2 27153.6 1804.81   1
 -18  28   5 5288.96 1342.97   3
  28 -10   5 10194.9 1611.94   1
 -28  18   5 9109.30 1571.92   4
 -28  18   5 11593.4 1673.53   2
 -10 -18   5 10099.2 1600.73   4
  10 -28   5 10437.9 1727.97   1
  18  10   5 9319.72 1444.05   3
 -10 -18   5 8775.74 1456.56   2
 -28  19  -5 2134.66 1066.11   4
 -19  28  -2-594.162 1505.57   3
  -9 -19  -2 1361.23 1499.48   2
 -28  19  -2 1370.16 1087.57   4
  -9 -19  -2 1914.28 1272.46   4
 -28  19  -2 1505.32 761.566   2
  19   9   1 4043.79 873.798   3
 -19  28   1 4080.32 1346.38   3
  -9 -19   1 4836.65 1383.60   2
   9 -28   1 5360.79 984.373   1
 -28  19   1 4426.19 1246.37   4
 -28  19   1 4192.60 1105.24   2
  -9 -19   1 4545.58 1359.43   4
  28  -9   1 4839.77 1383.84   1
   9 -28   4 2836.89 1369.51   1
  -9 -19   4 451.028 1178.01   2
 -19  28   4-387.783 1139.18   3
 -28  19   4 1022.17 1131.96   4
 -28  19   4 4012.90 1307.55   2
  28  -9   4 2470.08 1226.83   1
  -9 -19   4-480.575 1203.20   4
  19   9   4 319.652 1034.88   3
   9 -28   7 2392.87 1719.43   1
  -9 -19   7 1501.95 1233.77   2
 -19  28   7 482.548 1259.04   3
 -19  28   7 1047.37 1585.83   4
 -28  19   7 1046.78 1194.46   4
  -9 -19   7 1032.22 2071.79   1
 -28  19   7 1190.76 1406.28   2
  -9 -19   7 1596.15 1243.16   4
  19   9   7 1134.77 1242.00   3
  28  -9   7-936.766 1335.46   1
 -28  20  -6 7859.77 1253.27   4
  -8 -20  -3 17525.7 2178.29   2
 -20  28  -3 15282.2 2122.57   3
 -20  28  -3 21365.7 1583.95   2
 -28  20  -3 19008.7 1726.00   4
 -28  20  -3 18308.6 1104.96   2
  -8 -20  -3 21480.3 1997.20   4
   8 -28   0 8180.15 980.214   1
  -8 -20   0 7075.54 1614.45   2
 -20  28   0 7658.84 1588.23   3
 -28  20   0 10281.0 1499.31   4
 -28  20   0 8901.57 1206.65   2
  28  -8   0 4681.69 1530.96   1
  -8 -20   0 9591.31 1562.11   4
  20   8   0 9258.55 905.825   3
  -8 -20   3 21102.1 1971.25   2
 -20  28   3 19436.4 1873.49   3
 -28  20   3 24873.2 2107.08   4
 -28  20   3 26716.7 2057.68   2
  -8 -20   3 26249.9 2149.81   4
  28  -8   3 21714.2 1971.76   1
   8 -28   3 25294.7 2021.95   1
  20   8   3 26206.5 1762.77   3
  -8 -20   6 7809.62 1583.37   2
 -20  28   6 9182.91 1534.72   3
  28  -8   6 7860.30 1569.63   1
  -8 -20   6 15184.5 2539.08   1
 -28  20   6 12999.8 1749.32   4
 -28  20   6 9973.28 1781.54   2
  -8 -20   6 11425.9 1720.40   4
   8 -28   6 11363.1 1998.68   1
  20   8   6 11485.1 1588.86   3
 -28  21  -4 15415.3 1629.14   4
  -7 -21  -1 9152.81 1858.18   2
 -21  28  -1 7532.85 1683.56   3
  -7 -21  -1 8544.79 1419.19   1
  28  -7  -1 7231.32 1634.01   1
 -28  21  -1 7580.55 1464.20   4
 -28  21  -1 8904.88 1147.10   2
  -7 -21  -1 13365.2 1795.98   4
  21   7  -1 8667.20 774.987   3
  -7 -21   2 18954.8 1925.94   2
 -21  28   2 21254.0 1868.08   3
  28  -7   2 18857.5 1921.34   1
  -7 -21   2 19622.3 2127.28   1
 -28  21   2 25137.9 2097.35   4
 -28  21   2 23466.7 1899.38   2
  -7 -21   2 26540.2 2177.89   4
   7 -28   2 26310.1 1861.75   1
  21   7   2 22631.9 1518.46   3
  -7 -21   5 5666.33 1455.74   2
 -21  28   5 4099.31 1325.36   3
 -21  28   5 10104.6 2114.04   2
 -28  21   5 6791.63 1512.89   4
 -28  21   5 8172.61 1656.07   2
  -7 -21   5 8902.89 2173.88   1
  28  -7   5 3910.98 1445.62   1
  -7 -21   5 6687.34 1519.46   4
   7 -28   5 10062.4 1765.76   1
  21   7   5 8380.67 1465.99   3
 -28  22  -5 3298.77 1168.34   4
 -22  28  -2 7281.79 1756.47   3
  -6 -22  -2 2909.56 1600.99   2
 -22  28  -2 6265.06 1251.94   2
 -28  22  -2 4681.50 1264.69   4
 -28  22  -2 4775.24 895.276   2
  -6 -22  -2 6185.36 1606.59   4
   6 -28   1 4295.45 1056.64   1
  -6 -22   1 1652.16 1381.39   2
 -22  28   1 816.121 1294.60   3
 -22  28   1 905.178 1319.71   2
 -28  22   1 3948.97 1303.78   4
  28  -6   1 1499.21 1391.19   1
  -6 -22   1 3679.13 1385.87   1
 -28  22   1 3740.06 1133.13   2
  -6 -22   1 4584.25 1466.45   4
  28  -6   1 3683.74 1195.51   3
  22   6   1 3933.58 906.831   3
 -22  28   4 1898.18 1232.44   3
  -6 -22   4 1557.47 1291.67   2
 -28  22   4 1890.37 1196.82   3
  28  -6   4 5428.50 1511.57   1
 -22  28   4 1007.95 1597.29   2
 -28  22   4 532.968 1259.15   4
  -6 -22   4 2249.97 1646.88   1
 -28  22   4 4704.47 1437.86   2
  -6 -22   4 2939.06 1389.16   4
  28  -6   4 4922.77 1493.52   3
  22   6   4 2021.81 1115.61   3
   6 -28   4 2301.68 1324.57   1
 -23  28  -6 9654.84 1596.09   4
 -28  23  -6 9245.82 1397.41   4
 -23  28  -3 24799.9 2478.02   3
 -28  23  -3 30734.8 2175.90   4
  -5 -23   0 9269.25 1867.29   2
  28  -5   0 8730.70 1801.27   1
 -23  28   0 8396.16 1702.68   3
 -23  28   0 15367.7 1789.07   2
 -28  23   0 12206.0 1631.88   4
  -5 -23   0 9138.29 1530.67   1
 -28  23   0 15898.5 1535.11   2
  -5 -23   0 11053.5 1809.59   4
  28  -5   0 12718.0 1239.84   3
   5 -28   0 12629.5 1140.79   1
  23   5   0 12149.6 943.702   3
  -5 -23   3 18879.9 2017.60   2
 -23  28   3 17818.0 1947.14   3
  28  -5   3 15588.4 1863.97   1
 -28  23   3 19578.3 1862.18   3
 -23  28   3 29015.7 2506.53   4
 -23  28   3 27091.3 2463.39   2
 -28  23   3 26371.3 2223.33   4
  -5 -23   3 25843.0 2444.73   1
 -28  23   3 21196.9 1984.59   2
  -5 -23   3 26785.5 2268.78   4
   5 -28   3 30621.0 2211.11   1
  28  -5   3 29254.1 2181.14   3
  23   5   3 26097.5 1815.54   3
 -23  28   6 7614.54 1530.80   3
  -5 -23   6 6777.47 1549.60   2
 -23  28   6 12613.5 2107.82   4
 -23  28   6 15951.7 2496.19   2
 -28  23   6 11113.3 1825.79   4
  -5 -23   6 14831.8 2578.93   1
 -28  23   6 13758.1 2022.21   2
  28  -5   6 11474.7 1793.42   1
   5 -28   6 15076.7 2242.64   1
  -5 -23   6 9350.97 1719.74   4
  28  -5   6 15585.0 2241.50   3
  23   5   6 12036.2 1729.70   3
  23   5   6 8622.97 1632.14   1
 -24  28  -4 14208.7 1830.69   4
 -28  24  -4 14499.4 1680.34   4
 -24  28  -1 3346.75 1542.15   3
  -4 -24  -1 736.547 1525.44   2
 -24  28  -1 7716.79 1618.62   4
 -28  24  -1 4454.09 1352.95   4
 -24  28  -1 5071.48 1302.12   2
 -28  24  -1 3371.66 1026.10   2
 -24  28   2 3187.39 1446.76   3
  -4 -24   2 3807.81 1537.04   2
 -28  24   2 2438.71 1422.78   3
 -24  28   2 5968.22 1623.61   4
 -28  24   2 6448.04 1493.93   4
 -24  28   2 7220.93 1721.79   2
  28  -4   2 2608.19 1533.04   1
 -28  24   2 2864.12 1326.60   2
  -4 -24   2 3237.40 1530.78   1
  -4 -24   2 4260.30 1475.60   4
  28  -4   2 5225.05 1270.43   3
  24   4   2 1286.76 960.664   3
   4 -28   2 4101.90 1270.40   1
 -24  28   5 6487.57 1536.07   3
  -4 -24   5 3255.32 1505.70   2
  24   4   5 5107.42 1668.03   1
 -28  24   5 5315.11 1542.93   3
 -28  24   5 6251.64 1664.43   4
 -24  28   5 7207.91 1835.38   4
 -24  28   5 5351.22 1875.38   2
  28  -4   5 3923.27 1500.52   1
 -28  24   5 7232.44 1702.29   2
  -4 -24   5 6020.95 2098.20   1
  -4 -24   5 5869.57 1634.44   4
  28  -4   5 7206.59 1694.59   3
  24   4   5 8184.93 1525.35   3
   4 -28   5 7116.31 1747.88   1
 -25  28  -5 1367.78 1240.31   4
 -28  25  -5 1279.56 1119.64   4
 -25  28  -2 6046.92 1853.22   3
 -25  28  -2 10978.6 1712.55   4
 -25  28  -2 8353.36 1252.00   2
 -28  25  -2 6870.32 1488.89   4
 -28  25  -2 9017.87 1080.92   2
 -25  28   1 425.452 1422.58   3
  -3 -25   1-326.247 1496.23   2
 -28  25   1 1675.75 1507.83   3
 -25  28   1 370.721 1420.81   4
 -28  25   1 108.810 1221.49   4
 -25  28   1 2840.18 1429.85   2
 -28  25   1-28.2114 1073.10   2
  28  -3   1-259.157 1494.48   1
  -3 -25   1 905.317 1252.80   1
  28  -3   1 626.618 960.126   3
  25   3   1-53.4669 773.132   3
   3 -28   1 85.8123 1012.69   1
  25   3   4 3069.11 1539.19   1
 -25  28   4 4195.86 1500.26   3
  -3 -25   4 3279.90 1453.44   2
 -28  25   4 4840.85 1512.37   3
 -25  28   4 7974.47 1787.26   4
 -28  25   4 5102.47 1526.09   4
 -25  28   4 3704.75 1720.23   2
 -28  25   4 4197.79 1597.44   2
  -3 -25   4 5106.15 1805.48   1
  28  -3   4 4866.51 1498.90   3
   3 -28   4 6233.34 1720.94   1
  25   3   4 3515.85 1283.68   3
  28  -3   4 2492.44 1422.17   1
 -26  28  -3 10582.2 1727.25   4
 -28  26  -3 10069.8 1676.48   4
 -26  28   0 5970.03 1680.56   3
 -26  28   0 6335.05 1607.10   4
 -28  26   0 6999.09 1558.78   4
 -28  26   0 6955.41 1341.43   2
 -26  28   0 6164.47 1434.73   2
  -2 -26   3 13128.4 2042.28   2
 -26  28   3 10240.9 1797.24   3
 -28  26   3 10443.4 1864.92   3
 -26  28   3 15637.4 2072.89   4
 -28  26   3 17340.3 2074.76   4
 -26  28   3 20187.5 2205.71   2
 -28  26   3 16057.0 2001.59   2
  -2 -26   3 17730.2 2095.33   1
   2 -28   3 17332.4 1998.17   1
  26   2   3 11122.8 1885.68   1
  28  -2   3 11407.3 1897.32   1
  28  -2   3 19774.5 1776.16   3
  26   2   3 20262.0 1736.41   3
 -27  28  -4 5147.39 1429.04   4
 -28  27  -4 7138.92 1506.91   4
 -27  28  -1 3320.87 1709.29   3
 -27  28  -1 345.548 1307.70   4
 -28  27  -1 434.315 1266.50   4
 -27  28  -1 3020.90 1139.44   2
 -28  27  -1 1447.29 1036.34   2
  28  -1   2 785.546 1519.34   1
 -27  28   2 1303.16 1635.15   3
 -28  27   2 3776.51 1665.83   3
  -1 -27   2 1611.65 1547.47   2
 -27  28   2 4474.01 1577.43   4
 -28  27   2 2569.84 1433.02   4
 -27  28   2 5983.21 1703.66   2
 -28  27   2 3471.38 1495.49   2
  -1 -27   2 2631.45 1413.34   1
   1 -28   2 912.217 1291.17   1
  28  -1   2 3931.66 1155.20   3
  27   1   2 3673.94 1107.24   3
  28  -1   5 5024.28 1635.94   1
 -27  28   5 2175.82 1428.19   3
 -28  27   5 5654.36 1631.92   3
  -1 -27   5 4073.53 1627.45   2
   1 -28   5 1191.59 1561.10   2
 -27  28   5 2786.65 1638.83   4
 -28  27   5 3488.14 1582.60   4
 -27  28   5 6421.66 1918.41   2
 -28  27   5 4017.29 1697.98   2
  27   1   5 2038.55 1593.13   1
  -1 -27   5 8094.48 2071.13   1
   1 -28   5 5136.90 1924.57   1
  28  -1   5 3906.60 1476.83   3
  27   1   5 818.180 1258.94   3
 -28  28  -2 12033.2 1806.99   4
 -28  28   1-762.689 1479.29   3
 -28  28   1 872.546 1403.78   4
 -28  28   1-441.978 1268.16   2
   0 -28   1 310.466 1184.85   1
  28   0   4 15472.6 2141.94   1
 -28  28   4 14708.9 1950.29   3
   0 -28   4 15610.7 2203.16   2
 -28  28   4 22717.1 2394.01   4
 -28  28   4 22978.6 2537.57   2
   0 -28   4 18239.4 2270.19   1
  28   0   4 24017.6 2100.06   3
 -29   0  -2 7444.13 1440.37   2
   0  29  -2 6262.14 1479.94   3
  29 -29  -2 4485.68 1434.04   1
   0  29   1 244.128 1173.76   3
 -29   0   1 238.232 1281.76   4
  29 -29   1-525.456 1143.16   1
 -29   0   1 1037.05 1201.56   2
 -28  -1  -3 9210.07 1487.41   2
  28 -29  -3 4342.26 1410.55   1
 -29   1  -3 7880.89 1343.06   2
  29 -28  -3 5916.25 1603.33   1
   1  28  -3 6136.84 1493.65   3
  -1  29  -3 3505.08 1519.97   3
 -29   1  -3 10434.5 1614.70   4
 -28  -1  -3 10816.8 1675.13   4
 -29   1   0 2585.08 1187.71   2
 -28  -1   0 378.378 1156.58   2
  28 -29   0 2259.49 1185.06   1
   1  28   0 3332.40 1217.70   3
  -1  29   0 1220.90 1231.52   3
  29 -28   0 921.148 1142.69   1
 -29   1   0 1055.32 1312.57   4
 -28  -1   0 2056.46 1317.76   4
   1  28   3 4737.42 1320.36   3
  -1  29   3 2934.10 1290.12   3
  28 -29   3 3300.11 1235.68   1
  29 -28   3 3552.43 1373.27   1
 -29   1   3 4181.41 1531.91   4
 -28  -1   3 3595.80 1427.27   4
 -29   1   3 1502.99 1183.35   2
 -28  -1   3 4104.92 1303.57   2
 -29   2  -4 1130.82 1159.08   2
 -27  -2  -4 2953.52 1431.48   2
  27 -29  -4 1718.88 1351.53   1
   2  27  -4 1959.32 1429.76   3
  -2  29  -4 3809.04 1719.09   3
 -29   2  -4 5090.05 1399.51   4
 -27  -2  -4 3781.73 1391.70   4
  29 -27  -4-1226.99 1437.32   1
  -2  29  -1 8205.00 1585.62   3
   2  27  -1 4241.86 1261.62   3
  27 -29  -1 4225.21 1317.83   1
 -29   2  -1 12769.7 1740.34   4
 -27  -2  -1 9885.54 1613.21   4
  29 -27  -1 6112.50 1437.43   1
 -29   2  -1 8190.44 1348.36   2
 -27  -2  -1 9161.52 1447.39   2
   2  27   2-994.660 1246.07   3
  -2  29   2 1362.45 1240.62   3
  27 -29   2 2034.20 1166.01   1
 -29   2   2 34.9046 1266.96   4
 -27  -2   2 1316.24 1297.43   4
  29 -27   2 1833.16 1193.99   1
 -29   2   2 140.203 1077.38   2
 -27  -2   2 439.049 1161.47   2
 -29   3  -2 1690.13 1080.22   2
  26 -29  -2 2404.54 1205.97   1
 -26  -3  -2 2629.06 1189.34   2
   3  26  -2 1094.85 1130.80   3
  -3  29  -2 1116.50 1256.40   3
 -29   3  -2 3700.95 1226.26   4
  29 -26  -2 2085.58 1294.99   1
 -26  -3  -2 4600.66 1341.03   4
 -26  -3   1 3331.34 1196.95   2
   3  26   1 2004.46 1184.18   3
  -3  29   1 3458.93 1237.69   3
  26 -29   1 335.117 1068.11   1
 -29   3   1 3421.70 1326.76   4
 -26  -3   1 1672.23 1332.65   4
 -29   3   1 2097.31 1112.03   2
  29 -26   1 1248.41 1168.54   1
  26 -29   4 5666.74 1381.89   1
   3  26   4 5075.24 1350.29   3
  -3  29   4 5515.00 1426.84   3
  29 -26   4 7233.83 1452.42   1
 -26  -3   4 8741.25 1663.64   4
 -29   3   4 7515.51 1650.55   4
 -29   3   4 4378.99 1329.80   2
 -26  -3   4 5328.13 1357.83   2
 -29   4  -3 5335.34 1175.21   2
   4  25  -3 6869.60 1486.65   3
 -25  -4  -3 6216.71 1393.98   2
  29 -25  -3 4600.05 1522.49   1
  -4  29  -3 4159.70 1626.35   3
 -29   4  -3 8054.57 1436.69   4
 -25  -4  -3 7303.87 1452.08   4
  25 -29  -3 3640.34 1251.18   1
 -25  -4   0 3872.24 1313.76   2
   4  25   0 3308.28 1127.26   3
  -4  29   0 1983.25 1264.86   3
  29 -25   0 1719.36 1181.28   1
 -29   4   0 1595.01 1250.29   4
 -25  -4   0 1030.82 1168.79   4
  25 -29   0 898.365 1011.27   1
 -29   4   0 1142.84 999.644   2
   4  25   3 7976.77 1409.88   3
  -4  29   3 8319.33 1449.63   3
 -29   4   3 12860.2 1807.73   4
  29 -25   3 7615.07 1401.48   1
 -25  -4   3 12713.9 1773.59   4
  25 -29   3 7342.84 1387.24   1
 -29   4   3 7985.36 1418.22   2
 -25  -4   3 8710.75 1453.86   2
 -29   5  -4 738.665 976.207   2
 -24  -5  -4 1271.88 1306.26   2
   5  24  -4 864.382 1323.56   3
  -5  29  -4-1757.34 1577.69   3
  29 -24  -4-946.197 1373.32   1
 -29   5  -4 445.239 1067.94   4
 -24  -5  -4 1333.45 1163.40   4
 -24  -5  -1 3609.38 1252.89   2
  24 -29  -1 2441.36 1008.44   1
  29 -24  -1 3325.02 1342.29   1
   5  24  -1 1744.05 1030.46   3
  -5  29  -1 3306.02 1244.11   3
 -29   5  -1 4130.22 1323.65   4
 -24  -5  -1 4724.74 1403.25   4
 -29   5  -1 2351.04 1033.14   2
 -24  -5   2 3003.93 1114.89   2
   5  24   2 1830.45 1028.00   3
  -5  29   2 4324.71 1266.90   3
  24 -29   2 4020.67 1112.41   1
 -29   5   2 3158.42 1341.74   4
 -24  -5   2 914.098 1182.59   4
  29 -24   2 2624.42 1169.91   1
 -29   5   2 5073.61 1188.52   2
   5  24   5 1692.10 1181.06   3
  -5  29   5-1047.43 1185.67   3
  29 -24   5-1313.49 1243.99   1
 -29   5   5 68.7928 1293.05   4
 -24  -5   5 3433.90 1386.25   4
 -29   5   5-1348.98 1244.39   2
  24 -29   5 1434.30 1285.23   1
 -24  -5   5 1108.63 1179.49   2
 -29   6  -5 2497.43 1114.67   2
 -23  -6  -5 7225.02 1660.73   2
   6  23  -5 6192.61 1603.40   3
  -6  29  -5 7045.47 1813.85   3
 -29   6  -5 9177.49 1398.60   4
 -23  -6  -5 8277.74 1460.78   4
 -29   6  -2 4395.92 1099.88   2
 -23  -6  -2 5399.21 1360.70   2
   6  23  -2 4992.77 1179.80   3
  -6  29  -2 2881.82 1309.40   3
 -29   6  -2 6559.61 1389.54   4
  23 -29  -2 3285.48 1051.14   1
 -23  -6  -2 8273.16 1450.59   4
  29 -23  -2 3959.39 1434.20   1
 -23  -6   1 4137.25 1236.48   2
   6  23   1 4054.44 1093.26   3
  29 -23   1 2026.99 1187.59   1
  -6  29   1 4104.90 1279.75   3
  23 -29   1 3877.24 1035.86   1
 -29   6   1 4458.96 1390.92   4
 -23  -6   1 5831.67 1458.06   4
 -29   6   1 3159.56 1073.82   2
   6  23   4 6952.92 1325.76   3
  -6  29   4 5674.75 1314.93   3
 -29   6   4 11612.8 1790.36   4
 -23  -6   4 10717.4 1728.89   4
 -29   6   4 6973.67 1358.85   2
  23 -29   4 6820.54 1392.17   1
  29 -23   4 8782.88 1516.29   1
 -23  -6   4 6901.41 1352.60   2
 -22  -7  -6 5059.46 1770.41   2
  -7  29  -6 3571.32 1808.49   3
 -29   7  -6 1753.63 1058.88   4
 -22  -7  -6 5384.51 1385.60   4
 -22  -7  -3 14262.9 1708.53   2
   7  22  -3 8013.32 1348.21   3
  -7  29  -3 8588.75 1727.32   3
 -29   7  -3 11575.5 1511.93   4
 -22  -7  -3 12256.8 1581.46   4
  29 -22  -3 12473.2 1932.19   1
 -29   7  -3 11739.7 1255.70   2
  22 -29  -3 8907.11 1223.62   1
 -22  -7   0 5919.00 1290.92   2
   7  22   0 2017.04 986.394   3
  -7  29   0 3281.83 1379.37   3
  22 -29   0 3769.29 983.689   1
 -29   7   0 6897.31 1458.39   4
  29 -22   0 3896.41 1230.97   1
 -22  -7   0 7360.14 1433.17   4
 -29   7   0 4781.96 1093.57   2
   7  22   3 10917.3 1384.12   3
  29 -22   3 12481.1 1550.46   1
  -7  29   3 14051.8 1600.56   3
  22 -29   3 11931.0 1423.05   1
 -29   7   3 16145.1 1912.48   4
 -22  -7   3 14279.3 1792.22   4
 -29   7   3 14172.9 1538.52   2
 -22  -7   3 15269.1 1675.40   2
   7  22   6 571.681 1171.71   3
  -7  29   6 2399.93 1217.24   3
  29 -22   6 2295.90 1332.37   1
 -29   7   6 3405.87 1440.13   4
 -22  -7   6 3205.16 1455.59   4
  22 -29   6 3072.25 1396.87   1
 -29   7   6 2297.42 1374.36   2
 -22  -7   6 528.811 1165.88   2
 -29   8  -4 345.757 910.295   2
 -21  -8  -4 917.229 1263.90   2
   8  21  -4 649.833 1099.72   3
  -8  29  -4 515.177 1520.85   3
 -21  -8  -4-3.02041 1136.50   4
 -21  -8  -1 1177.90 1150.03   2
   8  21  -1 4521.27 1041.94   3
  -8  29  -1 1141.36 1167.89   3
  29 -21  -1 2003.97 1251.69   1
 -29   8  -1 3121.19 1163.14   4
 -21  -8  -1 2825.50 1292.10   4
  21 -29  -1 1177.84 842.814   1
 -29   8  -1 2548.28 962.203   2
 -21  -8   2 2937.03 1197.50   2
   8  21   2 4210.47 1080.10   3
  -8  29   2 955.500 1125.24   3
 -29   8   2 1398.20 1195.75   4
 -21  -8   2 3046.40 1324.36   4
 -29   8   2 2654.45 1052.27   2
  21 -29   2 2774.98 1043.40   1
  29 -21   2 1506.65 1176.33   1
   8  21   5 622.789 1087.19   3
  -8  29   5-160.953 1152.28   3
  29 -21   5-558.312 1241.65   1
 -29   8   5-733.424 1295.18   4
 -21  -8   5 741.198 1221.63   4
  21 -29   5 2371.07 1276.45   1
 -29   8   5-120.513 1185.22   2
 -21  -8   5 338.649 1091.95   2
 -20  -9  -5 13384.3 1980.01   2
  -9  29  -5 10593.2 2049.72   3
 -29   9  -5 14550.4 1542.32   4
 -20  -9  -5 15947.5 1736.25   4
  29 -20  -2 7698.84 1564.42   1
 -20  -9  -2 13814.8 1780.75   2
   9  20  -2 9719.02 1257.70   3
  -9  29  -2 11022.7 1670.05   3
  20 -29  -2 8848.43 1106.36   1
 -29   9  -2 13739.8 1610.61   4
 -20  -9  -2 9818.76 1549.82   4
 -29   9  -2 12903.3 1268.34   2
   9  20   1 7884.70 1129.40   3
  -9  29   1 8710.00 1462.83   3
  29 -20   1 7586.22 1407.81   1
 -29   9   1 10435.8 1566.87   4
  20 -29   1 7609.09 1124.55   1
 -20  -9   1 6600.48 1455.66   4
 -29   9   1 7482.84 1186.84   2
 -20  -9   1 8323.97 1402.44   2
 -20  -9   4 3797.57 1244.01   2
   9  20   4 3172.33 1084.64   3
  -9  29   4 2006.17 1111.67   3
 -29   9   4 3540.71 1339.06   4
  29 -20   4 5641.42 1362.62   1
 -20  -9   4 4690.04 1336.32   4
  20 -29   4 4198.59 1276.57   1
 -29   9   4 1657.63 1114.02   2
 -19 -10  -6 2410.34 1606.74   2
 -10  29  -6-537.596 1652.49   3
 -29  10  -6 2417.55 1022.21   4
 -19 -10  -6 1265.05 1113.71   4
  29 -19  -3 11617.5 1827.01   1
 -19 -10  -3 10744.8 1637.13   2
  10  19  -3 11623.9 1270.78   3
 -10  29  -3 7244.94 1659.92   3
 -29  10  -3 11495.5 1480.11   4
 -19 -10  -3 10443.7 1582.43   4
 -29  10  -3 8653.63 1068.68   2
  10  19   0 4588.13 1024.63   3
 -19 -10   0 3648.42 1234.59   2
  19 -29   0 4908.23 945.031   1
 -10  29   0 6772.95 1403.47   3
 -29  10   0 6159.64 1404.63   4
 -19 -10   0 7454.24 1481.90   4
 -29  10   0 7096.05 1101.51   2
  29 -19   0 5514.69 1388.19   1
 -19 -10   3 4802.20 1294.93   2
  10  19   3 2845.28 1032.44   3
  29 -19   3 7094.55 1408.36   1
 -10  29   3 6129.57 1334.36   3
 -29  10   3 6809.94 1482.14   4
 -19 -10   3 3873.43 1390.56   4
  19 -29   3 5336.06 1208.57   1
 -29  10   3 4215.96 1189.24   2
  10  19   6 4735.33 1327.03   3
 -10  29   6 2864.70 1239.19   3
  19 -29   6 7241.57 1593.17   1
  29 -19   6 5196.08 1408.11   1
 -29  10   6 6527.47 1574.60   4
 -19 -10   6 7285.55 1603.97   4
 -29  10   6 5570.82 1436.87   2
 -19 -10   6 6653.36 1471.50   2
 -29  11  -4 2636.74 818.310   2
  11  18  -4 3353.42 1132.65   3
 -18 -11  -4 2481.98 1433.87   2
 -11  29  -4 4949.85 1709.34   3
 -29  11  -4 4581.42 1221.33   4
 -18 -11  -4 3427.86 1207.50   4
  11  18  -1 1409.67 882.426   3
 -18 -11  -1 312.724 1112.15   2
 -11  29  -1 1741.91 1202.69   3
  18 -29  -1 1294.50 756.227   1
 -29  11  -1 3573.44 1150.44   4
 -18 -11  -1 1809.77 1194.37   4
  29 -18  -1 1879.16 1238.24   1
 -29  11  -1 2088.96 874.055   2
  11  18   2 5253.42 1074.19   3
 -18 -11   2 3136.91 1200.33   2
 -11  29   2 3010.66 1152.72   3
  29 -18   2 2377.73 1132.12   1
 -29  11   2 7545.20 1485.53   4
 -18 -11   2 5833.67 1465.24   4
  18 -29   2 4325.70 1030.51   1
 -29  11   2 4931.09 1169.47   2
  11  18   5 3055.39 1172.70   3
 -18 -11   5 3108.45 1183.10   2
 -11  29   5 2561.36 1273.32   3
  18 -29   5 3701.79 1323.29   1
 -29  11   5 2605.92 1342.57   4
  29 -18   5 3431.59 1226.14   1
 -18 -11   5 2830.85 1320.38   4
 -29  11   5 3311.20 1270.72   2
 -17 -12  -5 12980.7 2052.31   2
 -29  12  -5 16506.7 1593.02   4
 -17 -12  -5 14618.6 1727.96   4
  12  17  -2 2557.72 877.982   3
 -17 -12  -2 2538.98 1356.29   2
 -12  29  -2 2753.43 1381.00   3
  29 -17  -2 5958.31 1575.47   1
 -29  12  -2 4169.18 1167.62   4
 -17 -12  -2 4072.10 1386.23   4
 -29  12  -2 2675.86 863.082   2
  17 -29  -2 1208.81 746.757   1
  12  17   1 19660.1 1414.35   3
 -12  29   1 18203.2 1715.74   3
  17 -29   1 22019.5 1462.63   1
 -29  12   1 24326.8 2062.25   4
  29 -17   1 19758.9 1828.40   1
 -17 -12   1 23221.8 2052.65   4
 -29  12   1 21086.6 1629.66   2
 -17 -12   1 17690.0 1737.59   2
  12  17   4 3878.91 1130.46   3
 -17 -12   4 1768.00 1175.57   2
 -12  29   4 2094.76 1213.52   3
  17 -29   4 711.822 1138.54   1
 -29  12   4 1697.26 1240.30   4
 -17 -12   4 2626.43 1326.02   4
 -29  12   4 1936.74 1126.30   2
  29 -17   4 2832.79 1172.71   1
 -12  29   7 13698.2 1738.69   3
 -29  12   7 21197.6 2193.97   2
 -17 -12   7 13809.9 1763.29   2
  29 -17   7 13966.8 1815.60   1
  12  17   7 18951.4 1911.98   3
 -29  13  -6 9265.30 1299.06   4
 -16 -13  -6 11619.0 1621.40   4
  13  16  -3 2050.68 876.376   3
 -16 -13  -3 2995.65 1424.16   2
 -13  29  -3 4894.59 1600.99   3
 -29  13  -3 2301.30 1061.34   4
  29 -16  -3-154.881 1421.60   1
 -16 -13  -3 2913.65 1268.82   4
 -29  13  -3 2607.71 786.766   2
  13  16   0 10013.5 1080.65   3
 -16 -13   0 11744.8 1657.52   2
 -13  29   0 7408.15 1455.84   3
 -29  13   0 9663.83 1505.30   4
  16 -29   0 11397.5 1075.42   1
 -16 -13   0 13375.9 1774.57   4
 -29  13   0 8798.12 1137.89   2
  29 -16   0 9138.94 1488.29   1
  13  16   3-606.039 921.464   3
 -16 -13   3 2270.86 1183.82   2
  29 -16   3 3100.55 1233.98   1
 -13  29   3 1675.53 1199.80   3
 -29  13   3 2732.80 1302.55   4
  16 -29   3 3155.60 1100.04   1
 -16 -13   3 3465.90 1353.39   4
 -29  13   3 1093.29 1023.67   2
  16 -29   6 9679.02 1705.10   1
 -13  29   6 4995.98 1390.79   3
 -29  13   6 7718.25 1516.63   4
  29 -16   6 6006.46 1432.08   1
 -29  13   6 8252.10 1588.42   2
 -16 -13   6 7057.20 1602.51   4
 -16 -13   6 7756.55 1509.50   2
  13  16   6 8595.59 1469.79   3
 -15 -14  -7 9342.34 1586.67   4
 -29  14  -4 3794.95 784.389   2
 -15 -14  -4 6976.00 1751.38   2
 -14  29  -4 3336.73 1585.90   3
 -29  14  -4 5698.00 1230.76   4
 -15 -14  -4 4370.62 1326.75   4
  14  15  -1 19664.4 1269.42   3
 -15 -14  -1 18376.1 1829.71   2
 -14  29  -1 19521.8 1883.06   3
  29 -15  -1 18338.6 1937.28   1
 -29  14  -1 20318.2 1839.70   4
 -15 -14  -1 22971.9 2035.49   4
  15 -29  -1 18491.5 1170.84   1
 -29  14  -1 23403.7 1514.78   2
  14  15   2 1365.53 930.687   3
 -15 -14   2 72.9127 1153.58   2
 -14  29   2 1119.76 1235.74   3
 -29  14   2 477.406 1084.13   4
  15 -29   2 737.612 913.377   1
  29 -15   2 1206.37 1127.20   1
 -15 -14   2 2786.15 1309.53   4
 -29  14   2 650.869 988.233   2
 -15 -14   5 2039.17 1265.24   2
 -14  29   5 4392.39 1314.61   3
  15 -29   5 2059.59 1279.61   1
 -29  14   5 3143.42 1362.01   4
 -29  14   5 4207.47 1324.72   2
 -15 -14   5 2640.07 1343.77   4
  29 -15   5 2849.14 1230.97   1
  14  15   5 3476.15 1216.19   3
 -15  29  -5 2147.79 1613.38   3
 -14 -15  -5 5113.57 1756.79   2
 -29  15  -5 5544.83 1184.18   4
 -14 -15  -5 4143.27 1357.90   4
  29 -14  -2-213.431 1391.78   1
  15  14  -2-102.901 712.984   3
 -14 -15  -2-2639.46 1451.19   2
 -15  29  -2 501.720 1317.66   3
 -29  15  -2-379.790 1073.67   4
 -14 -15  -2 1592.17 1256.81   4
 -29  15  -2 192.187 750.680   2
 -14 -15   1 17661.2 1770.86   2
 -15  29   1 20628.8 1860.43   3
  14 -29   1 24108.8 1524.46   1
 -29  15   1 23100.6 1955.81   4
 -29  15   1 24860.4 1729.53   2
 -14 -15   1 23696.6 2132.31   4
  29 -14   1 18073.3 1789.27   1
  15  14   1 22171.3 1434.46   3
 -14 -15   4 2376.17 1185.49   2
  29 -14   4 3048.55 1178.09   1
 -15  29   4 3845.14 1291.66   3
  14 -29   4 5828.51 1318.03   1
 -29  15   4 4132.47 1335.22   4
 -29  15   4 7678.47 1426.60   2
 -14 -15   4 4299.65 1414.27   4
  15  14   4 5250.94 1176.64   3
 -14 -15   7 6856.12 1488.36   2
 -15  29   7 8168.54 1565.48   3
 -29  15   7 8513.64 1690.42   4
  29 -14   7 7646.71 1505.48   1
 -29  15   7 7878.31 1647.16   2
 -14 -15   7 8441.09 1637.59   4
  15  14   7 10631.2 1618.64   3
  14 -29   7 13070.3 1913.82   1
 -29  16  -6 7144.14 1212.25   4
 -13 -16  -6 9309.02 1617.82   4
 -13 -16  -3 4218.93 1603.63   2
 -16  29  -3 1370.41 1486.27   3
 -29  16  -3 1232.51 1049.83   4
 -13 -16  -3 690.226 1220.62   4
 -29  16  -3 1456.28 710.100   2
  16  13   0 10989.7 1048.00   3
 -13 -16   0 15521.9 1856.22   2
 -16  29   0 9730.13 1548.16   3
  13 -29   0 10867.9 1035.75   1
 -29  16   0 11936.1 1619.32   4
 -29  16   0 13033.4 1296.58   2
 -13 -16   0 12546.8 1742.70   4
  29 -13   0 8527.28 1527.17   1
  13 -29   3 6332.49 1308.68   1
 -13 -16   3 1913.90 1207.86   2
 -16  29   3 4167.03 1329.69   3
 -29  16   3 1841.09 1207.31   4
  29 -13   3 1257.78 1178.39   1
 -29  16   3 3253.52 1203.87   2
 -13 -16   3 643.388 1178.23   4
  16  13   3 5068.17 1121.83   3
 -16  29   6 9835.93 1595.21   3
 -29  16   6 9862.33 1633.67   4
 -29  16   6 9386.46 1669.01   2
 -13 -16   6 12368.4 1762.75   4
  29 -13   6 6966.34 1475.56   1
  16  13   6 12144.6 1555.60   3
 -13 -16   6 9061.94 1561.36   2
  13 -29   6 14764.9 1985.70   1
 -17  29  -4 136.081 1631.11   3
 -12 -17  -4 2722.01 1749.13   2
 -29  17  -4 2859.44 1111.01   4
 -12 -17  -4 500.390 1201.51   4
  17  12  -1 17279.0 1111.71   3
 -12 -17  -1 20120.2 2042.34   2
 -17  29  -1 15281.1 1891.67   3
 -29  17  -1 23749.3 1960.03   4
  12 -29  -1 19915.9 1111.01   1
 -29  17  -1 20802.9 1451.81   2
 -12 -17  -1 22112.3 2054.41   4
  29 -12  -1 16109.8 1951.78   1
  29 -12   2 1299.59 1254.13   1
 -12 -17   2 3386.33 1228.28   2
 -17  29   2 4886.73 1313.01   3
  12 -29   2 3932.68 1104.83   1
 -29  17   2 7372.60 1423.30   4
 -29  17   2 5599.87 1187.72   2
 -12 -17   2 6464.49 1479.71   4
  17  12   2 7143.63 1088.58   3
 -17  29   5 16895.1 1788.42   3
  29 -12   5 14634.2 1670.86   1
 -29  17   5 15367.1 1892.98   4
 -29  17   5 17708.1 1902.65   2
 -12 -17   5 15986.2 1900.87   4
  17  12   5 20784.7 1745.47   3
  12 -29   5 17730.4 1997.75   1
 -12 -17   5 15003.7 1698.84   2
 -29  18  -5 4595.87 1132.54   4
 -11 -18  -5 4790.16 1410.03   4
 -11 -18  -2 2647.84 1445.98   2
 -18  29  -2 7136.07 1738.89   3
 -29  18  -2 7231.55 1307.37   4
  29 -11  -2 4863.10 1590.68   1
 -11 -18  -2 4851.22 1419.44   4
 -29  18  -2 3863.19 856.163   2
  18  11   1 1526.03 816.057   3
 -11 -18   1 3616.96 1380.70   2
 -18  29   1 2991.84 1339.18   3
  11 -29   1 1426.68 827.184   1
 -29  18   1 991.306 1075.49   4
 -29  18   1 1428.90 996.084   2
  29 -11   1 1533.34 1280.48   1
 -11 -18   1 1429.49 1238.35   4
 -11 -18   4 3133.70 1265.93   2
  11 -29   4 4294.35 1384.51   1
 -18  29   4 2125.39 1293.05   3
 -29  18   4 4586.47 1345.50   4
  29 -11   4 3713.88 1384.96   1
 -29  18   4 3411.21 1342.05   2
 -11 -18   4 3154.24 1421.27   4
  18  11   4 2746.33 1145.80   3
 -29  19  -6 5167.01 1167.25   4
 -19  29  -3 3647.95 1620.64   3
 -10 -19  -3 5127.31 1705.20   2
 -29  19  -3 5515.39 1255.62   4
 -10 -19  -3 4804.59 1454.04   4
 -29  19  -3 4276.29 773.704   2
  10 -29   0 6531.94 907.089   1
 -10 -19   0 7163.55 1519.92   2
 -19  29   0 5910.37 1460.74   3
  29 -10   0 8033.13 1575.20   1
 -29  19   0 6247.32 1364.95   4
 -29  19   0 4908.43 1039.46   2
 -10 -19   0 9944.20 1648.43   4
  19  10   0 7166.37 897.368   3
 -10 -19   3 10701.8 1660.16   2
  29 -10   3 6800.74 1497.90   1
 -19  29   3 6565.61 1451.58   3
 -29  19   3 11794.2 1649.49   4
 -29  19   3 8007.25 1442.88   2
 -10 -19   3 10540.1 1676.31   4
  19  10   3 11182.3 1317.93   3
  10 -29   3 9508.54 1463.32   1
  10 -29   6 5720.26 1742.08   1
 -10 -19   6 1817.43 1339.32   2
 -19  29   6 1311.07 1265.52   3
  29 -10   6-219.714 1258.38   1
 -29  19   6 2699.95 1350.99   4
 -10 -19   6 4744.96 2239.21   1
 -29  19   6 2270.02 1514.04   2
 -10 -19   6 1983.14 1257.90   4
  19  10   6 4529.75 1339.31   3
 -20  29  -4-175.950 1596.93   3
 -29  20  -4 2091.32 1086.39   4
  -9 -20  -4 3266.08 1395.97   4
  20   9  -1 9500.29 831.482   3
  -9 -20  -1 8679.70 1746.59   2
 -20  29  -1 9620.75 1786.94   3
 -29  20  -1 10674.4 1545.11   4
 -29  20  -1 9913.60 1183.09   2
  -9 -20  -1 11194.5 1725.56   4
  29  -9  -1 5850.93 1557.27   1
  29  -9   2 9996.92 1621.89   1
  -9 -20   2 11573.1 1714.80   2
 -20  29   2 10717.5 1642.61   3
 -29  20   2 11892.9 1652.12   4
 -29  20   2 14589.2 1572.54   2
  -9 -20   2 15378.3 1849.43   4
  20   9   2 14002.7 1294.61   3
   9 -29   2 14370.6 1507.94   1
  -9 -20   5 9841.29 1692.75   2
 -20  29   5 10421.0 1617.90   3
  -9 -20   5 15489.8 2415.55   1
 -29  20   5 14051.7 1804.75   4
  29  -9   5 12031.5 1719.69   1
 -29  20   5 13394.5 1802.63   2
  -9 -20   5 15310.5 1894.51   4
   9 -29   5 17188.4 2025.04   1
  20   9   5 14915.7 1632.09   3
 -29  21  -5 1629.96 1108.57   4
 -21  29  -2 1837.53 1433.77   3
  -8 -21  -2 2289.34 1599.22   2
 -21  29  -2 3432.31 1213.33   2
 -29  21  -2 568.439 1060.02   4
 -29  21  -2 956.157 762.862   2
  -8 -21  -2 3441.64 1476.97   4
  29  -8   1-1108.81 1389.57   1
   8 -29   1 557.635 900.075   1
  -8 -21   1 86.6004 1349.93   2
 -21  29   1 1452.11 1257.31   3
 -29  21   1 1528.38 1159.19   4
  -8 -21   1 1391.08 1304.23   4
  21   8   1 2398.03 797.008   3
   8 -29   4 1018.97 1309.78   1
  29  -8   4 1127.65 1246.33   1
  -8 -21   4 3777.84 1387.82   2
 -21  29   4 1329.56 1204.13   3
 -29  21   4-89.3657 1201.49   4
  -8 -21   4 1136.99 1646.67   1
 -29  21   4 287.524 1256.65   2
  -8 -21   4 1507.29 1301.02   4
  21   8   4 2036.36 1172.21   3
 -22  29  -6 5753.18 1500.41   4
 -29  22  -6 2622.27 1121.97   4
 -22  29  -3 8888.31 1953.58   3
 -29  22  -3 11814.6 1569.18   4
   7 -29   0 6141.47 935.714   1
 -22  29   0 4963.00 1528.05   3
  -7 -22   0 5250.68 1585.69   2
 -22  29   0 7917.43 1581.38   2
 -29  22   0 8258.88 1524.68   4
  29  -7   0 3641.74 1560.28   1
  -7 -22   0 4223.65 1399.10   1
 -29  22   0 6039.35 1216.29   2
  -7 -22   0 6944.16 1578.05   4
  29  -7   0 6040.62 1149.14   3
  22   7   0 5530.02 805.757   3
  -7 -22   3 12154.9 1884.60   2
 -22  29   3 9670.13 1579.58   3
 -22  29   3 17358.3 2207.02   2
  -7 -22   3 14034.2 2085.99   1
 -29  22   3 11853.0 1713.36   4
 -29  22   3 15752.1 1798.18   2
  29  -7   3 8668.75 1662.79   1
  -7 -22   3 12856.3 1790.96   4
  29  -7   3 16095.9 1832.77   3
   7 -29   3 15509.9 1750.35   1
  22   7   3 15987.0 1548.96   3
   7 -29   6 5296.68 1866.60   1
 -22  29   6 5397.57 1476.19   3
  -7 -22   6 4678.13 1482.17   2
 -22  29   6 5476.21 1881.11   4
 -22  29   6 3103.27 2104.00   2
 -29  22   6 5525.72 1551.97   4
  -7 -22   6 9316.56 2404.72   1
 -29  22   6 6578.52 1736.85   2
  29  -7   6 5039.06 1589.46   1
  -7 -22   6 6095.11 1623.47   4
  29  -7   6 5592.49 1855.29   3
  22   7   6 6365.98 1487.21   3
 -29  23  -4 9820.86 1514.01   4
 -23  29  -1 2330.11 1524.74   3
  -6 -23  -1 3665.73 1758.33   2
 -23  29  -1 4900.50 1375.78   2
 -29  23  -1 5714.45 1392.38   4
 -29  23  -1 4421.85 1031.41   2
  -6 -23  -1 3379.49 1461.81   4
   6 -29   2 5002.24 1308.65   1
  29  -6   2 4651.76 1503.49   1
 -23  29   2 2414.99 1413.59   3
  -6 -23   2 4909.18 1641.31   2
 -23  29   2 7592.43 1761.45   2
 -29  23   2 8285.69 1544.75   4
 -29  23   2 8766.62 1496.81   2
  -6 -23   2 8765.14 1758.48   1
  -6 -23   2 7720.47 1626.51   4
  29  -6   2 7382.36 1440.14   3
  23   6   2 7854.53 1168.69   3
 -23  29   5 6134.35 1554.45   3
  -6 -23   5 2815.28 1417.81   2
 -23  29   5 8391.97 1990.05   4
 -23  29   5 8420.93 2026.67   2
 -29  23   5 6729.65 1632.96   4
 -29  23   5 7386.12 1674.94   2
  -6 -23   5 6811.06 2047.56   1
  -6 -23   5 11433.5 1790.25   4
  29  -6   5 9439.40 1806.06   1
  29  -6   5 8914.07 1780.92   3
  23   6   5 9239.19 1572.44   3
   6 -29   5 9262.88 1832.09   1
 -24  29  -5 2270.89 1327.95   4
 -29  24  -5 1575.38 1182.86   4
 -24  29  -2 4027.43 1798.11   3
 -24  29  -2 6765.41 1652.40   4
 -29  24  -2 4389.21 1361.32   4
 -24  29  -2 2103.11 1112.35   2
 -29  24  -2 3058.38 887.847   2
   5 -29   1 5751.85 1173.68   1
 -24  29   1 2286.41 1527.30   3
  -5 -24   1 1946.99 1586.96   2
  29  -5   1 2627.13 1529.49   1
 -24  29   1 7435.94 1663.69   4
 -29  24   1 4086.08 1330.61   4
 -24  29   1 3410.17 1481.70   2
 -29  24   1 4417.01 1190.64   2
  -5 -24   1 5362.31 1469.83   1
  -5 -24   1 7198.94 1647.06   4
  29  -5   1 5862.76 1177.75   3
  24   5   1 4010.63 863.087   3
 -24  29   4-243.546 1271.90   3
  -5 -24   4 1367.58 1359.43   2
 -29  24   4 868.557 1288.44   3
 -24  29   4 1081.98 1487.45   4
 -24  29   4 2356.05 1779.82   2
 -29  24   4 2202.49 1434.96   4
 -29  24   4 1565.76 1322.14   2
  -5 -24   4 3355.46 1774.56   1
  29  -5   4-789.143 1391.23   1
  -5 -24   4 1943.55 1352.60   4
  29  -5   4-1243.83 1355.97   3
  24   5   4 2425.66 1204.76   3
   5 -29   4-638.042 1394.01   1
 -25  29  -3 13594.9 1924.39   4
 -29  25  -3 11493.3 1660.52   4
 -25  29   0 2395.60 1607.60   3
  -4 -25   0 987.405 1648.36   2
 -25  29   0 3155.35 1525.74   4
 -29  25   0-237.829 1285.62   4
 -25  29   0 2090.63 1313.04   2
 -29  25   0 3063.59 1116.28   2
  -4 -25   0 1084.53 1190.90   1
  29  -4   3 6834.19 1789.29   1
 -25  29   3 4466.07 1573.21   3
  -4 -25   3 4526.72 1584.64   2
 -29  25   3 7341.97 1694.14   3
 -25  29   3 5982.78 1799.57   4
 -29  25   3 8473.27 1693.97   4
 -25  29   3 9453.27 1843.58   2
 -29  25   3 6360.53 1528.72   2
  -4 -25   3 8889.53 1882.68   1
  -4 -25   3 6522.06 1640.88   4
  29  -4   3 8927.03 1535.38   3
  25   4   3 9998.51 1425.57   3
   4 -29   3 6252.25 1501.41   1
 -26  29  -4 8267.45 1676.21   4
 -29  26  -4 7227.03 1505.34   4
 -26  29  -1 1405.53 1594.42   3
 -26  29  -1 3045.09 1486.61   4
 -29  26  -1 3462.54 1428.29   4
 -26  29  -1 2995.25 1235.45   2
 -29  26  -1 1185.71 975.295   2
 -26  29   2 2807.70 1552.10   3
  -3 -26   2 2064.21 1620.73   2
 -29  26   2 2945.04 1547.88   3
 -26  29   2 4769.27 1647.29   4
  29  -3   2 3491.80 1725.77   1
 -29  26   2 2627.57 1484.18   4
 -26  29   2 4620.18 1666.16   2
 -29  26   2 5051.17 1396.65   2
  -3 -26   2 5335.06 1572.51   1
  29  -3   2 3514.60 1198.58   3
  26   3   2 2725.78 998.296   3
   3 -29   2 5183.36 1350.01   1
 -27  29  -2 2469.13 1453.95   4
 -29  27  -2 2000.54 1305.51   4
  -2 -27   1 11276.1 2126.38   2
 -27  29   1 6761.96 1732.69   3
 -29  27   1 9190.26 1873.55   3
 -27  29   1 10057.9 1853.86   4
 -29  27   1 14559.0 1955.12   4
 -27  29   1 9278.20 1689.50   2
 -29  27   1 9451.76 1582.90   2
  -2 -27   1 10803.6 1614.85   1
 -27  29   4-429.070 1569.08   3
 -29  27   4 4439.46 1578.92   3
  -2 -27   4 3526.36 1705.74   2
 -27  29   4 6805.37 1860.41   4
  27   2   4 1524.85 1613.11   1
 -29  27   4 4778.11 1661.74   4
  29  -2   4 677.028 1604.41   1
 -27  29   4 4066.84 1779.95   2
 -29  27   4 4385.19 1709.95   2
  -2 -27   4 6410.83 1889.05   1
  29  -2   4 9748.24 1620.36   3
   2 -29   4 6455.90 1783.43   1
  27   2   4 5445.58 1421.47   3
 -28  29  -3 6763.67 1566.81   4
 -29  28  -3 4687.23 1498.06   4
 -28  29   0 190.327 1602.53   3
 -28  29   0 907.338 1413.22   4
 -29  28   0 761.569 1388.91   4
 -28  29   0 2185.52 1239.21   2
 -29  28   0 1438.11 1083.21   2
 -28  29   3 8530.34 1825.42   3
 -29  28   3 6694.88 1844.85   3
  -1 -28   3 6101.58 1876.23   2
 -29  28   3 11204.5 1916.86   4
 -28  29   3 7684.00 1846.25   4
 -28  29   3 12065.4 2063.76   2
 -29  28   3 6416.15 1730.20   2
   1 -29   3 8923.53 1786.35   1
  -1 -28   3 9356.84 1816.32   1
  29  -1   3 8857.73 1504.43   3
  29  -1   3 6114.40 1886.68   1
  28   1   3 9457.58 1461.27   3
 -29  29  -1 4589.24 1638.00   4
 -29  29   2 8365.62 2007.27   3
 -29  29   2 9847.33 1901.38   4
 -29  29   2 10480.6 1832.38   2
   0 -29   2 9017.48 1626.49   1
 -30   1  -1 4833.22 1315.58   2
 -29  -1  -1 4826.18 1355.37   2
   1  29  -1 4109.70 1430.94   3
  -1  30  -1 5519.71 1442.06   3
 -30   1  -1 9791.47 1663.28   4
 -29  -1  -1 9292.50 1716.26   4
  29 -30  -1 3927.46 1310.44   1
  30 -29  -1 4921.51 1437.39   1
 -30   2  -2 823.504 1097.91   2
 -28  -2  -2-224.200 1148.54   2
   2  28  -2 3439.53 1347.33   3
  -2  30  -2-1673.89 1334.13   3
  28 -30  -2 721.354 1248.03   1
 -30   2  -2 2075.43 1355.38   4
 -28  -2  -2 1525.04 1313.34   4
  30 -28  -2-1361.22 1454.35   1
 -28  -2   1 6577.49 1430.70   2
  30 -28   1 6310.45 1388.09   1
   2  28   1 6725.50 1374.14   3
  -2  30   1 6174.81 1447.38   3
 -28  -2   1 9220.78 1718.71   4
 -30   2   1 7213.63 1599.79   4
  28 -30   1 4418.07 1280.55   1
 -30   2   1 8016.45 1456.21   2
 -30   3  -3 1283.63 1118.54   2
 -27  -3  -3 1428.75 1213.09   2
   3  27  -3 1254.03 1296.83   3
  -3  30  -3 2165.07 1444.02   3
  30 -27  -3-1639.97 1549.56   1
 -30   3  -3 1213.43 1195.68   4
 -27  -3  -3 2154.32 1289.44   4
  27 -30  -3-261.606 1251.66   1
 -27  -3   0 5454.66 1374.67   2
   3  27   0 4668.45 1275.05   3
  -3  30   0 3708.12 1392.15   3
  30 -27   0 4992.46 1389.62   1
 -30   3   0 8464.63 1493.01   4
 -27  -3   0 6440.35 1577.77   4
  27 -30   0 4682.33 1203.95   1
 -30   3   0 5978.27 1241.54   2
   3  27   3 1763.37 1196.67   3
  -3  30   3 3596.90 1333.00   3
  27 -30   3 870.720 1097.44   1
  30 -27   3 1759.88 1263.39   1
 -30   3   3 1640.57 1346.23   4
 -27  -3   3 312.304 1331.52   4
 -30   3   3-494.648 1162.98   2
 -27  -3   3 1243.93 1201.69   2
 -30   4  -4 2261.51 1116.62   2
 -26  -4  -4 5601.23 1600.80   2
   4  26  -4 3716.51 1486.30   3
  -4  30  -4 2334.42 1728.80   3
  30 -26  -4 4303.36 1606.08   1
 -30   4  -4 3980.17 1278.14   4
 -26  -4  -4 4142.84 1387.36   4
 -26  -4  -1 7359.92 1487.43   2
  30 -26  -1 7437.38 1537.23   1
   4  26  -1 6850.05 1353.82   3
  -4  30  -1 6235.32 1438.97   3
  26 -30  -1 8874.40 1349.57   1
 -30   4  -1 12614.6 1753.94   4
 -26  -4  -1 11348.7 1700.51   4
 -30   4  -1 7556.97 1312.70   2
 -26  -4   2 3418.26 1228.52   2
   4  26   2 1411.04 1121.59   3
  -4  30   2 2857.24 1390.98   3
  26 -30   2 4009.34 1216.97   1
 -30   4   2 854.324 1310.66   4
 -26  -4   2 4818.94 1490.08   4
  30 -26   2-320.414 1182.12   1
 -30   4   2 1604.68 1134.27   2
 -30   5  -2 2626.99 1139.83   2
 -25  -5  -2 1641.81 1297.55   2
   5  25  -2 850.265 1115.38   3
  -5  30  -2 732.130 1408.66   3
 -30   5  -2 2605.74 1262.51   4
 -25  -5  -2 3349.96 1350.45   4
  30 -25  -2 450.442 1336.49   1
  25 -30  -2 311.282 1069.34   1
 -25  -5   1 5565.53 1298.68   2
  -5  30   1 7329.36 1468.21   3
   5  25   1 5474.20 1256.62   3
  30 -25   1 4532.09 1308.19   1
  25 -30   1 5892.38 1241.22   1
 -30   5   1 7311.10 1576.24   4
 -25  -5   1 6938.16 1517.08   4
 -30   5   1 7078.05 1319.94   2
   5  25   4 2007.35 1230.91   3
  -5  30   4 3558.55 1274.46   3
  30 -25   4 3819.34 1391.99   1
 -30   5   4 5499.19 1546.17   4
 -25  -5   4 6176.66 1603.39   4
 -30   5   4 2037.89 1229.67   2
 -25  -5   4 1870.47 1199.22   2
  25 -30   4 685.073 1232.94   1
 -30   6  -3 439.252 936.147   2
 -24  -6  -3 1092.74 1232.86   2
   6  24  -3 505.237 1142.85   3
  -6  30  -3 3584.41 1545.23   3
  30 -24  -3 2492.23 1530.65   1
 -30   6  -3 1865.32 1213.38   4
  24 -30  -3 2775.92 1138.81   1
 -24  -6  -3 261.020 1238.97   4
 -24  -6   0 4950.79 1362.10   2
  -6  30   0 6429.97 1487.11   3
   6  24   0 4715.66 1227.60   3
 -30   6   0 8897.54 1563.91   4
 -24  -6   0 9415.17 1585.97   4
  24 -30   0 5674.78 1129.74   1
  30 -24   0 5945.60 1391.62   1
 -30   6   0 6649.18 1226.12   2
 -24  -6   3 3043.62 1270.23   2
  24 -30   3 2396.65 1108.25   1
   6  24   3 1067.53 1080.17   3
  -6  30   3 1958.16 1268.94   3
 -30   6   3 2883.64 1374.23   4
 -24  -6   3-274.035 1224.28   4
  30 -24   3 466.342 1182.71   1
 -30   6   3-338.188 1086.15   2
 -30   7  -4 3523.07 1050.14   2
 -23  -7  -4 758.201 1276.48   2
   7  23  -4 1629.12 1265.35   3
  -7  30  -4 737.115 1454.05   3
 -30   7  -4 914.629 1054.33   4
 -23  -7  -4 1919.67 1235.38   4
 -23  -7  -1 2470.36 1270.90   2
   7  23  -1 3571.96 1114.84   3
  -7  30  -1 1561.23 1240.84   3
  30 -23  -1 1555.93 1275.96   1
 -30   7  -1 2422.57 1209.53   4
 -23  -7  -1 1861.45 1205.26   4
  23 -30  -1 3295.23 1065.93   1
 -30   7  -1 2414.49 984.215   2
 -23  -7   2 1175.12 1073.54   2
   7  23   2 197.217 1046.02   3
  23 -30   2 1999.47 1083.28   1
  -7  30   2 2312.02 1256.51   3
 -30   7   2 409.155 1218.17   4
 -23  -7   2 1698.33 1242.73   4
 -30   7   2 159.026 1013.09   2
  30 -23   2-1706.84 1207.43   1
   7  23   5 2268.12 1252.28   3
  -7  30   5 3033.58 1337.82   3
  30 -23   5 2941.79 1306.07   1
 -30   7   5 4472.83 1488.95   4
 -23  -7   5 1978.55 1373.33   4
  23 -30   5 3195.47 1295.39   1
 -30   7   5 4870.28 1435.47   2
 -23  -7   5 2971.47 1343.91   2
 -22  -8  -5 8655.08 1684.32   2
  -8  30  -5 9026.11 2068.53   3
 -30   8  -5 10691.2 1454.17   4
 -22  -8  -5 10472.8 1651.51   4
 -22  -8  -2 3314.27 1348.93   2
   8  22  -2 1806.96 1044.66   3
  -8  30  -2 8083.40 1615.40   3
  22 -30  -2 4510.33 1107.55   1
 -30   8  -2 5247.20 1326.90   4
 -22  -8  -2 3828.49 1371.07   4
  30 -22  -2 4480.34 1496.80   1
 -30   8  -2 4865.39 1042.13   2
   8  22   1 7910.56 1231.09   3
  -8  30   1 9211.58 1511.52   3
  22 -30   1 6040.48 1104.18   1
  30 -22   1 7430.40 1449.90   1
 -30   8   1 11883.4 1713.93   4
 -22  -8   1 11118.9 1782.49   4
 -30   8   1 8431.32 1275.78   2
 -22  -8   1 7894.54 1442.04   2
 -22  -8   4 4339.70 1353.98   2
   8  22   4 3578.60 1214.79   3
  -8  30   4 4589.34 1386.20   3
 -30   8   4 6045.00 1542.10   4
  30 -22   4 5545.19 1414.81   1
 -22  -8   4 4705.90 1495.03   4
  22 -30   4 6171.13 1338.17   1
 -30   8   4 6164.40 1377.16   2
  30 -21  -3 1412.55 1445.50   1
 -30   9  -3 1361.35 831.545   2
   9  21  -3 3065.19 1121.94   3
 -21  -9  -3 1111.40 1303.83   2
  -9  30  -3 759.203 1386.66   3
 -30   9  -3 3356.22 1201.61   4
 -21  -9  -3 1287.89 1213.49   4
   9  21   0 14045.0 1369.75   3
  -9  30   0 11233.8 1581.07   3
 -30   9   0 14223.0 1735.94   4
 -21  -9   0 14563.9 1787.27   4
  30 -21   0 9994.16 1587.60   1
 -30   9   0 11692.7 1366.98   2
  21 -30   0 9887.55 1175.27   1
 -21  -9   0 10774.0 1556.57   2
 -21  -9   3 2815.55 1175.43   2
   9  21   3 1726.45 1024.20   3
  -9  30   3 2492.00 1263.66   3
 -30   9   3 3712.49 1351.03   4
 -21  -9   3 1199.57 1262.04   4
 -30   9   3 2012.85 1112.93   2
  21 -30   3 2114.82 1124.31   1
  30 -21   3 1590.65 1160.51   1
 -30  10  -4 2158.78 923.916   2
  10  20  -4 1866.15 1180.01   3
 -20 -10  -4 4510.73 1527.45   2
 -10  30  -4 4253.95 1654.92   3
 -30  10  -4 3951.59 1225.94   4
 -20 -10  -4 5010.41 1383.70   4
  10  20  -1 2257.43 997.923   3
 -20 -10  -1 2919.78 1286.68   2
 -10  30  -1 2529.77 1289.45   3
 -30  10  -1-241.872 1081.89   4
  20 -30  -1 338.099 798.853   1
  30 -20  -1 187.302 1246.89   1
 -20 -10  -1 682.484 1258.38   4
 -30  10  -1 454.804 872.172   2
 -20 -10   2 535.048 1090.70   2
  10  20   2 2010.77 1003.56   3
 -10  30   2 3384.31 1211.83   3
  30 -20   2 2017.16 1246.83   1
 -30  10   2 3749.63 1355.30   4
 -20 -10   2 3217.77 1423.98   4
 -30  10   2 3156.08 1080.85   2
  20 -30   2 1497.67 982.223   1
 -20 -10   5 989.948 1124.31   2
  10  20   5 3613.81 1282.53   3
 -10  30   5 2056.59 1236.67   3
 -30  10   5 2278.63 1336.49   4
  30 -20   5 674.265 1176.68   1
  20 -30   5 2711.93 1322.89   1
 -20 -10   5 2966.60 1418.98   4
 -30  10   5 2351.53 1278.75   2
 -19 -11  -5 8469.92 1774.18   2
 -11  30  -5 8214.77 2023.90   3
 -30  11  -5 11326.6 1475.90   4
  11  19  -2 6128.16 1099.09   3
 -19 -11  -2 7836.56 1544.78   2
  30 -19  -2 9335.07 1700.44   1
  19 -30  -2 7429.17 1035.38   1
 -11  30  -2 8042.76 1666.67   3
 -30  11  -2 9331.10 1509.69   4
 -19 -11  -2 9330.95 1668.80   4
 -30  11  -2 8243.20 1137.44   2
  11  19   1 19100.5 1514.52   3
 -11  30   1 13060.9 1641.97   3
 -30  11   1 16848.0 1812.76   4
  30 -19   1 14407.7 1698.15   1
  19 -30   1 14242.6 1315.81   1
 -19 -11   1 20146.9 2002.81   4
 -30  11   1 15754.2 1524.01   2
 -19 -11   1 13099.8 1609.18   2
 -11  30   4 15682.8 1747.21   3
  30 -19   4 12916.6 1670.94   1
  19 -30   4 16769.9 1749.21   1
 -30  11   4 19569.6 1994.32   4
 -19 -11   4 14653.7 1898.79   4
 -30  11   4 18823.2 1826.49   2
 -19 -11   4 13569.3 1695.50   2
  11  19   4 13879.5 1509.15   3
 -30  12  -6 544.701 991.095   4
 -18 -12  -6 880.800 1192.25   4
  12  18  -3 2939.12 1028.35   3
 -18 -12  -3 3428.09 1490.04   2
 -12  30  -3 3444.87 1636.55   3
 -30  12  -3 5692.80 1311.48   4
 -18 -12  -3 3453.38 1313.79   4
  30 -18  -3 2505.38 1532.12   1
 -30  12  -3 3819.19 873.450   2
  12  18   0 9015.10 1125.98   3
 -18 -12   0 8247.85 1455.46   2
 -12  30   0 7605.42 1475.50   3
 -30  12   0 10302.1 1541.38   4
 -18 -12   0 10560.1 1666.59   4
  18 -30   0 7924.62 1036.53   1
 -30  12   0 8404.61 1209.55   2
  30 -18   0 8530.69 1524.24   1
 -12  30   3 9552.64 1520.69   3
  30 -18   3 11457.5 1595.65   1
 -30  12   3 12370.9 1761.88   4
  18 -30   3 7297.44 1311.66   1
 -18 -12   3 12982.6 1796.87   4
 -30  12   3 10004.6 1432.68   2
 -18 -12   3 8807.39 1474.94   2
  12  18   3 10922.8 1323.25   3
  12  18   6 2437.92 1183.12   3
 -18 -12   6 3173.03 1294.90   2
 -12  30   6 709.722 1264.72   3
  18 -30   6 3234.21 1446.33   1
 -30  12   6 1774.53 1364.23   4
  30 -18   6 2598.74 1271.29   1
 -18 -12   6 3438.65 1485.39   4
 -30  12   6 3397.26 1312.36   2
 -17 -13  -4 7158.77 1722.43   2
 -13  30  -4 10237.5 1939.60   3
 -30  13  -4 10467.4 1478.19   4
 -17 -13  -4 13049.4 1706.99   4
  13  17  -1 10755.5 1130.67   3
 -17 -13  -1 12105.4 1667.82   2
 -13  30  -1 9314.50 1633.06   3
  30 -17  -1 10108.0 1647.58   1
 -30  13  -1 15494.9 1725.53   4
 -17 -13  -1 11420.4 1716.58   4
 -30  13  -1 14227.2 1304.91   2
  17 -30  -1 10338.4 1036.47   1
 -17 -13   2 7700.98 1369.15   2
 -13  30   2 6512.03 1447.69   3
  17 -30   2 7444.10 1212.91   1
  30 -17   2 9446.08 1546.80   1
 -30  13   2 9514.40 1556.21   4
 -17 -13   2 10374.0 1694.49   4
 -30  13   2 8991.34 1371.77   2
  13  17   2 8091.87 1200.93   3
  13  17   5 3744.90 1245.41   3
 -17 -13   5 2122.04 1243.52   2
 -13  30   5 2099.67 1304.93   3
  17 -30   5 3791.57 1341.38   1
 -30  13   5 3180.39 1335.15   4
 -17 -13   5 3743.64 1494.06   4
 -30  13   5 2886.49 1323.71   2
  30 -17   5 2621.65 1226.69   1
 -16 -14  -5 7411.76 1867.99   2
 -14  30  -5 7372.70 1956.03   3
 -30  14  -5 8261.33 1320.62   4
 -16 -14  -5 7850.46 1500.81   4
  14  16  -2 8028.93 1053.08   3
 -16 -14  -2 5217.05 1520.93   2
 -14  30  -2 7336.59 1654.93   3
 -30  14  -2 12933.7 1548.50   4
 -16 -14  -2 10649.5 1664.25   4
 -30  14  -2 9252.24 1067.93   2
  30 -16  -2 4848.96 1616.32   1
  14  16   1 4585.81 1008.86   3
  30 -16   1 5056.87 1371.04   1
 -16 -14   1 4125.91 1349.69   2
 -14  30   1 4397.08 1296.41   3
 -30  14   1 5867.73 1390.43   4
 -16 -14   1 6312.83 1564.70   4
  16 -30   1 4345.15 975.995   1
 -30  14   1 5184.67 1153.40   2
 -14  30   4 11411.0 1628.73   3
  16 -30   4 11326.3 1530.62   1
  30 -16   4 9566.02 1476.07   1
 -30  14   4 11675.5 1731.57   4
 -30  14   4 12645.8 1622.19   2
 -16 -14   4 11280.6 1851.75   4
  14  16   4 11101.8 1437.52   3
 -16 -14   4 8661.25 1523.46   2
 -30  15  -6 799.131 1006.13   4
 -15 -15  -6 253.906 1236.69   4
 -15 -15  -3 14090.1 1912.80   2
 -15  30  -3 12511.6 2007.84   3
 -30  15  -3 19200.0 1740.19   4
 -15 -15  -3 18854.3 1935.46   4
 -30  15  -3 14707.1 1160.78   2
  15  15   0 841.538 799.590   3
 -15 -15   0 1218.16 1288.75   2
 -15  30   0 18.2568 1227.98   3
 -30  15   0-1243.18 1192.40   4
 -15 -15   0 676.428 1254.48   4
  30 -15   0-780.370 1258.56   1
 -30  15   0-838.232 941.928   2
  15 -30   0 930.199 745.685   1
 -15  30   3 8932.83 1479.86   3
  15 -30   3 17097.3 1637.77   1
  30 -15   3 14915.3 1745.52   1
 -30  15   3 16334.1 1860.09   4
 -30  15   3 19240.6 1746.42   2
 -15 -15   3 17437.7 2024.72   4
  15  15   3 14029.8 1438.40   3
 -15 -15   3 12818.5 1634.55   2
 -15 -15   6 1064.16 1257.54   2
 -15  30   6 3537.63 1368.09   3
  15 -30   6 1408.78 1380.78   1
 -30  15   6 2079.07 1316.96   4
 -30  15   6 4597.26 1478.03   2
 -15 -15   6 1365.61 1333.82   4
  30 -15   6 699.087 1207.52   1
  15  15   6 2930.56 1247.54   3
 -14 -16  -4 11253.1 2055.24   2
 -16  30  -4 11298.6 2069.83   3
 -30  16  -4 12802.1 1550.24   4
 -14 -16  -4 12784.2 1693.55   4
  16  14  -1 4720.63 876.893   3
 -14 -16  -1 5374.70 1494.33   2
 -16  30  -1 5167.36 1509.04   3
  30 -14  -1 6350.68 1478.65   1
 -30  16  -1 4364.76 1306.97   4
  14 -30  -1 4999.32 801.785   1
 -14 -16  -1 7524.20 1505.04   4
 -30  16  -1 5117.92 1009.04   2
 -14 -16   2 10002.6 1544.37   2
  14 -30   2 8728.95 1230.62   1
 -16  30   2 7092.43 1458.22   3
 -30  16   2 8602.75 1563.85   4
 -30  16   2 7099.39 1304.97   2
  30 -14   2 7439.93 1513.51   1
 -14 -16   2 5791.83 1484.63   4
  16  14   2 9326.05 1189.94   3
  30 -14   5 7314.47 1507.69   1
 -14 -16   5 6004.02 1521.27   2
 -16  30   5 7770.94 1534.56   3
  14 -30   5 7900.94 1580.13   1
 -30  16   5 8889.62 1695.22   4
 -30  16   5 10930.0 1643.19   2
 -14 -16   5 6620.85 1562.39   4
  16  14   5 8553.37 1381.27   3
 -17  30  -5 2817.99 1744.14   3
 -30  17  -5 3899.43 1138.01   4
 -13 -17  -5 4506.09 1443.66   4
  30 -13  -2 4249.64 1611.13   1
 -17  30  -2 10061.9 1807.91   3
 -13 -17  -2 8193.53 1676.64   2
 -30  17  -2 10343.7 1544.76   4
 -13 -17  -2 10953.5 1687.05   4
 -30  17  -2 8931.63 1043.30   2
  30 -13   1 11650.9 1739.26   1
 -13 -17   1 12586.5 1685.11   2
 -17  30   1 12471.0 1674.80   3
  13 -30   1 13956.0 1240.23   1
 -30  17   1 14417.9 1772.22   4
 -30  17   1 13808.8 1461.01   2
 -13 -17   1 12983.4 1803.89   4
  17  13   1 15306.0 1229.76   3
  13 -30   4 10201.7 1607.45   1
 -17  30   4 8028.61 1566.86   3
 -13 -17   4 6673.79 1439.53   2
  30 -13   4 8184.60 1512.96   1
 -30  17   4 9409.93 1625.37   4
 -30  17   4 7512.42 1566.91   2
 -13 -17   4 11318.4 1705.51   4
  17  13   4 9756.27 1335.70   3
 -30  18  -6 1703.37 1092.08   4
 -12 -18  -3 9021.63 1947.65   2
 -18  30  -3 8626.48 1896.80   3
 -30  18  -3 8887.67 1471.18   4
 -12 -18  -3 10710.7 1698.73   4
 -30  18  -3 9519.15 958.993   2
  18  12   0 11232.6 1027.81   3
  30 -12   0 7010.07 1606.64   1
 -12 -18   0 10261.6 1745.09   2
 -18  30   0 8934.22 1604.82   3
  12 -30   0 10371.7 998.739   1
 -30  18   0 12845.4 1659.95   4
 -30  18   0 11535.5 1306.21   2
 -12 -18   0 10677.2 1759.53   4
 -12 -18   3 4087.94 1402.02   2
 -18  30   3 4110.04 1347.14   3
  12 -30   3 5824.27 1301.58   1
 -30  18   3 3927.51 1360.79   4
 -30  18   3 3992.78 1246.36   2
 -12 -18   3 5127.73 1469.36   4
  30 -12   3 2816.98 1322.63   1
  18  12   3 7082.12 1236.37   3
 -12 -18   6 1130.28 1264.08   2
  30 -12   6 1222.17 1286.04   1
 -18  30   6 919.863 1231.53   3
  12 -30   6 2816.21 1561.40   1
 -30  18   6-795.583 1377.46   4
 -30  18   6 2225.56 1351.16   2
 -12 -18   6 2387.05 1405.70   4
  18  12   6-631.081 1194.56   3
 -11 -19  -4 13149.1 2138.33   2
 -19  30  -4 12617.9 2143.61   3
 -30  19  -4 14302.1 1612.31   4
 -11 -19  -4 14000.3 1903.34   4
  19  11  -1 13067.5 998.825   3
  30 -11  -1 11822.6 1838.81   1
 -11 -19  -1 10995.2 1826.03   2
 -19  30  -1 12057.9 1836.14   3
 -30  19  -1 14208.1 1304.23   2
 -11 -19  -1 15585.9 1869.15   4
  11 -30   2 9643.21 1312.09   1
 -11 -19   2 7890.61 1515.88   2
 -19  30   2 7162.20 1461.86   3
 -30  19   2 8898.02 1552.63   4
  30 -11   2 5868.67 1442.32   1
 -30  19   2 9561.25 1423.63   2
 -11 -19   2 8036.29 1630.64   4
  19  11   2 8088.42 1147.87   3
 -11 -19   5 10918.3 1677.11   2
 -19  30   5 9592.32 1581.36   3
 -30  19   5 10504.2 1683.24   4
  30 -11   5 10565.8 1699.34   1
 -30  19   5 12072.2 1775.09   2
 -11 -19   5 10204.5 1696.14   4
  19  11   5 11450.3 1549.61   3
  11 -30   5 13312.1 1835.72   1
 -30  20  -5 3994.76 1181.12   4
 -20  30  -2 528.724 1536.72   3
 -10 -20  -2 3049.21 1599.07   2
 -30  20  -2 671.623 1156.52   4
 -10 -20  -2 1051.56 1288.84   4
 -30  20  -2 2153.74 783.606   2
  30 -10   1 596.977 1313.23   1
  20  10   1 77.0336 777.935   3
 -10 -20   1-119.331 1293.60   2
 -20  30   1 383.448 1342.91   3
  10 -30   1-156.173 823.631   1
 -30  20   1-337.199 1103.92   4
 -30  20   1 1383.88 1013.97   2
 -10 -20   1 238.322 1279.10   4
  10 -30   4 3613.83 1397.69   1
 -10 -20   4 4527.80 1350.36   2
 -20  30   4 1977.17 1366.96   3
 -30  20   4 3041.17 1398.58   4
 -30  20   4 4430.25 1376.51   2
 -10 -20   4 3586.11 1429.30   4
  30 -10   4 2018.88 1308.33   1
  20  10   4 1908.43 1079.14   3
 -21  30  -3 4048.07 1735.75   3
  -9 -21  -3 595.113 1628.67   2
 -30  21  -3 2463.51 1151.14   4
  -9 -21  -3 5089.92 1586.08   4
   9 -30   0 11717.2 1047.47   1
 -21  30   0 9322.07 1822.25   3
  -9 -21   0 8705.12 1729.33   2
 -30  21   0 13712.2 1765.56   4
 -30  21   0 11676.5 1389.55   2
  -9 -21   0 15522.0 1953.74   4
  30  -9   0 10166.0 1813.26   1
  21   9   0 10281.0 950.444   3
   9 -30   3 5045.43 1367.69   1
  -9 -21   3 2655.60 1393.66   2
 -21  30   3 776.489 1320.41   3
 -30  21   3 326.377 1197.12   4
  -9 -21   3 5545.26 1800.04   1
  30  -9   3 3039.30 1417.26   1
 -30  21   3 3132.28 1305.30   2
  -9 -21   3 2237.17 1381.87   4
  21   9   3 5103.63 1126.72   3
 -30  22  -4 9536.43 1514.14   4
 -22  30  -1 13084.5 2048.09   3
  -8 -22  -1 6801.15 1826.44   2
 -22  30  -1 12060.1 1691.38   2
 -30  22  -1 10460.2 1612.14   4
  -8 -22  -1 3823.40 1288.68   1
 -30  22  -1 8947.89 1184.15   2
  -8 -22  -1 10532.3 1752.45   4
  30  -8  -1 5751.44 1600.60   1
   8 -30   2 5106.77 1206.21   1
 -22  30   2 3686.41 1475.34   3
  -8 -22   2 6068.61 1645.26   2
 -30  22   2 2925.02 1265.63   4
  -8 -22   2 5315.76 1731.35   1
 -30  22   2 5803.39 1370.66   2
  -8 -22   2 4402.46 1539.76   4
  30  -8   2 6441.20 1479.56   3
  22   8   2 6345.12 1091.09   3
  30  -8   2 2946.86 1432.10   1
  -8 -22   5 6144.07 1623.91   2
 -22  30   5 7845.31 1546.49   3
 -22  30   5 11062.7 2227.69   2
 -30  22   5 14516.9 1907.48   4
 -30  22   5 10979.8 1840.05   2
  -8 -22   5 10677.2 2273.32   1
  -8 -22   5 8203.38 1633.78   4
  30  -8   5 12305.9 2139.55   3
   8 -30   5 15101.8 2076.85   1
  22   8   5 10341.7 1567.95   3
  30  -8   5 7155.75 1674.26   1
 -23  30  -5 4001.36 1518.29   4
 -30  23  -5 4687.91 1253.59   4
 -23  30  -2 820.312 1651.04   3
  -7 -23  -2 1583.87 1597.52   2
 -23  30  -2 681.664 1099.55   2
 -30  23  -2 135.351 1153.97   4
 -30  23  -2-697.316 788.178   2
  -7 -23  -2 1057.79 1449.12   4
   7 -30   1 3096.16 993.751   1
  -7 -23   1 3672.22 1590.84   2
 -23  30   1 1834.79 1474.20   3
 -23  30   1 3586.96 1505.42   2
 -30  23   1 3703.97 1439.41   4
  -7 -23   1 3076.79 1426.95   1
 -30  23   1 2712.99 1172.73   2
  30  -7   1 580.339 1383.15   1
  -7 -23   1 3333.35 1435.66   4
  30  -7   1 3214.84 1223.83   3
  23   7   1 2031.13 792.023   3
   7 -30   4 1705.88 1376.93   1
 -23  30   4 2120.19 1440.33   3
  -7 -23   4 831.268 1420.83   2
 -23  30   4 88.6513 1525.01   4
 -23  30   4 963.012 1611.47   2
 -30  23   4 153.032 1265.56   4
  30  -7   4 1451.01 1377.11   1
  -7 -23   4 205.574 1732.26   1
 -30  23   4 829.631 1349.36   2
  -7 -23   4 2448.93 1515.07   4
  30  -7   4 1041.99 1391.67   3
  23   7   4 3490.75 1214.61   3
 -24  30  -3 3287.48 1779.06   3
 -30  24  -3 3272.88 1270.45   4
  30  -6   0 5550.54 1777.92   1
 -24  30   0 6302.42 1757.40   3
  -6 -24   0 4008.20 1621.44   2
 -24  30   0 10848.9 1741.07   2
  -6 -24   0 9305.38 1570.77   1
 -30  24   0 7206.66 1533.51   4
 -30  24   0 10306.3 1401.16   2
  -6 -24   0 9136.12 1786.46   4
  30  -6   3 4529.44 1625.92   1
   6 -30   3 4407.74 1448.09   1
 -24  30   3 1456.32 1345.68   3
  -6 -24   3 2083.45 1472.90   2
 -24  30   3 2190.10 1631.22   4
 -24  30   3 6897.01 1841.23   2
 -30  24   3 4218.46 1439.51   4
  -6 -24   3 5563.72 1799.55   1
 -30  24   3 8040.67 1626.49   2
  -6 -24   3 3583.34 1564.84   4
  30  -6   3 3323.64 1431.51   3
  24   6   3 3352.42 1114.02   3
 -25  30  -4 1788.64 1432.94   4
 -30  25  -4 2758.42 1332.00   4
 -25  30  -1 8272.32 1905.97   3
  -5 -25  -1 9275.47 2046.17   2
 -25  30  -1 11318.5 1906.43   4
 -25  30  -1 12159.3 1624.47   2
 -30  25  -1 11191.9 1742.26   4
 -30  25  -1 8532.84 1249.85   2
   5 -30   2 787.368 1153.28   1
 -25  30   2 910.296 1501.34   3
  -5 -25   2-140.646 1455.02   2
 -25  30   2 880.668 1542.53   4
 -30  25   2 699.660 1334.47   4
 -25  30   2 2619.22 1584.35   2
 -30  25   2 1539.18 1306.26   2
  -5 -25   2 2525.99 1539.32   1
  30  -5   2-2376.84 1645.38   1
  -5 -25   2 2382.97 1516.39   4
  30  -5   2 1793.01 1240.72   3
  25   5   2 2713.63 1042.33   3
 -26  30  -2 4464.90 1563.33   4
 -30  26  -2 5398.50 1476.10   4
 -26  30   1 8817.19 1962.10   3
  -4 -26   1 7013.00 2052.29   2
 -26  30   1 15777.5 2208.63   4
 -26  30   1 12411.7 1908.49   2
 -30  26   1 12356.6 1845.59   4
  -4 -26   1 11586.0 1666.57   1
 -30  26   1 13540.4 1685.24   2
  30  -4   1 10365.0 1992.61   1
  30  -4   4-411.284 1588.09   1
 -26  30   4 4841.30 1706.20   3
  -4 -26   4 3245.71 1676.40   2
 -30  26   4 4735.63 1579.14   3
 -26  30   4 5402.29 1833.39   4
 -30  26   4 5475.95 1735.72   4
 -26  30   4 3355.22 1878.28   2
 -30  26   4 8060.89 1754.40   2
  -4 -26   4 9187.93 2102.33   1
  30  -4   4 4934.85 1512.82   3
  26   4   4 6191.70 1407.82   3
   4 -30   4 2112.56 1463.55   1
 -27  30  -3-804.608 1376.75   4
 -30  27  -3 2784.46 1436.59   4
 -27  30   0 5630.49 1888.73   3
 -27  30   0 4221.61 1600.67   4
 -27  30   0 8609.79 1591.82   2
 -30  27   0 7337.34 1690.98   4
 -30  27   0 6890.42 1350.73   2
 -27  30   3 385.971 1468.78   3
  -3 -27   3 1871.06 1730.72   2
 -30  27   3 1401.34 1480.89   3
 -27  30   3 1802.00 1592.45   4
 -30  27   3 4759.46 1648.05   4
 -27  30   3 2241.11 1669.62   2
 -30  27   3-740.301 1433.76   2
  -3 -27   3 1025.93 1517.49   1
  30  -3   3 1941.16 1269.03   3
  27   3   3 1177.80 1121.29   3
  30  -3   3 1932.19 1653.99   1
   3 -30   3 2672.22 1434.74   1
 -28  30  -1 10384.8 2136.82   3
 -28  30  -1 10104.5 1863.65   4
 -30  28  -1 11897.1 1885.53   4
  30  -2   2 1380.15 1636.60   1
 -28  30   2 2932.32 1765.01   3
 -30  28   2 852.299 1591.95   3
  -2 -28   2 4489.90 1814.39   2
 -30  28   2 1397.94 1546.17   4
 -28  30   2 3102.14 1640.60   2
 -30  28   2 2569.57 1494.09   2
  -2 -28   2 454.637 1376.86   1
 -29  30   1 2944.18 1764.43   3
 -30  29   1 5849.82 1847.52   3
 -29  30   1 7473.09 1780.58   4
 -30  29   1 5416.88 1730.72   4
 -30  29   1 8497.58 1641.85   2
 -29  30   1 7389.78 1655.49   2
 -31   3  -1 2081.86 1134.40   2
 -28  -3  -1 3229.02 1332.93   2
   3  28  -1 1718.03 1295.72   3
  -3  31  -1 2281.71 1427.55   3
  31 -28  -1-1085.69 1338.37   1
  28 -31  -1 289.912 1162.31   1
 -31   3  -1 3214.46 1336.98   4
 -28  -3  -1 405.176 1314.73   4
 -27  -4  -2 8738.76 1579.24   2
   4  27  -2 5381.12 1382.64   3
  -4  31  -2 7291.22 1654.48   3
  27 -31  -2 6447.61 1412.74   1
 -31   4  -2 9564.61 1600.64   4
 -27  -4  -2 9250.65 1634.87   4
  31 -27  -2 4455.11 1542.61   1
 -31   4  -2 8616.24 1397.90   2
 -27  -4   1 2776.44 1272.46   2
   4  27   1 2582.51 1271.73   3
  -4  31   1 1980.61 1307.85   3
  31 -27   1 4221.01 1343.97   1
 -31   4   1 5172.95 1520.61   4
 -27  -4   1 5738.43 1591.00   4
  27 -31   1 940.024 1124.27   1
 -31   4   1 2106.35 1141.35   2
 -31   5  -3 3641.06 1144.77   2
 -26  -5  -3 5104.84 1448.81   2
   5  26  -3 780.216 1328.21   3
  -5  31  -3 6777.87 1665.33   3
  31 -26  -3 6273.54 1751.87   1
 -31   5  -3 5235.41 1335.22   4
 -26  -5  -3 6266.73 1562.77   4
 -26  -5   0 4507.74 1339.91   2
   5  26   0 4620.52 1268.95   3
  -5  31   0 3611.52 1453.80   3
 -31   5   0 7737.31 1579.56   4
 -26  -5   0 6840.28 1598.66   4
  31 -26   0 4368.83 1390.25   1
  26 -31   0 4093.77 1151.23   1
 -31   5   0 4552.51 1184.70   2
 -26  -5   3 3979.69 1416.09   2
   5  26   3 4130.87 1317.21   3
  -5  31   3 2657.60 1367.17   3
  26 -31   3 5264.36 1268.95   1
 -31   5   3 7219.32 1629.20   4
 -26  -5   3 4336.57 1490.65   4
  31 -26   3 4230.96 1391.68   1
 -31   5   3 5976.45 1491.49   2
 -25  -6  -1 914.067 1233.35   2
   6  25  -1 1856.32 1159.36   3
  25 -31  -1 652.777 1057.92   1
  -6  31  -1 1024.19 1281.29   3
  31 -25  -1 398.357 1347.76   1
 -31   6  -1 2046.25 1237.72   4
 -25  -6  -1 2632.52 1327.69   4
 -31   6  -1 1857.76 1106.17   2
  31 -25   2 1131.23 1201.88   1
 -25  -6   2 1553.78 1195.03   2
   6  25   2 2269.16 1242.03   3
  -6  31   2 32.9117 1261.23   3
  25 -31   2 728.244 1028.45   1
 -31   6   2-23.8365 1336.78   4
 -25  -6   2 1620.54 1278.75   4
 -31   6   2 2266.65 1118.22   2
 -24  -7  -2 17570.6 1874.93   2
   7  24  -2 12730.7 1519.27   3
  -7  31  -2 20168.2 2038.15   3
  31 -24  -2 20736.8 2110.38   1
 -31   7  -2 25139.6 2081.15   4
  24 -31  -2 14901.7 1521.86   1
 -24  -7  -2 22049.9 2069.27   4
 -31   7  -2 18310.5 1602.68   2
 -24  -7   1-600.335 1119.99   2
   7  24   1 252.034 1070.27   3
  -7  31   1 2898.60 1379.46   3
  31 -24   1-435.098 1260.03   1
  24 -31   1 955.205 1021.80   1
 -31   7   1 1640.27 1323.72   4
 -24  -7   1 692.481 1256.64   4
 -31   7   1-69.6969 1052.63   2
 -24  -7   4 9607.83 1554.66   2
   7  24   4 12059.6 1608.02   3
  -7  31   4 11448.9 1668.72   3
  24 -31   4 9428.72 1546.63   1
 -31   7   4 13526.7 1892.47   4
 -24  -7   4 12369.5 1908.73   4
  31 -24   4 9351.53 1584.72   1
 -31   7   4 12520.3 1636.18   2
 -31   8  -3 6500.12 1169.36   2
 -23  -8  -3 3447.28 1435.70   2
   8  23  -3 4683.88 1300.68   3
  -8  31  -3 5921.71 1738.01   3
 -31   8  -3 9706.63 1554.99   4
 -23  -8  -3 8611.17 1545.81   4
  31 -23  -3 7388.33 1714.23   1
   8  23   0 9807.85 1315.88   3
  -8  31   0 10754.9 1594.75   3
 -31   8   0 12501.2 1672.28   4
 -23  -8   0 13511.3 1817.41   4
  31 -23   0 10676.9 1693.50   1
 -31   8   0 12379.2 1430.18   2
  23 -31   0 9683.56 1235.91   1
 -23  -8   0 12348.0 1675.97   2
 -23  -8   3 2494.86 1239.63   2
   8  23   3 4846.15 1276.56   3
  -8  31   3 4046.31 1290.24   3
 -31   8   3 336.500 1277.29   4
 -23  -8   3 2393.04 1330.33   4
 -31   8   3 3568.36 1239.09   2
  31 -23   3 2112.60 1266.32   1
  23 -31   3 4361.05 1226.22   1
 -31   9  -4 1375.05 937.063   2
 -22  -9  -4 3617.28 1521.41   2
  -9  31  -4 1332.91 1571.11   3
 -31   9  -4 1024.03 1144.07   4
 -22  -9  -4 1148.19 1255.45   4
 -22  -9  -1 1333.37 1296.20   2
   9  22  -1 2088.26 1004.01   3
  -9  31  -1 660.612 1297.91   3
 -31   9  -1 995.231 1137.31   4
  31 -22  -1-1268.15 1361.21   1
 -22  -9  -1-2.52757 1166.35   4
  22 -31  -1 1163.57 878.125   1
 -31   9  -1 798.283 928.165   2
  22 -31   2 5259.76 1194.35   1
 -22  -9   2 2954.47 1285.28   2
   9  22   2 2841.69 1078.23   3
  -9  31   2 1824.58 1290.87   3
  31 -22   2 1565.00 1246.51   1
 -31   9   2 2751.08 1337.20   4
 -22  -9   2 2538.77 1334.95   4
 -31   9   2 2647.28 1126.49   2
 -21 -10  -5 2450.57 1549.94   2
 -10  31  -5 4523.76 1824.74   3
 -31  10  -5 1798.30 1202.04   4
 -21 -10  -5 2002.78 1287.42   4
 -21 -10  -2 11180.1 1709.40   2
  10  21  -2 10623.8 1320.28   3
 -10  31  -2 11340.4 1764.86   3
 -31  10  -2 11515.7 1654.74   4
  31 -21  -2 10040.6 1769.71   1
 -21 -10  -2 13491.7 1806.83   4
 -31  10  -2 8073.79 1135.16   2
  10  21   1-443.778 953.447   3
 -21 -10   1 1059.74 1262.18   2
  21 -31   1-652.415 898.012   1
 -10  31   1 1428.55 1293.51   3
 -31  10   1 4680.98 1434.70   4
  31 -21   1 892.519 1216.35   1
 -21 -10   1 1440.16 1229.93   4
 -31  10   1 1056.52 1019.01   2
 -10  31   4 16288.9 1841.72   3
  31 -21   4 15515.0 1810.15   1
  21 -31   4 20008.9 1827.30   1
 -31  10   4 23188.4 2182.88   4
 -21 -10   4 21701.6 2135.86   4
 -31  10   4 20529.2 1915.64   2
 -21 -10   4 20521.0 1904.14   2
  10  21   4 21963.2 1806.79   3
 -31  11  -3 2027.07 882.691   2
  11  20  -3 3332.29 1115.88   3
 -20 -11  -3 4195.45 1519.04   2
 -11  31  -3 4163.47 1607.24   3
 -31  11  -3 987.562 1101.68   4
  31 -20  -3 2753.93 1541.81   1
 -20 -11  -3 4662.29 1423.02   4
  11  20   0 8154.53 1196.99   3
 -20 -11   0 6326.38 1450.66   2
 -11  31   0 9060.50 1498.99   3
  31 -20   0 6221.86 1623.83   1
 -31  11   0 6638.05 1526.17   4
 -20 -11   0 9386.07 1654.44   4
 -31  11   0 6885.21 1213.10   2
  20 -31   0 7361.07 1062.33   1
  31 -20   3 4014.05 1349.64   1
  11  20   3 5797.79 1199.45   3
 -20 -11   3 5141.94 1363.38   2
 -11  31   3 3066.96 1313.55   3
 -31  11   3 3301.81 1389.77   4
 -20 -11   3 3131.31 1360.04   4
  20 -31   3 4098.23 1179.63   1
 -31  11   3 5523.71 1265.93   2
 -19 -12  -4 5998.71 1685.08   2
 -12  31  -4 6452.56 1946.13   3
 -31  12  -4 8559.61 1450.55   4
 -19 -12  -4 4871.21 1431.72   4
  12  19  -1 650.209 862.314   3
 -19 -12  -1 104.165 1206.58   2
 -12  31  -1 3616.16 1515.05   3
 -31  12  -1 1668.70 1173.78   4
  19 -31  -1 1332.72 762.095   1
 -19 -12  -1 1222.13 1338.07   4
  31 -19  -1 1151.01 1278.29   1
 -31  12  -1 1491.32 887.543   2
  12  19   2 503.438 962.498   3
 -19 -12   2 4092.69 1360.46   2
 -12  31   2 3510.46 1296.36   3
  31 -19   2 2272.08 1237.29   1
 -31  12   2 3991.77 1414.24   4
 -19 -12   2 1495.76 1308.47   4
 -31  12   2 1458.43 1053.37   2
  19 -31   2 1978.22 979.113   1
  12  19   5-97.4785 1080.04   3
 -19 -12   5 1110.37 1275.49   2
 -12  31   5 470.428 1230.62   3
 -31  12   5-1099.63 1404.95   4
  19 -31   5 1382.13 1298.40   1
 -19 -12   5 170.928 1262.29   4
 -31  12   5-918.937 1224.70   2
  31 -19   5 1077.64 1271.55   1
 -18 -13  -5 291.070 1558.45   2
 -13  31  -5-1597.31 1806.35   3
 -31  13  -5 1029.37 1056.34   4
 -18 -13  -5 422.482 1185.44   4
 -18 -13  -2 15890.4 1949.36   2
  13  18  -2 17028.7 1320.57   3
 -13  31  -2 15806.8 1969.77   3
 -31  13  -2 22620.1 1951.44   4
 -18 -13  -2 20053.3 2032.97   4
  31 -18  -2 16161.7 2070.78   1
 -31  13  -2 14795.9 1310.97   2
 -18 -13   1 8536.07 1598.41   2
  13  18   1 7587.50 1124.65   3
 -13  31   1 5057.30 1375.86   3
 -31  13   1 11014.4 1669.99   4
  18 -31   1 9095.20 1137.20   1
 -18 -13   1 9956.19 1756.48   4
 -31  13   1 8647.67 1326.80   2
  31 -18   1 7010.20 1559.14   1
 -13  31   4 7225.61 1559.65   3
  18 -31   4 13582.0 1632.44   1
 -31  13   4 15087.8 1895.75   4
 -18 -13   4 16097.3 2006.15   4
 -31  13   4 12489.8 1629.46   2
 -18 -13   4 10576.8 1605.74   2
  13  18   4 11748.3 1445.20   3
  31 -18   4 8493.68 1539.76   1
 -17 -14  -3 7596.98 1760.56   2
 -14  31  -3 4569.27 1626.54   3
 -31  14  -3 7013.29 1371.74   4
 -17 -14  -3 6764.64 1502.69   4
 -31  14  -3 4878.41 917.359   2
  31 -17  -3 3515.39 1708.88   1
  17 -31   0 3277.53 875.678   1
  14  17   0 3628.84 954.178   3
 -17 -14   0 3672.19 1333.16   2
 -14  31   0 3454.53 1422.81   3
 -31  14   0 5593.53 1408.66   4
  31 -17   0 3266.64 1460.86   1
 -17 -14   0 6197.64 1563.67   4
 -31  14   0 5195.27 1151.94   2
  14  17   3 1424.53 1045.97   3
 -17 -14   3 2587.80 1310.16   2
 -14  31   3 45.4112 1233.38   3
  31 -17   3 615.444 1224.09   1
 -31  14   3 3070.19 1352.74   4
  17 -31   3 1436.44 1089.37   1
 -17 -14   3 3258.94 1479.53   4
 -31  14   3 384.898 1043.98   2
 -16 -15  -4 10914.2 1983.07   2
 -31  15  -4 11420.8 1511.39   4
 -16 -15  -4 8356.42 1608.77   4
  15  16  -1 58.4757 772.992   3
  31 -16  -1 125.685 1350.08   1
 -16 -15  -1 565.755 1305.64   2
 -15  31  -1 1534.69 1366.04   3
 -31  15  -1 1065.05 1174.10   4
 -16 -15  -1 294.310 1257.26   4
 -31  15  -1 464.461 820.576   2
 -16 -15   2 10582.4 1601.15   2
 -15  31   2 10242.9 1590.62   3
  16 -31   2 17551.0 1497.91   1
 -31  15   2 13810.1 1813.81   4
  31 -16   2 11154.3 1697.61   1
 -31  15   2 14019.8 1569.16   2
 -16 -15   2 18810.0 2057.01   4
  15  16   2 14991.3 1392.61   3
  15  16   5 3435.58 1203.26   3
 -16 -15   5 1799.27 1298.21   2
 -15  31   5 1895.99 1298.75   3
  16 -31   5 3581.41 1396.23   1
 -31  15   5 2790.30 1382.29   4
 -31  15   5 3154.26 1389.53   2
 -16 -15   5 3751.15 1490.49   4
  31 -16   5 3715.23 1386.06   1
 -16  31  -5 3292.73 1863.66   3
 -15 -16  -5 3148.45 1814.70   2
 -31  16  -5 1965.14 1122.58   4
 -15 -16  -5 3964.18 1408.70   4
 -15 -16  -2 10537.9 1888.61   2
 -16  31  -2 10562.4 1843.66   3
 -31  16  -2 13338.6 1686.78   4
  31 -15  -2 8180.70 1827.41   1
 -15 -16  -2 13778.5 1868.20   4
 -31  16  -2 12190.1 1190.03   2
  16  15   1 281.050 815.505   3
 -15 -16   1 2844.66 1345.78   2
 -16  31   1-1088.86 1238.07   3
  31 -15   1 656.814 1229.15   1
 -31  16   1 872.798 1220.29   4
  15 -31   1 975.629 854.264   1
 -15 -16   1-794.093 1366.27   4
 -31  16   1-315.136 961.285   2
  15 -31   4 7601.93 1437.21   1
 -15 -16   4 6962.49 1440.52   2
 -16  31   4 7905.97 1542.43   3
  31 -15   4 6403.99 1520.83   1
 -31  16   4 8939.18 1635.42   4
 -31  16   4 9154.02 1551.83   2
 -15 -16   4 6123.67 1554.23   4
  16  15   4 8195.03 1298.93   3
 -14 -17  -3 4332.76 1765.32   2
 -17  31  -3 1462.52 1646.50   3
 -31  17  -3 4347.18 1234.49   4
 -14 -17  -3 2451.40 1385.45   4
  17  14   0 5054.40 909.305   3
 -14 -17   0 4103.71 1447.21   2
 -17  31   0 3694.78 1319.50   3
 -31  17   0 3779.07 1276.80   4
 -14 -17   0 5098.14 1504.11   4
 -31  17   0 4265.54 1098.48   2
  14 -31   0 3100.56 855.003   1
  31 -14   0 2621.34 1395.39   1
  17  14   3 4879.39 1152.41   3
  14 -31   3 7323.21 1314.71   1
 -14 -17   3 5362.49 1447.30   2
 -17  31   3 716.173 1252.00   3
 -31  17   3 4886.12 1441.66   4
 -31  17   3 5034.20 1335.98   2
  31 -14   3 3123.49 1409.01   1
 -14 -17   3 2513.93 1362.56   4
 -18  31  -4 8552.21 2069.43   3
 -13 -18  -4 9340.06 2043.41   2
 -31  18  -4 12317.2 1555.04   4
 -13 -18  -4 15385.3 1911.24   4
  18  13  -1 7043.50 895.043   3
 -13 -18  -1 9731.67 1768.60   2
 -18  31  -1 8629.74 1722.75   3
 -31  18  -1 9817.41 1569.29   4
 -31  18  -1 7743.26 1119.91   2
 -13 -18  -1 10006.2 1690.90   4
  31 -13  -1 7181.29 1776.30   1
 -13 -18   2 15654.7 1855.59   2
  13 -31   2 19664.8 1558.92   1
 -18  31   2 11936.9 1699.03   3
 -31  18   2 18469.8 1954.15   4
 -31  18   2 17537.3 1712.01   2
 -13 -18   2 17556.4 1999.92   4
  31 -13   2 13902.6 1763.35   1
  18  13   2 18493.9 1468.29   3
 -13 -18   5 2253.83 1375.59   2
 -18  31   5 2016.70 1291.37   3
  13 -31   5 3881.66 1500.74   1
  31 -13   5-479.994 1308.66   1
 -31  18   5 3086.58 1417.77   4
 -31  18   5 402.891 1279.02   2
 -13 -18   5-564.437 1346.44   4
  18  13   5 1165.19 1161.75   3
 -31  19  -5 773.644 1065.02   4
 -12 -19  -5 781.047 1391.74   4
 -12 -19  -2 1064.10 1518.53   2
 -19  31  -2 3387.61 1596.95   3
 -31  19  -2 4903.68 1292.67   4
  31 -12  -2 1802.04 1451.82   1
 -12 -19  -2 3898.64 1393.53   4
 -31  19  -2 3047.92 867.121   2
  19  12   1 1633.47 846.807   3
 -12 -19   1 853.012 1301.08   2
 -19  31   1 1628.67 1328.88   3
 -31  19   1 1177.65 1243.57   4
  12 -31   1 1836.49 868.133   1
 -31  19   1 1054.38 994.202   2
 -12 -19   1 3139.09 1420.76   4
  31 -12   1-607.871 1302.68   1
 -12 -19   4 4676.64 1419.38   2
 -19  31   4 6495.90 1562.44   3
  12 -31   4 4896.88 1481.44   1
 -31  19   4 3791.78 1475.43   4
 -31  19   4 8278.22 1571.53   2
  31 -12   4 2910.62 1458.95   1
 -12 -19   4 7311.40 1605.72   4
  19  12   4 6977.72 1299.02   3
 -20  31  -3 5107.75 1843.43   3
 -11 -20  -3 4187.90 1850.02   2
 -31  20  -3 4765.42 1281.06   4
 -11 -20  -3 6167.16 1538.96   4
 -11 -20   0 11052.8 1818.07   2
 -20  31   0 6480.50 1612.16   3
 -31  20   0 8706.37 1527.74   4
 -31  20   0 6859.73 1212.74   2
 -11 -20   0 11603.2 1832.01   4
  31 -11   0 9483.22 1790.90   1
  20  11   0 8207.10 962.521   3
 -11 -20   3 6573.77 1561.34   2
 -20  31   3 2377.99 1371.64   3
  11 -31   3 4774.29 1291.48   1
  31 -11   3 1974.39 1304.07   1
 -31  20   3 3480.50 1387.39   4
 -31  20   3 3313.43 1295.36   2
 -11 -20   3 3699.57 1433.87   4
  20  11   3 4297.74 1134.37   3
 -21  31  -4 20208.1 2483.33   3
 -31  21  -4 19838.4 1886.84   4
 -10 -21  -4 20660.7 2205.63   4
 -10 -21  -1 434.847 1498.77   2
 -21  31  -1 1356.30 1535.77   3
 -31  21  -1 2105.22 1218.69   4
  31 -10  -1 11.3110 1483.66   1
 -31  21  -1 438.382 925.198   2
 -10 -21  -1 518.449 1292.62   4
  10 -31   2 12723.0 1479.64   1
 -10 -21   2 10165.3 1819.12   2
 -21  31   2 6582.31 1628.03   3
 -31  21   2 14683.8 1836.19   4
 -31  21   2 12399.5 1589.56   2
 -10 -21   2 13234.1 1845.26   4
  31 -10   2 5719.14 1630.96   1
  21  10   2 12049.2 1262.59   3
  10 -31   5 4772.56 1617.98   1
 -10 -21   5 1875.19 1466.78   2
 -21  31   5 3119.59 1439.47   3
 -31  21   5 3243.42 1357.10   4
 -10 -21   5 6446.42 2135.26   1
 -31  21   5 5175.05 1639.02   2
 -10 -21   5 4652.51 1527.53   4
  31 -10   5 1980.33 1418.02   1
  21  10   5 2298.77 1278.04   3
 -22  31  -2 1559.03 1616.20   3
  -9 -22  -2 1011.22 1548.74   2
 -22  31  -2 2305.35 1272.58   2
 -31  22  -2 2371.47 1228.85   4
  -9 -22  -2-2.83017 1362.81   4
  22   9   1 119.084 773.661   3
  -9 -22   1 720.513 1431.65   2
 -22  31   1 199.042 1422.74   3
   9 -31   1-802.044 875.650   1
  31  -9   1 26.3020 1402.67   1
 -31  22   1 1536.65 1209.26   4
  -9 -22   1-992.426 1396.85   1
 -31  22   1-1557.22 1076.37   2
  -9 -22   1 2285.06 1439.33   4
  31  -9   1 336.383 1213.57   3
   9 -31   4 749.628 1385.55   1
 -22  31   4 1466.48 1429.56   3
  -9 -22   4 2125.75 1395.77   2
  31  -9   4 1199.16 1449.22   1
 -31  22   4 432.034 1211.88   4
  -9 -22   4 3476.38 1904.84   1
 -31  22   4 4203.86 1486.02   2
  -9 -22   4 441.541 1419.64   4
  22   9   4 2644.08 1216.94   3
 -23  31  -3 3363.73 1870.14   3
 -31  23  -3 2814.77 1292.46   4
 -23  31   0 11910.2 1950.89   3
  -8 -23   0 8277.15 1930.39   2
 -23  31   0 14188.6 1936.26   2
  -8 -23   0 9726.09 1650.95   1
 -31  23   0 11125.1 1740.22   4
 -31  23   0 17512.2 1579.65   2
  -8 -23   0 11589.2 1870.13   4
  31  -8   0 7682.18 1852.03   1
 -23  31   3 6276.84 1654.21   3
  -8 -23   3 7834.41 1739.48   2
 -23  31   3 10262.6 2077.32   2
  -8 -23   3 11426.1 2090.47   1
 -31  23   3 9501.72 1727.50   4
 -31  23   3 10649.7 1726.09   2
  -8 -23   3 8411.98 1759.51   4
  31  -8   3 7180.99 1653.74   3
  31  -8   3 6474.13 1715.55   1
   8 -31   3 9099.28 1547.10   1
  23   8   3 8283.79 1302.16   3
 -24  31  -4 13341.1 2012.46   4
 -31  24  -4 13371.8 1717.53   4
 -24  31  -1 2088.10 1666.12   3
  -7 -24  -1 416.450 1652.12   2
 -24  31  -1 1116.88 1325.28   2
 -31  24  -1 1518.30 1275.91   4
 -31  24  -1-97.8633 925.069   2
  -7 -24  -1 1246.62 1566.02   4
  -7 -24   2 17513.6 2130.64   2
 -24  31   2 19489.5 2233.39   3
 -24  31   2 28820.9 2593.26   2
  -7 -24   2 23179.9 2326.18   1
 -31  24   2 23626.0 2212.15   4
 -31  24   2 26245.7 2146.94   2
  31  -7   2 18793.0 2193.38   1
  -7 -24   2 22802.0 2334.00   4
  31  -7   2 28597.8 2177.58   3
   7 -31   2 27520.1 1974.48   1
  24   7   2 25890.3 1650.52   3
 -25  31  -2 2289.16 1729.91   3
 -25  31  -2 5032.61 1698.69   4
 -31  25  -2 1115.65 1275.68   4
 -25  31   1 880.332 1520.59   3
  -6 -25   1 460.545 1583.45   2
 -25  31   1-2308.43 1558.67   4
 -25  31   1 101.843 1439.36   2
 -31  25   1 2921.42 1406.17   4
  -6 -25   1 1213.07 1398.87   1
 -31  25   1 922.603 1115.17   2
  31  -6   1 850.341 1602.12   1
  -6 -25   1 3985.44 1564.80   4
 -26  31  -3 5289.30 1701.98   4
 -31  26  -3 4196.05 1444.68   4
 -26  31   0 3685.67 1742.13   3
  -5 -26   0 5199.02 1906.33   2
 -26  31   0 7349.90 1789.59   4
 -31  26   0 7783.65 1652.73   4
 -26  31   0 9088.38 1659.18   2
 -31  26   0 6242.23 1275.06   2
   5 -31   3 4983.46 1515.14   1
 -26  31   3 2176.19 1580.63   3
  -5 -26   3 1834.88 1687.71   2
 -31  26   3 5709.31 1707.45   3
 -26  31   3 6143.97 1859.20   4
 -31  26   3 7016.44 1734.81   4
  31  -5   3 6720.40 1865.70   1
 -26  31   3 7027.16 1894.17   2
 -31  26   3 6081.91 1607.04   2
  -5 -26   3 9172.03 1919.83   1
  -5 -26   3 5580.80 1702.64   4
  31  -5   3 7297.40 1584.14   3
  26   5   3 7169.41 1297.37   3
 -27  31  -1 3721.74 1879.28   3
 -27  31  -1 5788.82 1783.46   4
 -31  27  -1 5885.99 1523.72   4
 -27  31   2 9731.46 2065.85   3
  -4 -27   2 7738.73 1987.67   2
 -27  31   2 12603.0 2142.24   4
 -27  31   2 12200.4 2084.97   2
 -31  27   2 9411.38 1828.80   4
  -4 -27   2 11756.2 1893.09   1
 -31  27   2 10340.8 1738.64   2
  31  -4   2 9817.19 2104.84   1
 -28  31   1 1255.29 1689.21   3
  -3 -28   1 1481.40 1773.39   2
 -28  31   1 24.6620 1508.90   4
 -31  28   1 1415.14 1485.47   4
 -28  31   1 1807.23 1462.42   2
 -31  28   1 2386.99 1316.75   2
 -32   6  -2 4240.04 1195.06   2
  26 -32  -2 2407.08 1174.49   1
 -26  -6  -2 2732.97 1399.54   2
   6  26  -2 3360.62 1305.78   3
  -6  32  -2 3416.85 1547.36   3
 -32   6  -2 6316.94 1434.90   4
 -26  -6  -2 5250.72 1557.48   4
  32 -26  -2 3555.32 1585.59   1
 -26  -6   1 5175.75 1365.89   2
   6  26   1 5265.86 1373.14   3
  -6  32   1 5983.48 1585.46   3
  32 -26   1 3415.42 1425.29   1
 -26  -6   1 6425.50 1626.30   4
 -32   6   1 8119.66 1465.18   2
  26 -32   1 5781.24 1261.54   1
 -25  -7   0-393.287 1190.51   2
   7  25   0-387.469 1107.44   3
  -7  32   0 861.536 1342.86   3
 -32   7   0 356.555 1267.06   4
 -25  -7   0-1376.65 1350.46   4
  25 -32   0 2175.04 1044.61   1
 -32   7   0 2011.78 1134.74   2
  32 -25   0 295.502 1333.45   1
  24 -32  -1-615.340 946.860   1
 -24  -8  -1-832.171 1356.28   2
   8  24  -1-324.472 1043.50   3
  -8  32  -1-943.772 1329.81   3
 -32   8  -1 126.564 1185.98   4
  32 -24  -1 1645.66 1418.23   1
 -24  -8  -1 1714.91 1342.35   4
 -32   8  -1 2754.99 1049.38   2
 -24  -8   2 2515.17 1319.12   2
   8  24   2 3665.01 1212.65   3
  -8  32   2 2509.28 1348.00   3
  24 -32   2 2284.17 1122.01   1
  32 -24   2 3085.14 1458.62   1
 -32   8   2 3912.49 1536.13   4
 -24  -8   2 7340.35 1569.87   4
 -32   8   2 3575.46 1161.57   2
 -32   9  -2 2862.54 1041.57   2
  32 -23  -2 1956.77 1478.10   1
   9  23  -2 2098.72 1145.84   3
 -23  -9  -2 3118.68 1509.26   2
  -9  32  -2 2428.51 1495.09   3
 -32   9  -2 4976.19 1412.56   4
 -23  -9  -2 4651.61 1485.02   4
   9  23   1 11726.6 1426.80   3
  -9  32   1 9685.31 1634.37   3
 -32   9   1 18139.9 2067.70   4
  32 -23   1 10958.2 1711.15   1
 -23  -9   1 16266.1 1958.08   4
 -32   9   1 13185.1 1556.32   2
  23 -32   1 11877.4 1356.11   1
 -23  -9   1 10055.5 1650.57   2
 -32  10  -3 2308.88 967.241   2
  10  22  -3 1139.88 1101.61   3
 -22 -10  -3 2725.59 1483.39   2
 -10  32  -3 3831.18 1741.33   3
  32 -22  -3 2938.36 1734.10   1
 -32  10  -3 3533.55 1323.12   4
 -22 -10  -3 3009.62 1374.90   4
  10  22   0 2420.49 1037.68   3
 -22 -10   0 4961.95 1423.13   2
 -10  32   0 2891.71 1385.54   3
  32 -22   0 2389.45 1450.85   1
  22 -32   0 2055.33 927.681   1
 -32  10   0 5202.37 1451.38   4
 -22 -10   0 3984.48 1489.45   4
 -32  10   0 4259.80 1186.43   2
  32 -22   3 6092.81 1441.44   1
 -22 -10   3 5649.08 1466.28   2
  10  22   3 7740.62 1338.98   3
 -10  32   3 4946.36 1532.59   3
  22 -32   3 8108.30 1359.68   1
 -32  10   3 8155.75 1673.24   4
 -22 -10   3 4488.73 1552.29   4
 -32  10   3 5913.48 1336.67   2
 -21 -11  -4 1796.02 1455.89   2
 -11  32  -4 2215.33 1698.37   3
 -32  11  -4 3762.69 1278.61   4
 -21 -11  -4 4276.29 1453.22   4
  11  21  -1 2553.32 1008.17   3
 -21 -11  -1 1131.20 1239.84   2
 -11  32  -1 2050.36 1355.92   3
 -32  11  -1 5430.96 1427.36   4
 -21 -11  -1 5314.54 1496.09   4
  21 -32  -1 2323.42 910.994   1
  32 -21  -1 3628.17 1533.61   1
 -32  11  -1 753.162 943.254   2
  11  21   2 3618.42 1189.88   3
 -21 -11   2 3120.33 1366.99   2
 -11  32   2 3360.09 1364.82   3
  32 -21   2 5894.41 1510.77   1
 -32  11   2 3574.49 1421.34   4
 -21 -11   2 4256.34 1453.96   4
 -32  11   2 5992.36 1316.55   2
  21 -32   2 2954.39 1068.57   1
  12  20  -2 181.740 927.254   3
 -20 -12  -2-790.220 1290.60   2
 -12  32  -2 733.254 1438.17   3
  32 -20  -2 3125.49 1569.26   1
 -32  12  -2 2067.91 1248.14   4
 -20 -12  -2 2619.75 1401.38   4
 -32  12  -2 1801.06 923.488   2
 -20 -12   1 16716.6 1912.62   2
  12  20   1 18470.8 1526.90   3
 -12  32   1 13753.7 1756.61   3
 -32  12   1 23150.6 2182.09   4
  20 -32   1 14271.2 1380.67   1
 -20 -12   1 20760.9 2162.25   4
  32 -20   1 17110.5 1913.42   1
 -32  12   1 15544.2 1612.37   2
  12  20   4 3737.78 1225.51   3
 -20 -12   4 1875.92 1390.87   2
 -12  32   4 652.431 1281.98   3
 -32  12   4 5200.44 1567.97   4
 -20 -12   4 3268.64 1480.31   4
  20 -32   4 3893.65 1284.98   1
 -32  12   4 4333.77 1317.93   2
  32 -20   4 1943.65 1333.41   1
 -19 -13  -3 747.921 1422.20   2
 -13  32  -3-1985.99 1588.97   3
 -32  13  -3 598.351 1110.55   4
 -19 -13  -3 2352.37 1426.38   4
  32 -19  -3-2231.73 1594.97   1
 -32  13  -3-627.752 837.116   2
  13  19   0 3935.17 1025.72   3
 -19 -13   0 5390.82 1495.37   2
  19 -32   0 4501.39 957.816   1
 -13  32   0 3795.11 1471.67   3
 -32  13   0 7472.41 1544.14   4
  32 -19   0 4059.01 1440.94   1
 -19 -13   0 7949.90 1711.29   4
 -32  13   0 6965.33 1214.15   2
  13  19   3 5374.25 1252.81   3
 -19 -13   3 3102.33 1355.37   2
 -13  32   3 2099.72 1353.82   3
  32 -19   3 2465.72 1311.77   1
 -32  13   3 3859.46 1446.15   4
 -19 -13   3 6664.82 1647.14   4
  19 -32   3 3796.25 1182.90   1
 -32  13   3 2513.88 1156.98   2
 -18 -14  -4-83.3693 1556.41   2
 -14  32  -4 1410.88 1662.93   3
 -32  14  -4 2499.95 1247.17   4
 -18 -14  -4 2502.39 1345.83   4
  32 -18  -1 342.344 1415.82   1
  14  18  -1 3154.34 968.030   3
 -18 -14  -1 4387.67 1443.66   2
 -14  32  -1 2914.42 1442.21   3
 -32  14  -1 5203.81 1421.00   4
 -18 -14  -1 3871.86 1467.24   4
 -32  14  -1 4092.34 1081.49   2
  14  18   2 547.113 952.488   3
 -18 -14   2 1065.12 1284.03   2
 -14  32   2 1438.77 1338.24   3
 -32  14   2 128.459 1259.13   4
 -18 -14   2 1078.93 1402.28   4
  32 -18   2-608.627 1277.05   1
  18 -32   2 1570.86 983.617   1
 -32  14   2 535.119 1063.36   2
  32 -17  -2 3258.02 1608.99   1
 -17 -15  -2 1143.65 1422.87   2
 -15  32  -2 1035.62 1460.23   3
 -32  15  -2 1382.59 1198.76   4
 -17 -15  -2 2472.84 1330.83   4
 -32  15  -2 2092.08 878.631   2
  15  17   1 12201.3 1298.66   3
 -17 -15   1 12562.8 1751.75   2
 -15  32   1 9423.23 1668.76   3
  17 -32   1 14004.1 1304.86   1
 -32  15   1 16484.3 1892.69   4
 -17 -15   1 13814.3 1920.43   4
 -32  15   1 13372.7 1461.51   2
  32 -17   1 10455.9 1732.07   1
  15  17   4-236.116 1117.70   3
 -17 -15   4 175.517 1361.20   2
 -15  32   4-129.256 1296.68   3
  32 -17   4-731.508 1266.45   1
 -32  15   4-313.767 1339.51   4
  17 -32   4-2179.13 1298.77   1
 -17 -15   4 838.160 1388.49   4
 -32  15   4 1851.72 1215.66   2
 -16 -16  -3 5541.49 1742.97   2
 -16  32  -3 5556.82 1770.32   3
 -32  16  -3 2838.46 1274.68   4
 -16 -16  -3 675.045 1306.61   4
  16  16   0 2466.41 890.022   3
 -16 -16   0 4093.02 1495.52   2
 -16  32   0 3158.13 1406.07   3
 -32  16   0 3746.85 1360.26   4
 -16 -16   0 3455.01 1495.83   4
 -32  16   0 3894.48 1076.93   2
  32 -16   0 2336.37 1419.33   1
  16 -32   0 3320.31 885.520   1
  16  16   3 3352.85 1148.52   3
 -16 -16   3 2591.29 1336.83   2
 -16  32   3 3699.02 1419.75   3
 -32  16   3 4723.40 1497.19   4
  16 -32   3 3786.80 1253.23   1
  32 -16   3 3436.55 1434.13   1
 -16 -16   3 3954.34 1536.26   4
 -32  16   3 2879.53 1217.53   2
 -15 -17  -4-209.850 1704.85   2
 -17  32  -4 2915.41 1786.12   3
 -32  17  -4 1269.87 1101.27   4
 -15 -17  -4-25.0521 1257.44   4
  17  15  -1 12981.1 1134.24   3
 -15 -17  -1 9564.88 1788.09   2
 -17  32  -1 7583.18 1704.83   3
 -32  17  -1 17262.9 1884.52   4
  32 -15  -1 8215.11 1776.94   1
 -15 -17  -1 15422.3 1898.03   4
 -32  17  -1 13571.2 1336.92   2
  17  15   2 3459.53 1030.17   3
 -15 -17   2 2675.85 1401.49   2
 -17  32   2 953.432 1318.58   3
  32 -15   2 3458.87 1455.67   1
 -32  17   2 174.752 1226.15   4
  15 -32   2 3612.48 1113.30   1
 -15 -17   2 2971.37 1464.77   4
 -32  17   2 2673.46 1123.96   2
 -14 -18  -2 4137.41 1635.23   2
 -18  32  -2 4931.78 1753.95   3
 -32  18  -2 656.586 1134.41   4
 -14 -18  -2 2060.90 1361.97   4
 -32  18  -2 790.931 800.980   2
  32 -14  -2 115.887 1463.48   1
  18  14   1 4430.92 963.002   3
 -14 -18   1 5427.10 1608.38   2
 -18  32   1 4553.88 1496.62   3
 -32  18   1 7606.99 1549.56   4
  14 -32   1 3269.88 944.613   1
 -14 -18   1 4142.74 1551.75   4
 -32  18   1 5160.81 1201.41   2
  32 -14   1 2920.17 1404.41   1
  18  14   4 2027.99 1122.28   3
 -14 -18   4 3352.03 1444.16   2
 -18  32   4 1473.47 1340.42   3
  14 -32   4 3725.90 1354.74   1
 -32  18   4 4023.03 1450.12   4
  32 -14   4 3050.21 1472.49   1
 -32  18   4 1672.91 1232.58   2
 -14 -18   4 1361.18 1492.28   4
 -13 -19  -3 6359.57 1961.92   2
 -19  32  -3 5205.56 1782.68   3
 -32  19  -3 6214.81 1365.62   4
 -13 -19  -3 4380.36 1468.57   4
  19  13   0 7232.78 983.131   3
 -13 -19   0 7140.58 1611.88   2
 -19  32   0 5561.29 1627.33   3
  32 -13   0 5372.01 1663.43   1
 -32  19   0 8984.10 1540.06   4
 -13 -19   0 6934.96 1667.49   4
 -32  19   0 6076.60 1164.44   2
  19  13   3 402.241 964.413   3
  32 -13   3 1989.56 1404.43   1
 -13 -19   3-1660.90 1399.82   2
 -19  32   3 2681.33 1410.04   3
  13 -32   3 366.428 1136.98   1
 -32  19   3-610.825 1251.67   4
 -32  19   3 34.8568 1140.03   2
 -13 -19   3 582.600 1316.36   4
 -20  32  -4 928.004 1813.61   3
 -32  20  -4 5595.16 1332.58   4
 -12 -20  -4 4610.62 1598.95   4
 -12 -20  -1 18796.1 2190.40   2
  32 -12  -1 16671.0 2068.49   1
 -20  32  -1 15779.3 2134.84   3
 -32  20  -1 19908.8 1938.56   4
 -32  20  -1 17372.6 1458.38   2
 -12 -20  -1 21947.5 2203.40   4
  20  12   2-330.265 901.325   3
 -12 -20   2-1290.87 1479.11   2
 -20  32   2 3102.00 1585.79   3
  12 -32   2 1647.36 1032.21   1
 -32  20   2 2981.43 1337.66   4
  32 -12   2 2440.53 1481.40   1
 -32  20   2 876.077 1117.46   2
 -12 -20   2 18.8661 1324.10   4
 -21  32  -2 1482.22 1681.79   3
 -11 -21  -2 2623.70 1652.05   2
 -32  21  -2 4741.26 1356.39   4
 -11 -21  -2 4872.10 1607.62   4
  21  11   1 2342.48 856.414   3
  32 -11   1 1512.12 1385.11   1
 -11 -21   1 31.6678 1511.80   2
 -21  32   1-183.707 1384.95   3
 -32  21   1 650.235 1206.90   4
  11 -32   1 2838.25 900.421   1
 -32  21   1 3172.30 1186.29   2
 -11 -21   1 3743.69 1487.14   4
 -11 -21   4 3153.56 1564.67   2
 -21  32   4 1290.76 1429.85   3
  11 -32   4 2882.97 1387.31   1
  32 -11   4 4846.93 1549.58   1
 -11 -21   4 388.678 1879.63   1
 -32  21   4 3574.30 1487.64   4
 -32  21   4 3223.66 1432.38   2
 -11 -21   4 3297.70 1524.82   4
  21  11   4 4316.81 1197.72   3
 -22  32  -3 6378.52 2032.63   3
 -10 -22  -3 5949.98 1927.87   2
 -32  22  -3 9897.53 1613.16   4
 -10 -22  -3 6291.67 1728.33   4
  32 -10   0 3135.31 1683.54   1
 -10 -22   0 5468.88 1809.51   2
 -22  32   0 2459.45 1494.54   3
 -32  22   0 3414.73 1315.16   4
 -32  22   0 4218.26 1113.21   2
 -10 -22   0 4826.36 1653.64   4
  10 -32   3 3937.99 1292.85   1
 -22  32   3 2737.53 1433.56   3
 -10 -22   3 807.926 1425.82   2
 -32  22   3 5574.32 1597.08   4
 -10 -22   3 4748.06 1767.07   1
 -32  22   3 2618.19 1377.72   2
  32 -10   3 3598.31 1585.05   1
 -10 -22   3 3509.44 1586.19   4
  22  10   3 2100.13 1044.07   3
 -23  32  -1 10721.8 2061.30   3
  -9 -23  -1 6928.43 1954.60   2
 -23  32  -1 11868.7 1818.12   2
 -32  23  -1 14940.4 1833.32   4
 -32  23  -1 14700.5 1475.78   2
  -9 -23  -1 11247.7 1961.95   4
  32  -9   2 1322.69 1530.06   1
   9 -32   2 3955.19 1214.38   1
 -23  32   2 3736.35 1626.51   3
  -9 -23   2 579.805 1500.52   2
 -32  23   2 6136.60 1563.14   4
  -9 -23   2 3612.53 1771.85   1
 -32  23   2 6734.38 1447.62   2
  -9 -23   2 1390.12 1421.88   4
  32  -9   2 3790.49 1443.01   3
  23   9   2 2941.95 1010.49   3
 -24  32  -2 3093.21 1778.96   3
  -8 -24  -2 5044.23 1894.44   2
 -32  24  -2 2431.13 1255.55   4
  -8 -24  -2 4518.54 1659.68   4
  32  -8   1-1288.59 1617.33   1
 -24  32   1 1449.63 1581.75   3
  -8 -24   1 2042.27 1730.46   2
 -24  32   1-1719.62 1608.81   2
 -32  24   1-1049.36 1330.05   4
  -8 -24   1 406.871 1478.68   1
 -32  24   1-439.261 1142.98   2
  -8 -24   1-229.940 1518.84   4
 -25  32   0 2275.54 1691.35   3
  -7 -25   0 2419.93 1818.74   2
 -25  32   0 1241.48 1454.37   2
 -32  25   0 2213.05 1366.36   4
 -32  25   0 852.412 1022.73   2
  -7 -25   0 606.829 1489.39   4
 -26  32  -1 4787.60 1915.25   3
 -26  32  -1 8054.45 1946.10   4
 -32  26  -1 8014.14 1675.22   4
  32  -6   2 1507.44 1732.67   1
 -26  32   2 3743.24 1747.36   3
  -6 -26   2 5803.75 1917.44   2
 -26  32   2 7395.69 1838.48   2
 -32  26   2 4922.47 1493.17   2
  -6 -26   2 7143.56 1863.40   1
  -6 -26   2 6289.90 1774.15   4
 -24  -9   0 2732.61 1386.32   2
   9  24   0 4937.12 1234.05   3
  -9  33   0 4227.75 1505.09   3
  33 -24   0 4026.94 1571.26   1
 -33   9   0 5869.29 1525.11   4
  24 -33   0 3089.47 1068.81   1
 -24  -9   0 3582.79 1513.33   4
 -33   9   0 4272.44 1200.79   2
  10  23  -1 3010.11 1142.46   3
 -23 -10  -1 2861.38 1388.57   2
 -10  33  -1 2487.60 1433.61   3
 -33  10  -1 4790.19 1468.39   4
 -23 -10  -1 4926.08 1525.79   4
  33 -23  -1 4461.94 1535.23   1
 -33  10  -1 3334.36 1101.01   2
 -23 -10   2 1123.60 1292.60   2
  10  23   2 1329.98 1149.25   3
  23 -33   2 704.854 1055.72   1
 -10  33   2 1774.43 1328.60   3
  33 -23   2 333.194 1306.51   1
 -33  10   2 4046.83 1504.51   4
 -23 -10   2 1021.59 1406.48   4
 -33  10   2-339.019 1111.59   2
  11  22  -2 4105.76 1163.52   3
 -22 -11  -2 5253.88 1575.99   2
 -11  33  -2 5907.84 1726.97   3
  33 -22  -2 2672.27 1614.40   1
 -33  11  -2 5878.89 1481.69   4
 -22 -11  -2 5456.75 1637.02   4
 -33  11  -2 2764.85 1041.54   2
  11  22   1 6735.88 1233.38   3
 -22 -11   1 6317.85 1524.30   2
 -11  33   1 3409.07 1473.98   3
 -33  11   1 6883.53 1634.02   4
 -22 -11   1 6516.51 1701.05   4
  22 -33   1 5758.90 1224.86   1
 -33  11   1 5557.91 1247.55   2
  33 -22   1 4254.89 1486.90   1
 -33  12  -3 2834.61 994.809   2
 -21 -12  -3 4326.37 1659.31   2
 -12  33  -3 4792.78 1827.00   3
  33 -21  -3 3984.17 1644.68   1
 -33  12  -3 6216.59 1485.31   4
 -21 -12  -3 5482.39 1490.75   4
  12  21   0 2342.86 1041.85   3
 -21 -12   0 2365.85 1378.01   2
 -12  33   0 2378.83 1385.40   3
  21 -33   0-455.410 868.744   1
  33 -21   0 1296.41 1439.94   1
 -33  12   0 5065.77 1500.07   4
 -21 -12   0 2629.65 1498.39   4
 -33  12   0 1922.74 1024.92   2
  12  21   3 3924.21 1204.20   3
 -21 -12   3 2796.96 1348.19   2
 -12  33   3 3575.79 1451.21   3
  33 -21   3 3274.74 1478.13   1
 -33  12   3 3641.41 1546.08   4
 -21 -12   3 7586.20 1680.01   4
 -33  12   3 5058.23 1383.20   2
  21 -33   3 3063.07 1175.87   1
  33 -20  -1 2186.82 1504.61   1
  13  20  -1-42.7377 963.590   3
 -20 -13  -1 431.794 1349.35   2
 -13  33  -1 20.1161 1364.71   3
 -33  13  -1 2385.77 1379.19   4
 -20 -13  -1 2042.19 1479.48   4
 -33  13  -1 959.777 960.299   2
  13  20   2 626.798 1035.27   3
 -20 -13   2-1641.88 1375.42   2
 -13  33   2 1492.90 1372.21   3
 -33  13   2 660.618 1395.95   4
  33 -20   2 573.091 1311.99   1
 -20 -13   2 2627.93 1580.37   4
  20 -33   2-1005.71 1033.80   1
 -19 -14  -2 5575.84 1652.21   2
 -14  33  -2 5510.63 1766.18   3
 -33  14  -2 6838.87 1517.07   4
 -19 -14  -2 7888.12 1665.11   4
 -33  14  -2 2875.37 969.512   2
  33 -19  -2 5767.88 1678.92   1
  14  19   1 7570.92 1221.82   3
 -19 -14   1 7621.44 1707.62   2
  19 -33   1 3847.29 1005.09   1
 -14  33   1 4527.94 1513.07   3
  33 -19   1 3331.61 1566.07   1
 -33  14   1 7794.66 1678.52   4
 -19 -14   1 8319.96 1814.95   4
 -33  14   1 6585.52 1288.98   2
 -18 -15  -3 3402.78 1759.16   2
 -15  33  -3 7637.78 1994.72   3
 -33  15  -3 7503.48 1460.96   4
 -18 -15  -3 7865.23 1617.13   4
  15  18   0-7.17385 882.756   3
 -18 -15   0 468.356 1329.43   2
 -15  33   0 321.609 1350.46   3
 -33  15   0 389.382 1221.54   4
 -18 -15   0 929.932 1403.22   4
  33 -18   0-521.890 1401.54   1
 -33  15   0-711.810 988.951   2
 -18 -15   3 3227.12 1374.08   2
 -15  33   3 3135.20 1411.14   3
 -33  15   3 5940.69 1563.41   4
  33 -18   3 5806.97 1653.47   1
 -18 -15   3 8221.31 1879.05   4
  18 -33   3 6735.92 1334.77   1
 -33  15   3 6127.31 1426.93   2
  15  18   3 6765.94 1319.08   3
 -17 -16  -1 8625.77 1853.60   2
 -16  33  -1 6182.73 1740.85   3
  33 -17  -1 8282.39 1814.30   1
 -33  16  -1 9048.32 1572.23   4
 -17 -16  -1 8404.80 1733.80   4
 -33  16  -1 8131.93 1180.73   2
  33 -17   2 3429.52 1528.20   1
 -17 -16   2 2945.65 1389.53   2
 -16  33   2 2620.59 1363.16   3
 -33  16   2 4076.43 1432.49   4
 -17 -16   2 3414.53 1537.47   4
  17 -33   2 4229.41 1136.55   1
 -33  16   2 5468.51 1273.54   2
  16  17   2 5777.38 1173.49   3
  33 -16  -2 2215.45 1540.11   1
 -16 -17  -2 2044.65 1535.95   2
 -17  33  -2 2989.01 1690.17   3
 -33  17  -2 3275.61 1319.67   4
 -16 -17  -2 5125.41 1572.56   4
 -33  17  -2 4278.71 1001.00   2
  17  16   1 10794.0 1186.36   3
 -16 -17   1 7807.05 1655.11   2
 -17  33   1 7179.99 1666.00   3
  16 -33   1 7751.57 1148.84   1
 -33  17   1 10139.9 1734.94   4
  33 -16   1 8114.74 1702.86   1
 -33  17   1 10096.5 1414.17   2
 -16 -17   1 11586.0 1920.42   4
 -15 -18  -3 7813.10 1955.89   2
 -18  33  -3 6580.74 1904.60   3
 -33  18  -3 7017.33 1432.67   4
 -15 -18  -3 5945.28 1624.15   4
  18  15   0-246.002 802.834   3
  33 -15   0 322.216 1402.10   1
 -15 -18   0-101.436 1424.58   2
 -18  33   0 1894.14 1453.49   3
 -33  18   0 2030.96 1270.04   4
 -15 -18   0-431.230 1375.59   4
 -33  18   0-659.573 944.811   2
  33 -15   3 4521.30 1632.81   1
  18  15   3 5474.41 1216.75   3
 -15 -18   3 4769.13 1524.41   2
 -18  33   3 6866.08 1695.02   3
 -33  18   3 9505.52 1755.85   4
  15 -33   3 7311.26 1324.35   1
 -33  18   3 7062.42 1456.00   2
 -15 -18   3 7501.71 1695.54   4
  33 -14  -1 4250.74 1770.25   1
 -14 -19  -1 6164.71 1713.39   2
 -19  33  -1 3226.77 1691.26   3
 -33  19  -1 10460.6 1717.71   4
 -14 -19  -1 6948.43 1651.44   4
 -33  19  -1 4901.64 1111.86   2
  19  14   2 4757.52 1082.00   3
 -14 -19   2 3778.93 1645.62   2
 -19  33   2 5630.27 1615.71   3
 -33  19   2 8878.53 1729.16   4
  14 -33   2 6247.61 1201.42   1
  33 -14   2 5776.92 1595.23   1
 -33  19   2 6674.41 1377.91   2
 -14 -19   2 5495.65 1670.81   4
 -13 -20  -2 1822.49 1655.53   2
 -20  33  -2 1584.89 1661.81   3
 -33  20  -2 1874.54 1262.74   4
 -13 -20  -2 2547.42 1488.29   4
  33 -13   1 2627.80 1454.69   1
  20  13   1 1558.62 851.999   3
 -13 -20   1 580.760 1446.59   2
 -33  20   1 4029.69 1487.48   4
 -33  20   1 1119.66 1086.47   2
 -13 -20   1 3440.34 1649.88   4
 -21  33  -3 2729.79 1888.62   3
 -12 -21  -3 2378.00 1750.92   2
 -33  21  -3 5209.21 1448.31   4
 -12 -21  -3 5918.15 1660.99   4
 -12 -21   0 1760.08 1489.80   2
 -21  33   0 974.379 1557.88   3
 -33  21   0 2277.11 1332.88   4
 -33  21   0 3023.85 1079.08   2
 -12 -21   0 4431.95 1597.19   4
  33 -12   0 3449.63 1698.50   1
  21  12   3 3075.93 1110.64   3
 -12 -21   3 3727.68 1645.64   2
 -21  33   3 2548.24 1512.71   3
  12 -33   3 4046.76 1279.68   1
 -33  21   3 2066.69 1391.77   4
  33 -12   3 4008.64 1530.96   1
 -33  21   3 4851.58 1464.17   2
 -12 -21   3 5175.48 1655.88   4
 -22  33  -1 6967.26 1948.52   3
 -11 -22  -1 4314.30 1770.70   2
 -33  22  -1 9431.88 1631.19   4
  33 -11  -1 5972.90 1962.87   1
 -11 -22  -1 5784.91 1686.11   4
 -33  22  -1 5942.39 1140.08   2
  22  11   2 5800.09 1096.75   3
  11 -33   2 7811.17 1272.93   1
 -22  33   2 4382.02 1584.16   3
 -11 -22   2 2782.80 1663.24   2
 -33  22   2 7335.97 1644.98   4
 -33  22   2 4456.27 1342.29   2
 -11 -22   2 6550.63 1731.00   4
  33 -11   2 6511.76 1725.52   1
 -23  33  -2 4044.70 1968.05   3
 -10 -23  -2-1515.80 1801.84   2
 -33  23  -2 414.993 1220.26   4
 -10 -23  -2 129.267 1495.41   4
 -10 -23   1 55.0087 1535.32   2
 -23  33   1 2179.27 1689.17   3
 -33  23   1 3782.59 1452.19   4
 -10 -23   1 274.878 1512.03   1
  33 -10   1 5685.24 1798.08   1
 -33  23   1 3588.70 1235.94   2
 -10 -23   1 3891.50 1580.05   4
 -24  33   0 7756.39 2032.56   3
  -9 -24   0 4045.65 1854.53   2
 -24  33   0 7343.85 1768.21   2
 -33  24   0 5784.22 1578.54   4
 -33  24   0 6535.99 1320.05   2
  -9 -24   0 7750.77 1915.03   4
  33  -9   0 2327.69 1814.70   1
  13  21   1 1071.11 1014.78   3
  21 -34   1 3856.34 1024.67   1
 -21 -13   1 2269.97 1413.52   2
 -13  34   1 1619.03 1465.46   3
  34 -21   1 962.705 1475.09   1
 -34  13   1 2415.63 1398.80   4
 -21 -13   1 2732.90 1544.54   4
 -34  13   1 971.329 1094.38   2
  14  20   0 650.700 930.651   3
 -20 -14   0 1957.23 1388.33   2
 -14  34   0 2105.05 1505.54   3
 -34  14   0 2985.60 1430.95   4
 -20 -14   0 5408.97 1586.71   4
  34 -20   0 2210.98 1488.49   1
 -34  14   0 4278.38 1149.69   2
 -19 -15  -1 1794.68 1577.02   2
 -15  34  -1 2253.90 1562.75   3
  34 -19  -1 1275.13 1552.58   1
 -34  15  -1 1025.53 1289.71   4
 -19 -15  -1 757.394 1385.62   4
 -34  15  -1 1006.54 952.234   2
 -18 -16  -2 2693.48 1537.95   2
 -34  16  -2 8117.55 1608.68   4
  34 -18  -2 7095.46 1940.89   1
 -18 -16  -2 6216.76 1647.80   4
 -34  16  -2 4042.17 1040.76   2
  16  18   1 2119.59 1017.57   3
 -18 -16   1 384.512 1417.40   2
 -16  34   1-705.805 1466.97   3
 -34  16   1 1875.82 1378.19   4
  34 -18   1 2396.47 1601.12   1
 -18 -16   1-1659.58 1467.93   4
 -34  16   1 2424.84 1060.80   2
  18 -34   1 1017.59 939.414   1
  34 -17   0-1612.23 1655.90   1
  17  17   0 1797.16 894.304   3
 -17 -17   0 3230.83 1564.84   2
 -17  34   0 2212.32 1545.56   3
 -34  17   0 5186.11 1509.94   4
 -17 -17   0 4236.66 1594.79   4
 -34  17   0 2815.96 1093.44   2
 -16 -18  -1 3355.99 1685.67   2
 -18  34  -1-60.1619 1546.64   3
 -34  18  -1 1200.85 1298.53   4
 -16 -18  -1 2227.44 1512.88   4
 -34  18  -1 1141.74 935.119   2
  34 -16  -1 2376.75 1643.05   1
  18  16   2 4439.16 1123.02   3
 -16 -18   2 4548.04 1607.57   2
 -18  34   2 2931.75 1499.98   3
  34 -16   2 4078.20 1518.46   1
 -34  18   2 6237.05 1623.88   4
 -16 -18   2 9848.25 1898.43   4
  16 -34   2 4886.47 1188.80   1
 -34  18   2 4822.22 1397.94   2
  19  15   1 1475.27 941.119   3
 -15 -19   1 797.532 1451.76   2
 -19  34   1 3063.30 1590.64   3
 -34  19   1 1570.85 1424.42   4
 -15 -19   1-139.054 1384.66   4
 -34  19   1 184.212 1090.23   2
  34 -15   1 1848.00 1469.24   1
 -14 -20   0 4098.53 1735.65   2
 -20  34   0 2999.83 1633.27   3
 -34  20   0 3716.50 1452.74   4
  34 -14   0 2103.86 1559.65   1
 -14 -20   0 3893.01 1645.13   4
 -34  20   0 3063.12 1082.80   2
 -13 -21  -1 2750.84 1682.21   2
 -21  34  -1 1288.13 1621.91   3
  34 -13  -1 5787.86 1782.48   1
 -34  21  -1 2237.63 1403.05   4
 -13 -21  -1 3059.84 1557.11   4
 -34  21  -1 1286.59 963.216   2
   0   0   0    0.00    0.00   0

TITL YY_ZnGlyPyr_Mesitylene_100K_0-77 in R3c
REM R3c (#161 in standard setting)
CELL 0.71073  26.531661  26.531661  10.115894  90.0000  90.0000 120.0000
ZERR   18.00   0.000663   0.000663   0.000219   0.0000   0.0000   0.0000
LATT -3
SYMM -y, x-y, z
SYMM -x+y,-x, z
SYMM -y,-x, z+1/2
SYMM -x+y, y, z+1/2
SYMM  x, x-y, z+1/2
SFAC C H N O Zn
UNIT 108.00 90.00 54.00 90.00 18.00
TREF
HKLF 4
END
;
_shelx_hkl_checksum              89878
_olex2_submission_special_instructions 'No special instructions were received'
_oxdiff_exptl_absorpt_empirical_details
;
Empirical correction (ABSPACK) includes:
- Absorption correction using spherical harmonics
- Frame scaling
- Detector area scaling
;
_oxdiff_exptl_absorpt_empirical_full_max 1.612
_oxdiff_exptl_absorpt_empirical_full_min 0.692
loop_
_space_group_symop_operation_xyz
'x, y, z'
'-y, x-y, z'
'-x+y, -x, z'
'-y, -x, z+1/2'
'-x+y, y, z+1/2'
'x, x-y, z+1/2'
'x+2/3, y+1/3, z+1/3'
'-y+2/3, x-y+1/3, z+1/3'
'-x+y+2/3, -x+1/3, z+1/3'
'-y+2/3, -x+1/3, z+5/6'
'-x+y+2/3, y+1/3, z+5/6'
'x+2/3, x-y+1/3, z+5/6'
'x+1/3, y+2/3, z+2/3'
'-y+1/3, x-y+2/3, z+2/3'
'-x+y+1/3, -x+2/3, z+2/3'
'-y+1/3, -x+2/3, z+7/6'
'-x+y+1/3, y+2/3, z+7/6'
'x+1/3, x-y+2/3, z+7/6'
loop_
_atom_site_label
_atom_site_type_symbol
_atom_site_fract_x
_atom_site_fract_y
_atom_site_fract_z
_atom_site_U_iso_or_equiv
_atom_site_adp_type
_atom_site_occupancy
_atom_site_site_symmetry_order
_atom_site_calc_flag
_atom_site_refinement_flags_posn
_atom_site_refinement_flags_adp
_atom_site_refinement_flags_occupancy
_atom_site_disorder_assembly
_atom_site_disorder_group
Zn1 Zn -0.35230(3) -0.32397(3) -0.6752(17) 0.0171(2) Uani 1 1 d . . . . .
O3 O -0.5579(2) -0.4434(2) -0.2384(17) 0.0270(10) Uani 1 1 d . . . . .
O2 O -0.68009(19) -0.59798(19) -0.3146(17) 0.0206(9) Uani 1 1 d . U . . .
N3 N -0.5855(2) -0.4604(2) -0.4525(17) 0.0187(10) Uani 1 1 d . . . . .
H3 H -0.5765 -0.4500 -0.5336 0.022 Uiso 1 1 calc R . . . .
O1 O -0.62126(19) -0.57696(18) -0.4886(17) 0.0217(9) Uani 1 1 d . U . . .
N2 N -0.4046(2) -0.3506(2) -0.5220(17) 0.0186(10) Uani 1 1 d . . . . .
N1 N -0.3879(2) -0.3490(2) -0.3941(17) 0.0199(10) Uani 1 1 d . . . . .
C6 C -0.6481(2) -0.5639(3) -0.4054(18) 0.0173(11) Uani 1 1 d . U . . .
C1 C -0.4356(3) -0.3769(3) -0.3204(18) 0.0228(13) Uani 1 1 d . . . . .
H1 H -0.4361 -0.3822 -0.2294 0.027 Uiso 1 1 calc R . . . .
C3 C -0.4622(3) -0.3796(3) -0.5267(18) 0.0199(12) Uani 1 1 d . . . . .
H3A H -0.4843 -0.3871 -0.6031 0.024 Uiso 1 1 calc R . . . .
C5 C -0.6441(3) -0.5056(3) -0.4191(18) 0.0210(12) Uani 1 1 d . U . . .
H5A H -0.6707 -0.5077 -0.4875 0.025 Uiso 1 1 calc R . . . .
H5B H -0.6557 -0.4957 -0.3366 0.025 Uiso 1 1 calc R . . . .
C4 C -0.5452(3) -0.4347(3) -0.3577(17) 0.0208(12) Uani 1 1 d . . . . .
C2 C -0.4846(3) -0.3971(3) -0.3997(18) 0.0211(12) Uani 1 1 d . . . . .
C9A C -0.7355(4) -0.5187(5) 0.114(3) 0.097(5) Uiso 0.3333 1 d D . P A -1
H9A H -0.7180 -0.4964 0.1893 0.097(5) Uiso 0.3333 1 calc R . P A -1
C10A C -0.7239(4) -0.4925(5) -0.009(3) 0.097(5) Uiso 0.3333 1 d DG . P A -1
C12A C -0.7500(5) -0.5259(8) -0.121(2) 0.097(5) Uiso 0.3333 1 d DG . P A -1
H12A H -0.7422 -0.5083 -0.2041 0.097(5) Uiso 0.3333 1 calc R . P A -1
C13A C -0.7876(5) -0.5855(8) -0.109(2) 0.097(5) Uiso 0.3333 1 d DG . P A -1
C15A C -0.7992(4) -0.6117(5) 0.014(3) 0.097(5) Uiso 0.3333 1 d DG . P A -1
H15A H -0.8244 -0.6515 0.0223 0.097(5) Uiso 0.3333 1 calc R . P A -1
C8A C -0.7731(4) -0.5783(5) 0.126(2) 0.097(5) Uiso 0.3333 1 d DG . P A -1
C11A C -0.6865(6) -0.4336(7) -0.018(4) 0.097(5) Uiso 0.3333 1 d D . P A -1
H11A H -0.6828 -0.4218 -0.1090 0.097(5) Uiso 0.3333 1 calc R . P A -1
H11B H -0.7017 -0.4135 0.0326 0.097(5) Uiso 0.3333 1 calc R . P A -1
H11C H -0.6491 -0.4244 0.0158 0.097(5) Uiso 0.3333 1 calc R . P A -1
C14A C -0.8145(6) -0.6206(9) -0.213(3) 0.097(5) Uiso 0.3333 1 d D . P A -1
H14A H -0.8383 -0.6598 -0.1820 0.097(5) Uiso 0.3333 1 calc R . P A -1
H14B H -0.8385 -0.6081 -0.2567 0.097(5) Uiso 0.3333 1 calc R . P A -1
H14C H -0.7859 -0.6190 -0.2734 0.097(5) Uiso 0.3333 1 calc R . P A -1
C7A C -0.7845(6) -0.6040(9) 0.247(3) 0.097(5) Uiso 0.3333 1 d D . P A -1
H7AA H -0.7633 -0.5752 0.3134 0.097(5) Uiso 0.3333 1 calc R . P A -1
H7AB H -0.8255 -0.6221 0.2650 0.097(5) Uiso 0.3333 1 calc R . P A -1
H7AC H -0.7729 -0.6330 0.2482 0.097(5) Uiso 0.3333 1 calc R . P A -1
C15B C -0.7883(4) -0.5191(7) -0.4021(8) 0.116(8) Uiso 0.25 1 d D . P B -2
H15B H -0.8094 -0.5396 -0.4761 0.116(8) Uiso 0.25 1 calc R . P B -2
C13B C -0.7881(5) -0.5489(7) -0.2893(12) 0.116(8) Uiso 0.25 1 d DG . P B -2
C12B C -0.7566(6) -0.5182(9) -0.1787(9) 0.116(8) Uiso 0.25 1 d DG . P B -2
H12B H -0.7565 -0.5382 -0.1032 0.116(8) Uiso 0.25 1 calc R . P B -2
C10B C -0.7255(6) -0.4578(9) -0.1808(12) 0.116(8) Uiso 0.25 1 d DG . P B -2
C9B C -0.7257(5) -0.4279(7) -0.2935(17) 0.116(8) Uiso 0.25 1 d DG . P B -2
H9B H -0.7048 -0.3875 -0.2949 0.116(8) Uiso 0.25 1 calc R . P B -2
C8B C -0.7571(5) -0.4586(7) -0.4042(12) 0.116(8) Uiso 0.25 1 d DG . P B -2
C7B C -0.7562(7) -0.4277(10) -0.512(2) 0.116(8) Uiso 0.25 1 d D . P B -2
H7BA H -0.7795 -0.4539 -0.5811 0.116(8) Uiso 0.25 1 calc R . P B -2
H7BB H -0.7715 -0.4028 -0.4894 0.116(8) Uiso 0.25 1 calc R . P B -2
H7BC H -0.7168 -0.4044 -0.5428 0.116(8) Uiso 0.25 1 calc R . P B -2
C11B C -0.6942(7) -0.4263(11) -0.074(2) 0.116(8) Uiso 0.25 1 d D . P B -2
H11D H -0.6979 -0.4523 -0.0041 0.116(8) Uiso 0.25 1 calc R . P B -2
H11E H -0.6540 -0.4030 -0.0985 0.116(8) Uiso 0.25 1 calc R . P B -2
H11F H -0.7087 -0.4015 -0.0451 0.116(8) Uiso 0.25 1 calc R . P B -2
C14B C -0.8192(6) -0.6083(9) -0.290(3) 0.116(8) Uiso 0.25 1 d D . P B -2
H14D H -0.8151 -0.6229 -0.2067 0.116(8) Uiso 0.25 1 calc R . P B -2
H14E H -0.8595 -0.6211 -0.3061 0.116(8) Uiso 0.25 1 calc R . P B -2
H14F H -0.8048 -0.6226 -0.3594 0.116(8) Uiso 0.25 1 calc R . P B -2
loop_
_atom_site_aniso_label
_atom_site_aniso_U_11
_atom_site_aniso_U_22
_atom_site_aniso_U_33
_atom_site_aniso_U_23
_atom_site_aniso_U_13
_atom_site_aniso_U_12
Zn1 0.0211(3) 0.0221(4) 0.0074(3) -0.0004(3) 0.0001(3) 0.0102(3)
O3 0.028(2) 0.036(3) 0.010(2) 0.0024(19) 0.0030(18) 0.0111(19)
O2 0.026(2) 0.028(2) 0.008(2) 0.0040(16) 0.0008(17) 0.0131(18)
N3 0.021(2) 0.019(2) 0.012(3) 0.0011(19) 0.0011(18) 0.0071(19)
O1 0.031(2) 0.024(2) 0.013(2) 0.0022(17) 0.0043(17) 0.0154(18)
N2 0.021(2) 0.025(3) 0.008(2) 0.0002(19) 0.0022(19) 0.010(2)
N1 0.024(3) 0.028(3) 0.005(2) 0.0009(19) 0.001(2) 0.012(2)
C6 0.018(2) 0.024(3) 0.007(3) 0.000(2) -0.004(2) 0.009(2)
C1 0.027(3) 0.027(3) 0.011(3) 0.005(2) 0.002(2) 0.010(2)
C3 0.020(3) 0.026(3) 0.010(3) 0.000(2) 0.000(2) 0.009(2)
C5 0.019(3) 0.024(3) 0.017(3) 0.001(2) 0.002(2) 0.009(2)
C4 0.029(3) 0.024(3) 0.010(3) 0.000(2) -0.002(2) 0.014(2)
C2 0.025(3) 0.026(3) 0.011(3) -0.002(2) -0.002(2) 0.012(2)
loop_
_atom_type_symbol
_atom_type_description
_atom_type_scat_dispersion_real
_atom_type_scat_dispersion_imag
_atom_type_scat_source
C C 0.0033 0.0016 'International Tables Vol C Tables 4.2.6.8 and 6.1.1.4'
H H 0.0000 0.0000 'International Tables Vol C Tables 4.2.6.8 and 6.1.1.4'
N N 0.0061 0.0033 'International Tables Vol C Tables 4.2.6.8 and 6.1.1.4'
O O 0.0106 0.0060 'International Tables Vol C Tables 4.2.6.8 and 6.1.1.4'
Zn Zn 0.2839 1.4301 'International Tables Vol C Tables 4.2.6.8 and 6.1.1.4'
loop_
_geom_angle_atom_site_label_1
_geom_angle_atom_site_label_2
_geom_angle_atom_site_label_3
_geom_angle
_geom_angle_site_symmetry_1
_geom_angle_site_symmetry_3
_geom_angle_publ_flag
O2 Zn1 N1 112.51(19) 4_444 14_444 ?
O1 Zn1 O2 104.32(17) 11_454 4_444 ?
O1 Zn1 N2 112.25(19) 11_454 . ?
O1 Zn1 N1 108.0(2) 11_454 14_444 ?
N2 Zn1 O2 102.32(19) . 4_444 ?
N2 Zn1 N1 116.8(2) . 14_444 ?
C6 O2 Zn1 138.8(4) . 4_445 ?
C5 N3 H3 119.8 . . ?
C4 N3 H3 119.8 . . ?
C4 N3 C5 120.4(5) . . ?
C6 O1 Zn1 120.9(4) . 17_444 ?
N1 N2 Zn1 125.4(4) . . ?
C3 N2 Zn1 125.7(4) . . ?
C3 N2 N1 108.4(5) . . ?
N2 N1 Zn1 122.4(4) . 9_445 ?
C1 N1 Zn1 129.3(4) . 9_445 ?
C1 N1 N2 108.1(5) . . ?
O2 C6 C5 118.5(5) . . ?
O1 C6 O2 123.9(6) . . ?
O1 C6 C5 117.6(5) . . ?
N1 C1 H1 125.1 . . ?
N1 C1 C2 109.8(6) . . ?
C2 C1 H1 125.1 . . ?
N2 C3 H3A 125.2 . . ?
N2 C3 C2 109.6(5) . . ?
C2 C3 H3A 125.2 . . ?
N3 C5 C6 111.6(5) . . ?
N3 C5 H5A 109.3 . . ?
N3 C5 H5B 109.3 . . ?
C6 C5 H5A 109.3 . . ?
C6 C5 H5B 109.3 . . ?
H5A C5 H5B 108.0 . . ?
O3 C4 N3 121.7(6) . . ?
O3 C4 C2 120.7(6) . . ?
N3 C4 C2 117.5(5) . . ?
C1 C2 C3 104.1(6) . . ?
C1 C2 C4 126.3(6) . . ?
C3 C2 C4 129.2(6) . . ?
C10A C9A H9A 120.0 . . ?
C10A C9A C8A 120.0 . . ?
C8A C9A H9A 120.0 . . ?
C9A C10A C12A 120.0 . . ?
C11A C10A C9A 118.8(14) . . ?
C11A C10A C12A 121.2(14) . . ?
C10A C12A H12A 120.0 . . ?
C13A C12A C10A 120.0 . . ?
C13A C12A H12A 120.0 . . ?
C12A C13A C15A 120.0 . . ?
C14A C13A C12A 123.5(13) . . ?
C14A C13A C15A 116.5(13) . . ?
C13A C15A H15A 120.0 . . ?
C13A C15A C8A 120.0 . . ?
C8A C15A H15A 120.0 . . ?
C15A C8A C9A 120.0 . . ?
C7A C8A C9A 120.2(10) . . ?
C7A C8A C15A 119.8(10) . . ?
C10A C11A H11A 109.5 . . ?
C10A C11A H11B 109.5 . . ?
C10A C11A H11C 109.5 . . ?
H11A C11A H11B 109.5 . . ?
H11A C11A H11C 109.5 . . ?
H11B C11A H11C 109.5 . . ?
C13A C14A H14A 109.5 . . ?
C13A C14A H14B 109.5 . . ?
C13A C14A H14C 109.5 . . ?
H14A C14A H14B 109.5 . . ?
H14A C14A H14C 109.5 . . ?
H14B C14A H14C 109.5 . . ?
C8A C7A H7AA 109.5 . . ?
C8A C7A H7AB 109.5 . . ?
C8A C7A H7AC 109.5 . . ?
H7AA C7A H7AB 109.5 . . ?
H7AA C7A H7AC 109.5 . . ?
H7AB C7A H7AC 109.5 . . ?
C13B C15B H15B 120.0 . . ?
C13B C15B C8B 120.0 . . ?
C8B C15B H15B 120.0 . . ?
C15B C13B C12B 120.0 . . ?
C14B C13B C15B 118.5(13) . . ?
C14B C13B C12B 121.5(13) . . ?
C13B C12B H12B 120.0 . . ?
C10B C12B C13B 120.0 . . ?
C10B C12B H12B 120.0 . . ?
C9B C10B C12B 120.0 . . ?
C11B C10B C12B 121.6(14) . . ?
C11B C10B C9B 118.4(14) . . ?
C10B C9B H9B 120.0 . . ?
C10B C9B C8B 120.0 . . ?
C8B C9B H9B 120.0 . . ?
C9B C8B C15B 120.0 . . ?
C7B C8B C15B 122.0(11) . . ?
C7B C8B C9B 118.0(11) . . ?
C8B C7B H7BA 109.5 . . ?
C8B C7B H7BB 109.5 . . ?
C8B C7B H7BC 109.5 . . ?
H7BA C7B H7BB 109.5 . . ?
H7BA C7B H7BC 109.5 . . ?
H7BB C7B H7BC 109.5 . . ?
C10B C11B H11D 109.5 . . ?
C10B C11B H11E 109.5 . . ?
C10B C11B H11F 109.5 . . ?
H11D C11B H11E 109.5 . . ?
H11D C11B H11F 109.5 . . ?
H11E C11B H11F 109.5 . . ?
C13B C14B H14D 109.5 . . ?
C13B C14B H14E 109.5 . . ?
C13B C14B H14F 109.5 . . ?
H14D C14B H14E 109.5 . . ?
H14D C14B H14F 109.5 . . ?
H14E C14B H14F 109.5 . . ?
loop_
_geom_bond_atom_site_label_1
_geom_bond_atom_site_label_2
_geom_bond_distance
_geom_bond_site_symmetry_2
_geom_bond_publ_flag
Zn1 O2 1.971(4) 4_444 ?
Zn1 O1 1.955(4) 11_454 ?
Zn1 N2 1.961(5) . ?
Zn1 N1 1.985(5) 14_444 ?
O3 C4 1.243(8) . ?
O2 Zn1 1.971(4) 4_445 ?
O2 C6 1.270(7) . ?
N3 H3 0.8600 . ?
N3 C5 1.451(8) . ?
N3 C4 1.341(8) . ?
O1 Zn1 1.955(4) 17_444 ?
O1 C6 1.257(7) . ?
N2 N1 1.360(7) . ?
N2 C3 1.325(8) . ?
N1 Zn1 1.985(5) 9_445 ?
N1 C1 1.331(8) . ?
C6 C5 1.504(8) . ?
C1 H1 0.9300 . ?
C1 C2 1.387(9) . ?
C3 H3A 0.9300 . ?
C3 C2 1.395(9) . ?
C5 H5A 0.9700 . ?
C5 H5B 0.9700 . ?
C4 C2 1.468(9) . ?
C9A H9A 0.9300 . ?
C9A C10A 1.3900 . ?
C9A C8A 1.3900 . ?
C10A C12A 1.3900 . ?
C10A C11A 1.372(14) . ?
C12A H12A 0.9300 . ?
C12A C13A 1.3900 . ?
C13A C15A 1.3900 . ?
C13A C14A 1.344(16) . ?
C15A H15A 0.9300 . ?
C15A C8A 1.3900 . ?
C8A C7A 1.358(17) . ?
C11A H11A 0.9600 . ?
C11A H11B 0.9600 . ?
C11A H11C 0.9600 . ?
C14A H14A 0.9600 . ?
C14A H14B 0.9600 . ?
C14A H14C 0.9600 . ?
C7A H7AA 0.9600 . ?
C7A H7AB 0.9600 . ?
C7A H7AC 0.9600 . ?
C15B H15B 0.9300 . ?
C15B C13B 1.3900 . ?
C15B C8B 1.3900 . ?
C13B C12B 1.3900 . ?
C13B C14B 1.366(16) . ?
C12B H12B 0.9300 . ?
C12B C10B 1.3900 . ?
C10B C9B 1.3900 . ?
C10B C11B 1.361(16) . ?
C9B H9B 0.9300 . ?
C9B C8B 1.3900 . ?
C8B C7B 1.360(17) . ?
C7B H7BA 0.9600 . ?
C7B H7BB 0.9600 . ?
C7B H7BC 0.9600 . ?
C11B H11D 0.9600 . ?
C11B H11E 0.9600 . ?
C11B H11F 0.9600 . ?
C14B H14D 0.9600 . ?
C14B H14E 0.9600 . ?
C14B H14F 0.9600 . ?
